MODEL        1
REMARK 921   NORMALIZED FREE ENERGY PREDICTED BY IDOCK:   -8.36 KCAL/MOL
REMARK 922        TOTAL FREE ENERGY PREDICTED BY IDOCK:  -11.48 KCAL/MOL
REMARK 923 INTER-LIGAND FREE ENERGY PREDICTED BY IDOCK:  -10.80 KCAL/MOL
REMARK 924 INTRA-LIGAND FREE ENERGY PREDICTED BY IDOCK:   -0.67 KCAL/MOL
REMARK 927      BINDING AFFINITY PREDICTED BY RF-SCORE:    0.00 PKD
ROOT
HETATM    1  C   UNL     1      -9.891  12.016  68.483  1.00  0.00    -0.177 C  
HETATM    2  C   UNL     1     -11.046  13.019  68.485  1.00  0.00    -0.266 C  
ENDROOT
BRANCH   2   3
HETATM    3  O   UNL     1     -11.801  12.778  67.296  1.00  0.00    -0.368 OA 
BRANCH   3   4
HETATM    4  C   UNL     1     -11.746  13.648  66.246  1.00  0.00    -0.367 A  
HETATM    5  C   UNL     1     -11.551  15.622  64.378  1.00  0.00    -0.249 A  
HETATM    6  C   UNL     1     -10.876  15.808  65.578  1.00  0.00    -0.343 A  
HETATM    7  H1  UNL     1     -13.762  12.502  63.763  1.00  0.00     0.000 HD 
HETATM    8  N   UNL     1     -12.301  14.536  64.078  1.00  0.00    -0.763 NA 
HETATM    9  C   UNL     1     -10.982  14.790  66.520  1.00  0.00    -0.325 A  
HETATM   10  C   UNL     1     -12.410  13.580  65.020  1.00  0.00    -0.428 A  
HETATM   11  H2  UNL     1     -13.988  12.490  65.388  1.00  0.00     0.000 HD 
HETATM   12  N   UNL     1     -13.277  12.552  64.659  1.00  0.00    -0.785 NA 
BRANCH   6  13
HETATM   13  C   UNL     1     -10.146  17.031  65.831  1.00  0.00    -0.281 A  
HETATM   14  N   UNL     1      -9.643  19.236  66.093  1.00  0.00    -0.410 NA 
HETATM   15  C   UNL     1     -10.610  18.361  65.840  1.00  0.00    -0.285 A  
HETATM   16  C   UNL     1      -8.799  17.141  66.115  1.00  0.00    -0.185 A  
HETATM   17  N   UNL     1      -8.540  18.481  66.239  1.00  0.00    -0.441 NA 
BRANCH  17  18
HETATM   18  C   UNL     1      -7.240  19.110  66.468  1.00  0.00    -0.226 C  
HETATM   19  C   UNL     1      -7.300  20.210  67.537  1.00  0.00    -0.325 C  
HETATM   20  C   UNL     1      -7.347  19.644  68.957  1.00  0.00    -0.328 C  
HETATM   21  N   UNL     1      -6.248  18.710  69.208  1.00  0.00    -0.252 NA 
HETATM   22  C   UNL     1      -6.237  17.601  68.252  1.00  0.00    -0.177 C  
HETATM   23  H   UNL     1      -6.266  18.368  70.169  1.00  0.00     0.000 HD 
HETATM   24  C   UNL     1      -6.143  18.094  66.810  1.00  0.00    -0.187 C  
ENDBRANCH  17  18
ENDBRANCH   6  13
ENDBRANCH   3   4
ENDBRANCH   2   3
BRANCH   2  25
HETATM   25  C   UNL     1     -11.881  12.877  69.759  1.00  0.00    -0.380 A  
HETATM   26 CL   UNL     1     -11.629  10.112  69.771  1.00  0.00    -0.266 Cl 
HETATM   27  C   UNL     1     -12.341  14.046  70.417  1.00  0.00    -0.359 A  
HETATM   28 CL   UNL     1     -11.977  15.644  69.851  1.00  0.00    -0.374 Cl 
HETATM   29  F   UNL     1     -13.308  10.415  72.083  1.00  0.00    -0.506 F  
HETATM   30  C   UNL     1     -13.106  13.979  71.590  1.00  0.00    -0.435 A  
HETATM   31  C   UNL     1     -13.437  12.749  72.139  1.00  0.00    -0.591 A  
HETATM   32  C   UNL     1     -12.199  11.638  70.360  1.00  0.00    -0.347 A  
HETATM   33  C   UNL     1     -12.983  11.592  71.524  1.00  0.00    -0.380 A  
ENDBRANCH   2  25
TORSDOF 5
ENDMDL
MODEL        2
REMARK 921   NORMALIZED FREE ENERGY PREDICTED BY IDOCK:   -8.24 KCAL/MOL
REMARK 922        TOTAL FREE ENERGY PREDICTED BY IDOCK:  -11.32 KCAL/MOL
REMARK 923 INTER-LIGAND FREE ENERGY PREDICTED BY IDOCK:  -10.24 KCAL/MOL
REMARK 924 INTRA-LIGAND FREE ENERGY PREDICTED BY IDOCK:   -1.08 KCAL/MOL
REMARK 927      BINDING AFFINITY PREDICTED BY RF-SCORE:    0.00 PKD
ROOT
HETATM    1  C   UNL     1      -9.345  14.371  68.660  1.00  0.00    -0.188 C  
HETATM    2  C   UNL     1     -10.734  13.753  68.493  1.00  0.00    -0.262 C  
ENDROOT
BRANCH   2   3
HETATM    3  O   UNL     1     -11.617  14.496  69.335  1.00  0.00    -0.268 OA 
BRANCH   3   4
HETATM    4  C   UNL     1     -12.306  13.881  70.340  1.00  0.00    -0.363 A  
HETATM    5  C   UNL     1     -13.637  12.366  72.171  1.00  0.00    -0.306 A  
HETATM    6  C   UNL     1     -12.754  11.712  71.320  1.00  0.00    -0.444 A  
HETATM    7  H1  UNL     1     -14.315  16.165  71.853  1.00  0.00     0.000 HD 
HETATM    8  N   UNL     1     -13.886  13.696  72.147  1.00  0.00    -0.524 NA 
HETATM    9  C   UNL     1     -12.079  12.500  70.394  1.00  0.00    -0.380 A  
HETATM   10  C   UNL     1     -13.240  14.429  71.221  1.00  0.00    -0.349 A  
HETATM   11  H2  UNL     1     -13.953  15.975  70.265  1.00  0.00     0.000 HD 
HETATM   12  N   UNL     1     -13.632  15.765  71.209  1.00  0.00    -0.502 NA 
BRANCH   6  13
HETATM   13  C   UNL     1     -12.598  10.275  71.382  1.00  0.00    -0.539 A  
HETATM   14  N   UNL     1     -13.056   8.057  71.618  1.00  0.00    -0.331 NA 
HETATM   15  C   UNL     1     -13.572   9.282  71.609  1.00  0.00    -0.381 A  
HETATM   16  C   UNL     1     -11.421   9.568  71.235  1.00  0.00    -0.377 A  
HETATM   17  N   UNL     1     -11.741   8.247  71.409  1.00  0.00    -0.279 NA 
BRANCH  17  18
HETATM   18  C   UNL     1     -10.821   7.111  71.418  1.00  0.00    -0.231 C  
HETATM   19  C   UNL     1     -11.285   5.971  70.501  1.00  0.00    -0.363 C  
HETATM   20  C   UNL     1     -11.013   6.260  69.024  1.00  0.00    -0.372 C  
HETATM   21  N   UNL     1      -9.611   6.604  68.785  1.00  0.00    -0.132 NA 
HETATM   22  C   UNL     1      -9.181   7.753  69.584  1.00  0.00    -0.153 C  
HETATM   23  H   UNL     1      -9.432   6.757  67.793  1.00  0.00     0.000 HD 
HETATM   24  C   UNL     1      -9.380   7.514  71.079  1.00  0.00    -0.157 C  
ENDBRANCH  17  18
ENDBRANCH   6  13
ENDBRANCH   3   4
ENDBRANCH   2   3
BRANCH   2  25
HETATM   25  C   UNL     1     -11.158  13.770  67.024  1.00  0.00    -0.313 A  
HETATM   26 CL   UNL     1     -10.751  16.507  66.802  1.00  0.00    -0.219 Cl 
HETATM   27  C   UNL     1     -11.478  12.545  66.383  1.00  0.00    -0.365 A  
HETATM   28 CL   UNL     1     -11.387  11.014  67.192  1.00  0.00    -0.298 Cl 
HETATM   29  F   UNL     1     -11.712  15.983  64.144  1.00  0.00    -0.487 F  
HETATM   30  C   UNL     1     -11.869  12.496  65.038  1.00  0.00    -0.445 A  
HETATM   31  C   UNL     1     -11.956  13.663  64.293  1.00  0.00    -0.488 A  
HETATM   32  C   UNL     1     -11.217  14.939  66.232  1.00  0.00    -0.331 A  
HETATM   33  C   UNL     1     -11.630  14.871  64.891  1.00  0.00    -0.395 A  
ENDBRANCH   2  25
TORSDOF 5
ENDMDL
MODEL        3
REMARK 921   NORMALIZED FREE ENERGY PREDICTED BY IDOCK:   -8.19 KCAL/MOL
REMARK 922        TOTAL FREE ENERGY PREDICTED BY IDOCK:  -11.26 KCAL/MOL
REMARK 923 INTER-LIGAND FREE ENERGY PREDICTED BY IDOCK:  -10.25 KCAL/MOL
REMARK 924 INTRA-LIGAND FREE ENERGY PREDICTED BY IDOCK:   -1.01 KCAL/MOL
REMARK 927      BINDING AFFINITY PREDICTED BY RF-SCORE:    0.00 PKD
ROOT
HETATM    1  C   UNL     1      -9.345  14.370  68.659  1.00  0.00    -0.188 C  
HETATM    2  C   UNL     1     -10.733  13.749  68.494  1.00  0.00    -0.262 C  
ENDROOT
BRANCH   2   3
HETATM    3  O   UNL     1     -11.617  14.489  69.338  1.00  0.00    -0.268 OA 
BRANCH   3   4
HETATM    4  C   UNL     1     -12.304  13.870  70.341  1.00  0.00    -0.363 A  
HETATM    5  C   UNL     1     -13.633  12.349  72.170  1.00  0.00    -0.306 A  
HETATM    6  C   UNL     1     -12.750  11.698  71.316  1.00  0.00    -0.444 A  
HETATM    7  H1  UNL     1     -14.313  16.149  71.863  1.00  0.00     0.000 HD 
HETATM    8  N   UNL     1     -13.882  13.679  72.150  1.00  0.00    -0.524 NA 
HETATM    9  C   UNL     1     -12.077  12.489  70.391  1.00  0.00    -0.380 A  
HETATM   10  C   UNL     1     -13.238  14.415  71.225  1.00  0.00    -0.349 A  
HETATM   11  H2  UNL     1     -13.953  15.964  70.274  1.00  0.00     0.000 HD 
HETATM   12  N   UNL     1     -13.630  15.751  71.218  1.00  0.00    -0.502 NA 
BRANCH   6  13
HETATM   13  C   UNL     1     -12.593  10.261  71.373  1.00  0.00    -0.539 A  
HETATM   14  N   UNL     1     -13.049   8.042  71.603  1.00  0.00    -0.331 NA 
HETATM   15  C   UNL     1     -13.566   9.267  71.598  1.00  0.00    -0.381 A  
HETATM   16  C   UNL     1     -11.415   9.556  71.223  1.00  0.00    -0.377 A  
HETATM   17  N   UNL     1     -11.735   8.234  71.393  1.00  0.00    -0.279 NA 
BRANCH  17  18
HETATM   18  C   UNL     1     -10.814   7.098  71.397  1.00  0.00    -0.231 C  
HETATM   19  C   UNL     1      -9.350   7.527  71.228  1.00  0.00    -0.157 C  
HETATM   20  C   UNL     1      -8.755   8.096  72.517  1.00  0.00    -0.203 C  
HETATM   21  N   UNL     1      -8.918   7.177  73.645  1.00  0.00    -0.161 NA 
HETATM   22  C   UNL     1     -10.323   6.834  73.878  1.00  0.00    -0.368 C  
HETATM   23  H   UNL     1      -8.484   7.548  74.490  1.00  0.00     0.000 HD 
HETATM   24  C   UNL     1     -10.970   6.215  72.641  1.00  0.00    -0.291 C  
ENDBRANCH  17  18
ENDBRANCH   6  13
ENDBRANCH   3   4
ENDBRANCH   2   3
BRANCH   2  25
HETATM   25  C   UNL     1     -11.160  13.767  67.024  1.00  0.00    -0.313 A  
HETATM   26 CL   UNL     1     -10.757  16.505  66.806  1.00  0.00    -0.219 Cl 
HETATM   27  C   UNL     1     -11.478  12.543  66.383  1.00  0.00    -0.365 A  
HETATM   28 CL   UNL     1     -11.383  11.011  67.189  1.00  0.00    -0.298 Cl 
HETATM   29  F   UNL     1     -11.720  15.984  64.149  1.00  0.00    -0.487 F  
HETATM   30  C   UNL     1     -11.871  12.495  65.038  1.00  0.00    -0.445 A  
HETATM   31  C   UNL     1     -11.961  13.663  64.295  1.00  0.00    -0.488 A  
HETATM   32  C   UNL     1     -11.222  14.937  66.234  1.00  0.00    -0.331 A  
HETATM   33  C   UNL     1     -11.636  14.871  64.894  1.00  0.00    -0.395 A  
ENDBRANCH   2  25
TORSDOF 5
ENDMDL
MODEL        4
REMARK 921   NORMALIZED FREE ENERGY PREDICTED BY IDOCK:   -8.05 KCAL/MOL
REMARK 922        TOTAL FREE ENERGY PREDICTED BY IDOCK:  -11.07 KCAL/MOL
REMARK 923 INTER-LIGAND FREE ENERGY PREDICTED BY IDOCK:  -10.66 KCAL/MOL
REMARK 924 INTRA-LIGAND FREE ENERGY PREDICTED BY IDOCK:   -0.41 KCAL/MOL
REMARK 927      BINDING AFFINITY PREDICTED BY RF-SCORE:    0.00 PKD
ROOT
HETATM    1  C   UNL     1      -9.641  12.344  68.343  1.00  0.00    -0.180 C  
HETATM    2  C   UNL     1     -11.040  12.955  68.438  1.00  0.00    -0.262 C  
ENDROOT
BRANCH   2   3
HETATM    3  O   UNL     1     -11.703  12.658  67.208  1.00  0.00    -0.346 OA 
BRANCH   3   4
HETATM    4  C   UNL     1     -11.683  13.547  66.173  1.00  0.00    -0.365 A  
HETATM    5  C   UNL     1     -11.552  15.554  64.335  1.00  0.00    -0.258 A  
HETATM    6  C   UNL     1     -10.844  15.723  65.519  1.00  0.00    -0.343 A  
HETATM    7  H1  UNL     1     -13.762  12.432  63.728  1.00  0.00     0.000 HD 
HETATM    8  N   UNL     1     -12.305  14.469  64.037  1.00  0.00    -0.763 NA 
HETATM    9  C   UNL     1     -10.917  14.688  66.445  1.00  0.00    -0.325 A  
HETATM   10  C   UNL     1     -12.381  13.496  64.964  1.00  0.00    -0.428 A  
HETATM   11  H2  UNL     1     -13.941  12.390  65.357  1.00  0.00     0.000 HD 
HETATM   12  N   UNL     1     -13.252  12.469  64.610  1.00  0.00    -0.785 NA 
BRANCH   6  13
HETATM   13  C   UNL     1     -10.114  16.946  65.773  1.00  0.00    -0.251 A  
HETATM   14  N   UNL     1      -9.607  19.152  66.021  1.00  0.00    -0.457 NA 
HETATM   15  C   UNL     1     -10.573  18.278  65.758  1.00  0.00    -0.186 A  
HETATM   16  C   UNL     1      -8.772  17.053  66.083  1.00  0.00    -0.219 A  
HETATM   17  N   UNL     1      -8.511  18.394  66.197  1.00  0.00    -0.482 NA 
BRANCH  17  18
HETATM   18  C   UNL     1      -7.212  19.020  66.446  1.00  0.00    -0.236 C  
HETATM   19  C   UNL     1      -7.289  20.134  67.500  1.00  0.00    -0.325 C  
HETATM   20  C   UNL     1      -7.368  19.585  68.925  1.00  0.00    -0.363 C  
HETATM   21  N   UNL     1      -6.279  18.649  69.210  1.00  0.00    -0.252 NA 
HETATM   22  C   UNL     1      -6.253  17.529  68.268  1.00  0.00    -0.175 C  
HETATM   23  H   UNL     1      -6.318  18.319  70.174  1.00  0.00     0.000 HD 
HETATM   24  C   UNL     1      -6.128  18.004  66.822  1.00  0.00    -0.190 C  
ENDBRANCH  17  18
ENDBRANCH   6  13
ENDBRANCH   3   4
ENDBRANCH   2   3
BRANCH   2  25
HETATM   25  C   UNL     1     -11.783  12.410  69.660  1.00  0.00    -0.377 A  
HETATM   26 CL   UNL     1     -12.380  14.955  70.595  1.00  0.00    -0.374 Cl 
HETATM   27  C   UNL     1     -11.943  11.008  69.802  1.00  0.00    -0.356 A  
HETATM   28 CL   UNL     1     -11.349   9.874  68.632  1.00  0.00    -0.119 Cl 
HETATM   29  F   UNL     1     -13.556  13.414  72.717  1.00  0.00    -0.606 F  
HETATM   30  C   UNL     1     -12.618  10.449  70.897  1.00  0.00    -0.478 A  
HETATM   31  C   UNL     1     -13.149  11.269  71.881  1.00  0.00    -0.510 A  
HETATM   32  C   UNL     1     -12.368  13.223  70.657  1.00  0.00    -0.339 A  
HETATM   33  C   UNL     1     -13.022  12.644  71.756  1.00  0.00    -0.313 A  
ENDBRANCH   2  25
TORSDOF 5
ENDMDL
MODEL        5
REMARK 921   NORMALIZED FREE ENERGY PREDICTED BY IDOCK:   -7.99 KCAL/MOL
REMARK 922        TOTAL FREE ENERGY PREDICTED BY IDOCK:  -11.00 KCAL/MOL
REMARK 923 INTER-LIGAND FREE ENERGY PREDICTED BY IDOCK:  -10.45 KCAL/MOL
REMARK 924 INTRA-LIGAND FREE ENERGY PREDICTED BY IDOCK:   -0.55 KCAL/MOL
REMARK 927      BINDING AFFINITY PREDICTED BY RF-SCORE:    0.00 PKD
ROOT
HETATM    1  C   UNL     1      -9.895  11.975  68.503  1.00  0.00    -0.177 C  
HETATM    2  C   UNL     1     -11.036  12.994  68.534  1.00  0.00    -0.263 C  
ENDROOT
BRANCH   2   3
HETATM    3  O   UNL     1     -11.802  12.788  67.345  1.00  0.00    -0.361 OA 
BRANCH   3   4
HETATM    4  C   UNL     1     -11.748  13.684  66.317  1.00  0.00    -0.367 A  
HETATM    5  C   UNL     1     -11.564  15.704  64.499  1.00  0.00    -0.262 A  
HETATM    6  C   UNL     1     -10.908  15.874  65.713  1.00  0.00    -0.260 A  
HETATM    7  H1  UNL     1     -13.710  12.562  63.781  1.00  0.00     0.000 HD 
HETATM    8  N   UNL     1     -12.291  14.613  64.163  1.00  0.00    -0.747 NA 
HETATM    9  C   UNL     1     -11.008  14.832  66.628  1.00  0.00    -0.326 A  
HETATM   10  C   UNL     1     -12.394  13.633  65.081  1.00  0.00    -0.452 A  
HETATM   11  H2  UNL     1     -13.957  12.507  65.401  1.00  0.00     0.000 HD 
HETATM   12  N   UNL     1     -13.238  12.599  64.684  1.00  0.00    -0.775 NA 
BRANCH   6  13
HETATM   13  C   UNL     1     -10.203  17.103  66.005  1.00  0.00    -0.332 A  
HETATM   14  N   UNL     1      -9.697  19.315  66.192  1.00  0.00    -0.402 NA 
HETATM   15  C   UNL     1     -10.626  18.436  65.830  1.00  0.00    -0.285 A  
HETATM   16  C   UNL     1      -8.928  17.217  66.521  1.00  0.00    -0.272 A  
HETATM   17  N   UNL     1      -8.660  18.559  66.592  1.00  0.00    -0.279 NA 
BRANCH  17  18
HETATM   18  C   UNL     1      -7.407  19.187  67.009  1.00  0.00    -0.213 C  
HETATM   19  C   UNL     1      -6.333  18.159  67.393  1.00  0.00    -0.184 C  
HETATM   20  C   UNL     1      -5.677  17.515  66.171  1.00  0.00    -0.183 C  
HETATM   21  N   UNL     1      -5.154  18.517  65.241  1.00  0.00    -0.155 NA 
HETATM   22  C   UNL     1      -6.191  19.447  64.791  1.00  0.00    -0.254 C  
HETATM   23  H   UNL     1      -4.684  18.076  64.450  1.00  0.00     0.000 HD 
HETATM   24  C   UNL     1      -6.859  20.165  65.962  1.00  0.00    -0.279 C  
ENDBRANCH  17  18
ENDBRANCH   6  13
ENDBRANCH   3   4
ENDBRANCH   2   3
BRANCH   2  25
HETATM   25  C   UNL     1     -11.864  12.835  69.810  1.00  0.00    -0.380 A  
HETATM   26 CL   UNL     1     -11.566  10.076  69.819  1.00  0.00    -0.230 Cl 
HETATM   27  C   UNL     1     -12.342  13.996  70.471  1.00  0.00    -0.367 A  
HETATM   28 CL   UNL     1     -12.007  15.601  69.906  1.00  0.00    -0.374 Cl 
HETATM   29  F   UNL     1     -13.244  10.348  72.136  1.00  0.00    -0.507 F  
HETATM   30  C   UNL     1     -13.102  13.916  71.646  1.00  0.00    -0.446 A  
HETATM   31  C   UNL     1     -13.411  12.680  72.194  1.00  0.00    -0.561 A  
HETATM   32  C   UNL     1     -12.160  11.591  70.411  1.00  0.00    -0.382 A  
HETATM   33  C   UNL     1     -12.940  11.530  71.577  1.00  0.00    -0.380 A  
ENDBRANCH   2  25
TORSDOF 5
ENDMDL
MODEL        6
REMARK 921   NORMALIZED FREE ENERGY PREDICTED BY IDOCK:   -7.71 KCAL/MOL
REMARK 922        TOTAL FREE ENERGY PREDICTED BY IDOCK:  -10.64 KCAL/MOL
REMARK 923 INTER-LIGAND FREE ENERGY PREDICTED BY IDOCK:   -9.47 KCAL/MOL
REMARK 924 INTRA-LIGAND FREE ENERGY PREDICTED BY IDOCK:   -1.17 KCAL/MOL
REMARK 927      BINDING AFFINITY PREDICTED BY RF-SCORE:    0.00 PKD
ROOT
HETATM    1  C   UNL     1     -12.544  12.618  64.870  1.00  0.00    -0.525 C  
HETATM    2  C   UNL     1     -11.538  12.260  65.964  1.00  0.00    -0.393 C  
ENDROOT
BRANCH   2   3
HETATM    3  O   UNL     1     -10.328  11.884  65.303  1.00  0.00    -0.255 OA 
BRANCH   3   4
HETATM    4  C   UNL     1      -9.863  10.604  65.376  1.00  0.00    -0.267 A  
HETATM    5  C   UNL     1      -9.015   8.058  65.850  1.00  0.00    -0.137 A  
HETATM    6  C   UNL     1      -9.925   8.607  66.746  1.00  0.00    -0.343 A  
HETATM    7  H1  UNL     1      -7.604  10.114  62.886  1.00  0.00     0.000 HD 
HETATM    8  N   UNL     1      -8.517   8.702  64.768  1.00  0.00    -0.170 NA 
HETATM    9  C   UNL     1     -10.351   9.905  66.487  1.00  0.00    -0.259 A  
HETATM   10  C   UNL     1      -8.926   9.968  64.560  1.00  0.00    -0.226 A  
HETATM   11  H2  UNL     1      -7.849  11.428  63.837  1.00  0.00     0.000 HD 
HETATM   12  N   UNL     1      -8.289  10.578  63.483  1.00  0.00    -0.147 NA 
BRANCH   6  13
HETATM   13  C   UNL     1     -10.355   7.861  67.909  1.00  0.00    -0.281 A  
HETATM   14  N   UNL     1     -11.229   6.224  69.228  1.00  0.00    -0.400 NA 
HETATM   15  C   UNL     1     -10.946   6.584  67.980  1.00  0.00    -0.282 A  
HETATM   16  C   UNL     1     -10.276   8.273  69.225  1.00  0.00    -0.204 A  
HETATM   17  N   UNL     1     -10.834   7.270  69.974  1.00  0.00    -0.249 NA 
BRANCH  17  18
HETATM   18  C   UNL     1     -11.048   7.266  71.421  1.00  0.00    -0.243 C  
HETATM   19  C   UNL     1     -11.017   8.678  72.023  1.00  0.00    -0.432 C  
HETATM   20  C   UNL     1     -12.313   9.450  71.770  1.00  0.00    -0.394 C  
HETATM   21  N   UNL     1     -13.490   8.702  72.215  1.00  0.00    -0.502 NA 
HETATM   22  C   UNL     1     -13.583   7.389  71.574  1.00  0.00    -0.370 C  
HETATM   23  H   UNL     1     -14.344   9.241  72.077  1.00  0.00     0.000 HD 
HETATM   24  C   UNL     1     -12.337   6.542  71.826  1.00  0.00    -0.340 C  
ENDBRANCH  17  18
ENDBRANCH   6  13
ENDBRANCH   3   4
ENDBRANCH   2   3
BRANCH   2  25
HETATM   25  C   UNL     1     -11.349  13.434  66.927  1.00  0.00    -0.351 A  
HETATM   26 CL   UNL     1     -10.868  15.222  64.859  1.00  0.00    -0.449 Cl 
HETATM   27  C   UNL     1     -11.544  13.226  68.317  1.00  0.00    -0.334 A  
HETATM   28 CL   UNL     1     -12.013  11.692  68.977  1.00  0.00    -0.383 Cl 
HETATM   29  F   UNL     1     -10.527  17.012  67.083  1.00  0.00    -0.304 F  
HETATM   30  C   UNL     1     -11.390  14.263  69.247  1.00  0.00    -0.322 A  
HETATM   31  C   UNL     1     -11.036  15.535  68.822  1.00  0.00    -0.270 A  
HETATM   32  C   UNL     1     -11.027  14.748  66.518  1.00  0.00    -0.325 A  
HETATM   33  C   UNL     1     -10.858  15.769  67.467  1.00  0.00    -0.315 A  
ENDBRANCH   2  25
TORSDOF 5
ENDMDL
MODEL        7
REMARK 921   NORMALIZED FREE ENERGY PREDICTED BY IDOCK:   -7.63 KCAL/MOL
REMARK 922        TOTAL FREE ENERGY PREDICTED BY IDOCK:  -10.54 KCAL/MOL
REMARK 923 INTER-LIGAND FREE ENERGY PREDICTED BY IDOCK:   -9.47 KCAL/MOL
REMARK 924 INTRA-LIGAND FREE ENERGY PREDICTED BY IDOCK:   -1.07 KCAL/MOL
REMARK 927      BINDING AFFINITY PREDICTED BY RF-SCORE:    0.00 PKD
ROOT
HETATM    1  C   UNL     1     -10.149  15.345  67.866  1.00  0.00    -0.226 C  
HETATM    2  C   UNL     1     -10.647  13.955  68.263  1.00  0.00    -0.257 C  
ENDROOT
BRANCH   2   3
HETATM    3  O   UNL     1     -11.995  14.115  68.711  1.00  0.00    -0.334 OA 
BRANCH   3   4
HETATM    4  C   UNL     1     -12.392  13.615  69.917  1.00  0.00    -0.249 A  
HETATM    5  C   UNL     1     -13.199  12.316  72.172  1.00  0.00    -0.361 A  
HETATM    6  C   UNL     1     -12.603  11.555  71.173  1.00  0.00    -0.463 A  
HETATM    7  H1  UNL     1     -13.847  16.106  71.712  1.00  0.00     0.000 HD 
HETATM    8  N   UNL     1     -13.413  13.650  72.098  1.00  0.00    -0.467 NA 
HETATM    9  C   UNL     1     -12.192  12.233  70.031  1.00  0.00    -0.267 A  
HETATM   10  C   UNL     1     -13.032  14.275  70.968  1.00  0.00    -0.342 A  
HETATM   11  H2  UNL     1     -13.944  15.773  70.109  1.00  0.00     0.000 HD 
HETATM   12  N   UNL     1     -13.379  15.623  70.945  1.00  0.00    -0.545 NA 
BRANCH   6  13
HETATM   13  C   UNL     1     -12.470  10.121  71.319  1.00  0.00    -0.510 A  
HETATM   14  N   UNL     1     -12.947   7.937  71.751  1.00  0.00    -0.325 NA 
HETATM   15  C   UNL     1     -13.436   9.172  71.708  1.00  0.00    -0.416 A  
HETATM   16  C   UNL     1     -11.328   9.375  71.106  1.00  0.00    -0.351 A  
HETATM   17  N   UNL     1     -11.656   8.078  71.401  1.00  0.00    -0.260 NA 
BRANCH  17  18
HETATM   18  C   UNL     1     -10.762   6.920  71.398  1.00  0.00    -0.221 C  
HETATM   19  C   UNL     1      -9.282   7.319  71.477  1.00  0.00    -0.150 C  
HETATM   20  C   UNL     1      -8.860   7.720  72.891  1.00  0.00    -0.178 C  
HETATM   21  N   UNL     1      -9.191   6.687  73.873  1.00  0.00    -0.155 NA 
HETATM   22  C   UNL     1     -10.619   6.364  73.874  1.00  0.00    -0.221 C  
HETATM   23  H   UNL     1      -8.870   6.947  74.805  1.00  0.00     0.000 HD 
HETATM   24  C   UNL     1     -11.101   5.908  72.499  1.00  0.00    -0.328 C  
ENDBRANCH  17  18
ENDBRANCH   6  13
ENDBRANCH   3   4
ENDBRANCH   2   3
BRANCH   2  25
HETATM   25  C   UNL     1     -10.523  12.983  67.088  1.00  0.00    -0.243 A  
HETATM   26 CL   UNL     1     -12.759  14.028  65.817  1.00  0.00    -0.534 Cl 
HETATM   27  C   UNL     1      -9.423  12.089  67.045  1.00  0.00    -0.198 A  
HETATM   28 CL   UNL     1      -8.188  12.064  68.263  1.00  0.00    -0.156 Cl 
HETATM   29  F   UNL     1     -12.117  11.944  63.944  1.00  0.00    -0.471 F  
HETATM   30  C   UNL     1      -9.252  11.178  65.993  1.00  0.00    -0.223 A  
HETATM   31  C   UNL     1     -10.173  11.129  64.956  1.00  0.00    -0.354 A  
HETATM   32  C   UNL     1     -11.425  12.938  66.000  1.00  0.00    -0.340 A  
HETATM   33  C   UNL     1     -11.248  12.006  64.966  1.00  0.00    -0.320 A  
ENDBRANCH   2  25
TORSDOF 5
ENDMDL
MODEL        8
REMARK 921   NORMALIZED FREE ENERGY PREDICTED BY IDOCK:   -7.61 KCAL/MOL
REMARK 922        TOTAL FREE ENERGY PREDICTED BY IDOCK:  -10.50 KCAL/MOL
REMARK 923 INTER-LIGAND FREE ENERGY PREDICTED BY IDOCK:   -9.73 KCAL/MOL
REMARK 924 INTRA-LIGAND FREE ENERGY PREDICTED BY IDOCK:   -0.77 KCAL/MOL
REMARK 927      BINDING AFFINITY PREDICTED BY RF-SCORE:    0.00 PKD
ROOT
HETATM    1  C   UNL     1      -9.245  14.523  68.775  1.00  0.00    -0.162 C  
HETATM    2  C   UNL     1     -10.485  13.689  68.448  1.00  0.00    -0.246 C  
ENDROOT
BRANCH   2   3
HETATM    3  O   UNL     1     -11.600  14.363  69.035  1.00  0.00    -0.261 OA 
BRANCH   3   4
HETATM    4  C   UNL     1     -12.246  13.833  70.114  1.00  0.00    -0.356 A  
HETATM    5  C   UNL     1     -13.515  12.476  72.107  1.00  0.00    -0.422 A  
HETATM    6  C   UNL     1     -12.708  11.742  71.246  1.00  0.00    -0.420 A  
HETATM    7  H1  UNL     1     -14.081  16.274  71.602  1.00  0.00     0.000 HD 
HETATM    8  N   UNL     1     -13.719  13.812  72.018  1.00  0.00    -0.449 NA 
HETATM    9  C   UNL     1     -12.064  12.450  70.237  1.00  0.00    -0.377 A  
HETATM   10  C   UNL     1     -13.107  14.465  71.013  1.00  0.00    -0.353 A  
HETATM   11  H2  UNL     1     -13.823  15.979  70.010  1.00  0.00     0.000 HD 
HETATM   12  N   UNL     1     -13.452  15.812  70.945  1.00  0.00    -0.446 NA 
BRANCH   6  13
HETATM   13  C   UNL     1     -12.597  10.306  71.385  1.00  0.00    -0.539 A  
HETATM   14  N   UNL     1     -13.115   8.124  71.778  1.00  0.00    -0.339 NA 
HETATM   15  C   UNL     1     -13.589   9.365  71.725  1.00  0.00    -0.388 A  
HETATM   16  C   UNL     1     -11.455   9.549  71.213  1.00  0.00    -0.377 A  
HETATM   17  N   UNL     1     -11.810   8.253  71.484  1.00  0.00    -0.282 NA 
BRANCH  17  18
HETATM   18  C   UNL     1     -10.929   7.085  71.508  1.00  0.00    -0.234 C  
HETATM   19  C   UNL     1     -11.347   6.013  70.492  1.00  0.00    -0.310 C  
HETATM   20  C   UNL     1     -10.937   6.371  69.063  1.00  0.00    -0.348 C  
HETATM   21  N   UNL     1      -9.509   6.676  68.965  1.00  0.00    -0.133 NA 
HETATM   22  C   UNL     1      -9.115   7.765  69.861  1.00  0.00    -0.147 C  
HETATM   23  H   UNL     1      -9.239   6.876  68.002  1.00  0.00     0.000 HD 
HETATM   24  C   UNL     1      -9.453   7.454  71.318  1.00  0.00    -0.159 C  
ENDBRANCH  17  18
ENDBRANCH   6  13
ENDBRANCH   3   4
ENDBRANCH   2   3
BRANCH   2  25
HETATM   25  C   UNL     1     -10.629  13.507  66.936  1.00  0.00    -0.270 A  
HETATM   26 CL   UNL     1     -10.874  10.751  67.158  1.00  0.00    -0.331 Cl 
HETATM   27  C   UNL     1     -10.662  14.655  66.103  1.00  0.00    -0.314 A  
HETATM   28 CL   UNL     1     -10.570  16.270  66.730  1.00  0.00    -0.290 Cl 
HETATM   29  F   UNL     1     -10.998  10.980  64.295  1.00  0.00    -0.427 F  
HETATM   30  C   UNL     1     -10.797  14.554  64.711  1.00  0.00    -0.410 A  
HETATM   31  C   UNL     1     -10.898  13.308  64.109  1.00  0.00    -0.369 A  
HETATM   32  C   UNL     1     -10.773  12.253  66.301  1.00  0.00    -0.259 A  
HETATM   33  C   UNL     1     -10.886  12.171  64.903  1.00  0.00    -0.308 A  
ENDBRANCH   2  25
TORSDOF 5
ENDMDL
MODEL        9
REMARK 921   NORMALIZED FREE ENERGY PREDICTED BY IDOCK:   -7.60 KCAL/MOL
REMARK 922        TOTAL FREE ENERGY PREDICTED BY IDOCK:  -10.50 KCAL/MOL
REMARK 923 INTER-LIGAND FREE ENERGY PREDICTED BY IDOCK:   -9.76 KCAL/MOL
REMARK 924 INTRA-LIGAND FREE ENERGY PREDICTED BY IDOCK:   -0.73 KCAL/MOL
REMARK 927      BINDING AFFINITY PREDICTED BY RF-SCORE:    0.00 PKD
ROOT
HETATM    1  C   UNL     1     -11.784  10.484  68.435  1.00  0.00    -0.088 C  
HETATM    2  C   UNL     1     -11.262  11.098  69.734  1.00  0.00    -0.245 C  
ENDROOT
BRANCH   2   3
HETATM    3  O   UNL     1     -12.366  11.768  70.345  1.00  0.00    -0.321 OA 
BRANCH   3   4
HETATM    4  C   UNL     1     -12.350  13.121  70.523  1.00  0.00    -0.304 A  
HETATM    5  C   UNL     1     -12.018  15.817  70.723  1.00  0.00    -0.407 A  
HETATM    6  C   UNL     1     -11.288  15.153  69.744  1.00  0.00    -0.307 A  
HETATM    7  H1  UNL     1     -14.310  13.900  73.187  1.00  0.00     0.000 HD 
HETATM    8  N   UNL     1     -12.872  15.217  71.585  1.00  0.00    -0.361 NA 
HETATM    9  C   UNL     1     -11.473  13.778  69.652  1.00  0.00    -0.300 A  
HETATM   10  C   UNL     1     -13.008  13.881  71.492  1.00  0.00    -0.358 A  
HETATM   11  H2  UNL     1     -13.284  12.639  72.973  1.00  0.00     0.000 HD 
HETATM   12  N   UNL     1     -13.830  13.344  72.479  1.00  0.00    -0.738 NA 
BRANCH   6  13
HETATM   13  C   UNL     1     -10.353  15.873  68.906  1.00  0.00    -0.228 A  
HETATM   14  N   UNL     1      -8.423  16.750  68.077  1.00  0.00    -0.201 NA 
HETATM   15  C   UNL     1      -8.954  15.984  69.024  1.00  0.00    -0.244 A  
HETATM   16  C   UNL     1     -10.661  16.627  67.791  1.00  0.00    -0.342 A  
HETATM   17  N   UNL     1      -9.476  17.152  67.345  1.00  0.00    -0.244 NA 
BRANCH  17  18
HETATM   18  C   UNL     1      -9.288  18.080  66.229  1.00  0.00    -0.206 C  
HETATM   19  C   UNL     1     -10.493  19.010  66.028  1.00  0.00    -0.530 C  
HETATM   20  C   UNL     1     -10.529  20.147  67.050  1.00  0.00    -0.300 C  
HETATM   21  N   UNL     1      -9.272  20.895  67.079  1.00  0.00    -0.650 NA 
HETATM   22  C   UNL     1      -8.123  20.033  67.365  1.00  0.00    -0.323 C  
HETATM   23  H   UNL     1      -9.320  21.675  67.734  1.00  0.00     0.000 HD 
HETATM   24  C   UNL     1      -7.997  18.898  66.351  1.00  0.00    -0.300 C  
ENDBRANCH  17  18
ENDBRANCH   6  13
ENDBRANCH   3   4
ENDBRANCH   2   3
BRANCH   2  25
HETATM   25  C   UNL     1     -10.649  10.020  70.631  1.00  0.00    -0.272 A  
HETATM   26 CL   UNL     1     -13.063   9.530  71.912  1.00  0.00    -0.473 Cl 
HETATM   27  C   UNL     1      -9.290   9.661  70.449  1.00  0.00    -0.211 A  
HETATM   28 CL   UNL     1      -8.287  10.378  69.228  1.00  0.00    -0.160 Cl 
HETATM   29  F   UNL     1     -11.403   7.695  73.374  1.00  0.00    -0.413 F  
HETATM   30  C   UNL     1      -8.674   8.678  71.236  1.00  0.00    -0.246 A  
HETATM   31  C   UNL     1      -9.392   8.028  72.229  1.00  0.00    -0.259 A  
HETATM   32  C   UNL     1     -11.369   9.316  71.623  1.00  0.00    -0.397 A  
HETATM   33  C   UNL     1     -10.729   8.348  72.414  1.00  0.00    -0.335 A  
ENDBRANCH   2  25
TORSDOF 5
ENDMDL
MODEL       10
REMARK 921   NORMALIZED FREE ENERGY PREDICTED BY IDOCK:   -7.59 KCAL/MOL
REMARK 922        TOTAL FREE ENERGY PREDICTED BY IDOCK:  -10.48 KCAL/MOL
REMARK 923 INTER-LIGAND FREE ENERGY PREDICTED BY IDOCK:   -9.50 KCAL/MOL
REMARK 924 INTRA-LIGAND FREE ENERGY PREDICTED BY IDOCK:   -0.98 KCAL/MOL
REMARK 927      BINDING AFFINITY PREDICTED BY RF-SCORE:    0.00 PKD
ROOT
HETATM    1  C   UNL     1     -12.627  12.709  64.822  1.00  0.00    -0.530 C  
HETATM    2  C   UNL     1     -11.699  12.248  65.947  1.00  0.00    -0.389 C  
ENDROOT
BRANCH   2   3
HETATM    3  O   UNL     1     -10.444  11.932  65.341  1.00  0.00    -0.250 OA 
BRANCH   3   4
HETATM    4  C   UNL     1      -9.948  10.662  65.385  1.00  0.00    -0.281 A  
HETATM    5  C   UNL     1      -9.030   8.131  65.805  1.00  0.00    -0.119 A  
HETATM    6  C   UNL     1      -9.929   8.648  66.731  1.00  0.00    -0.343 A  
HETATM    7  H1  UNL     1      -7.743  10.255  62.833  1.00  0.00     0.000 HD 
HETATM    8  N   UNL     1      -8.575   8.799  64.719  1.00  0.00    -0.164 NA 
HETATM    9  C   UNL     1     -10.392   9.938  66.500  1.00  0.00    -0.259 A  
HETATM   10  C   UNL     1      -9.018  10.058  64.537  1.00  0.00    -0.226 A  
HETATM   11  H2  UNL     1      -7.994  11.550  63.806  1.00  0.00     0.000 HD 
HETATM   12  N   UNL     1      -8.423  10.696  63.453  1.00  0.00    -0.141 NA 
BRANCH   6  13
HETATM   13  C   UNL     1     -10.312   7.878  67.895  1.00  0.00    -0.281 A  
HETATM   14  N   UNL     1     -11.144   6.219  69.214  1.00  0.00    -0.368 NA 
HETATM   15  C   UNL     1     -10.917   6.607  67.963  1.00  0.00    -0.249 A  
HETATM   16  C   UNL     1     -10.163   8.255  69.215  1.00  0.00    -0.204 A  
HETATM   17  N   UNL     1     -10.698   7.241  69.966  1.00  0.00    -0.240 NA 
BRANCH  17  18
HETATM   18  C   UNL     1     -10.841   7.203  71.421  1.00  0.00    -0.231 C  
HETATM   19  C   UNL     1     -10.844   8.604  72.048  1.00  0.00    -0.430 C  
HETATM   20  C   UNL     1     -12.183   9.321  71.872  1.00  0.00    -0.378 C  
HETATM   21  N   UNL     1     -13.302   8.512  72.358  1.00  0.00    -0.574 NA 
HETATM   22  C   UNL     1     -13.368   7.208  71.697  1.00  0.00    -0.331 C  
HETATM   23  H   UNL     1     -14.186   9.015  72.272  1.00  0.00     0.000 HD 
HETATM   24  C   UNL     1     -12.075   6.414  71.874  1.00  0.00    -0.362 C  
ENDBRANCH  17  18
ENDBRANCH   6  13
ENDBRANCH   3   4
ENDBRANCH   2   3
BRANCH   2  25
HETATM   25  C   UNL     1     -11.584  13.326  67.026  1.00  0.00    -0.404 A  
HETATM   26 CL   UNL     1     -12.133  11.527  69.067  1.00  0.00    -0.358 Cl 
HETATM   27  C   UNL     1     -11.211  14.642  66.650  1.00  0.00    -0.349 A  
HETATM   28 CL   UNL     1     -10.854  15.082  65.011  1.00  0.00    -0.412 Cl 
HETATM   29  F   UNL     1     -11.895  13.922  70.638  1.00  0.00    -0.358 F  
HETATM   30  C   UNL     1     -11.084  15.671  67.594  1.00  0.00    -0.305 A  
HETATM   31  C   UNL     1     -11.328  15.421  68.936  1.00  0.00    -0.322 A  
HETATM   32  C   UNL     1     -11.789  13.089  68.404  1.00  0.00    -0.334 A  
HETATM   33  C   UNL     1     -11.676  14.138  69.331  1.00  0.00    -0.313 A  
ENDBRANCH   2  25
TORSDOF 5
ENDMDL
MODEL       11
REMARK 921   NORMALIZED FREE ENERGY PREDICTED BY IDOCK:   -7.57 KCAL/MOL
REMARK 922        TOTAL FREE ENERGY PREDICTED BY IDOCK:  -10.46 KCAL/MOL
REMARK 923 INTER-LIGAND FREE ENERGY PREDICTED BY IDOCK:   -9.26 KCAL/MOL
REMARK 924 INTRA-LIGAND FREE ENERGY PREDICTED BY IDOCK:   -1.20 KCAL/MOL
REMARK 927      BINDING AFFINITY PREDICTED BY RF-SCORE:    0.00 PKD
ROOT
HETATM    1  C   UNL     1     -13.012  13.891  65.444  1.00  0.00    -0.368 C  
HETATM    2  C   UNL     1     -11.806  13.502  66.299  1.00  0.00    -0.392 C  
ENDROOT
BRANCH   2   3
HETATM    3  O   UNL     1     -10.813  12.998  65.403  1.00  0.00    -0.277 OA 
BRANCH   3   4
HETATM    4  C   UNL     1     -10.443  11.685  65.439  1.00  0.00    -0.275 A  
HETATM    5  C   UNL     1      -9.687   9.100  65.848  1.00  0.00    -0.266 A  
HETATM    6  C   UNL     1     -10.263   9.775  66.918  1.00  0.00    -0.310 A  
HETATM    7  H1  UNL     1      -9.024  10.863  62.464  1.00  0.00     0.000 HD 
HETATM    8  N   UNL     1      -9.470   9.639  64.625  1.00  0.00    -0.226 NA 
HETATM    9  C   UNL     1     -10.647  11.092  66.692  1.00  0.00    -0.315 A  
HETATM   10  C   UNL     1      -9.825  10.925  64.445  1.00  0.00    -0.309 A  
HETATM   11  H2  UNL     1      -8.892  12.240  63.344  1.00  0.00     0.000 HD 
HETATM   12  N   UNL     1      -9.476  11.418  63.191  1.00  0.00    -0.346 NA 
BRANCH   6  13
HETATM   13  C   UNL     1     -10.400   9.132  68.207  1.00  0.00    -0.256 A  
HETATM   14  N   UNL     1     -10.400   7.556  69.850  1.00  0.00    -0.217 NA 
HETATM   15  C   UNL     1     -10.138   7.796  68.569  1.00  0.00    -0.199 A  
HETATM   16  C   UNL     1     -10.840   9.721  69.376  1.00  0.00    -0.232 A  
HETATM   17  N   UNL     1     -10.847   8.732  70.325  1.00  0.00    -0.230 NA 
BRANCH  17  18
HETATM   18  C   UNL     1     -11.303   8.843  71.710  1.00  0.00    -0.361 C  
HETATM   19  C   UNL     1     -12.513   9.775  71.858  1.00  0.00    -0.451 C  
HETATM   20  C   UNL     1     -13.818   9.112  71.415  1.00  0.00    -0.227 C  
HETATM   21  N   UNL     1     -14.039   7.833  72.093  1.00  0.00    -0.575 NA 
HETATM   22  C   UNL     1     -12.932   6.899  71.880  1.00  0.00    -0.217 C  
HETATM   23  H   UNL     1     -14.929   7.419  71.820  1.00  0.00     0.000 HD 
HETATM   24  C   UNL     1     -11.598   7.479  72.346  1.00  0.00    -0.356 C  
ENDBRANCH  17  18
ENDBRANCH   6  13
ENDBRANCH   3   4
ENDBRANCH   2   3
BRANCH   2  25
HETATM   25  C   UNL     1     -11.316  14.699  67.117  1.00  0.00    -0.365 A  
HETATM   26 CL   UNL     1     -10.788  16.202  64.844  1.00  0.00    -0.429 Cl 
HETATM   27  C   UNL     1     -11.380  14.640  68.533  1.00  0.00    -0.284 A  
HETATM   28 CL   UNL     1     -12.016  13.271  69.386  1.00  0.00    -0.365 Cl 
HETATM   29  F   UNL     1      -9.902  18.078  66.833  1.00  0.00    -0.282 F  
HETATM   30  C   UNL     1     -10.951  15.706  69.336  1.00  0.00    -0.283 A  
HETATM   31  C   UNL     1     -10.443  16.858  68.753  1.00  0.00    -0.343 A  
HETATM   32  C   UNL     1     -10.831  15.898  66.549  1.00  0.00    -0.198 A  
HETATM   33  C   UNL     1     -10.387  16.947  67.370  1.00  0.00    -0.309 A  
ENDBRANCH   2  25
TORSDOF 5
ENDMDL
MODEL       12
REMARK 921   NORMALIZED FREE ENERGY PREDICTED BY IDOCK:   -7.55 KCAL/MOL
REMARK 922        TOTAL FREE ENERGY PREDICTED BY IDOCK:  -10.43 KCAL/MOL
REMARK 923 INTER-LIGAND FREE ENERGY PREDICTED BY IDOCK:   -9.63 KCAL/MOL
REMARK 924 INTRA-LIGAND FREE ENERGY PREDICTED BY IDOCK:   -0.80 KCAL/MOL
REMARK 927      BINDING AFFINITY PREDICTED BY RF-SCORE:    0.00 PKD
ROOT
HETATM    1  C   UNL     1     -10.762  16.941  68.638  1.00  0.00    -0.345 C  
HETATM    2  C   UNL     1     -10.097  16.205  67.474  1.00  0.00    -0.256 C  
ENDROOT
BRANCH   2   3
HETATM    3  O   UNL     1     -11.112  15.990  66.491  1.00  0.00    -0.156 OA 
BRANCH   3   4
HETATM    4  C   UNL     1     -11.571  14.732  66.226  1.00  0.00    -0.298 A  
HETATM    5  C   UNL     1     -12.262  12.114  65.926  1.00  0.00     0.136 A  
HETATM    6  C   UNL     1     -11.619  12.475  67.104  1.00  0.00    -0.437 A  
HETATM    7  H1  UNL     1     -12.904  14.685  63.102  1.00  0.00     0.000 HD 
HETATM    8  N   UNL     1     -12.560  12.969  64.919  1.00  0.00    -0.633 NA 
HETATM    9  C   UNL     1     -11.277  13.816  67.244  1.00  0.00    -0.329 A  
HETATM   10  C   UNL     1     -12.191  14.254  65.070  1.00  0.00    -0.433 A  
HETATM   11  H2  UNL     1     -11.567  15.453  63.661  1.00  0.00     0.000 HD 
HETATM   12  N   UNL     1     -12.452  15.034  63.947  1.00  0.00    -0.744 NA 
BRANCH   6  13
HETATM   13  C   UNL     1     -11.289  11.478  68.099  1.00  0.00    -0.367 A  
HETATM   14  N   UNL     1     -10.428   9.624  69.102  1.00  0.00    -0.207 NA 
HETATM   15  C   UNL     1     -10.494  10.322  67.973  1.00  0.00    -0.196 A  
HETATM   16  C   UNL     1     -11.711  11.458  69.414  1.00  0.00    -0.338 A  
HETATM   17  N   UNL     1     -11.190  10.317  69.966  1.00  0.00    -0.289 NA 
BRANCH  17  18
HETATM   18  C   UNL     1     -11.414   9.812  71.321  1.00  0.00    -0.385 C  
HETATM   19  C   UNL     1     -12.848  10.057  71.811  1.00  0.00    -0.546 C  
HETATM   20  C   UNL     1     -13.847   9.067  71.210  1.00  0.00    -0.162 C  
HETATM   21  N   UNL     1     -13.436   7.679  71.424  1.00  0.00    -0.522 NA 
HETATM   22  C   UNL     1     -12.106   7.407  70.875  1.00  0.00    -0.257 C  
HETATM   23  H   UNL     1     -14.128   7.028  71.054  1.00  0.00     0.000 HD 
HETATM   24  C   UNL     1     -11.045   8.331  71.469  1.00  0.00    -0.315 C  
ENDBRANCH  17  18
ENDBRANCH   6  13
ENDBRANCH   3   4
ENDBRANCH   2   3
BRANCH   2  25
HETATM   25  C   UNL     1      -8.910  17.007  66.937  1.00  0.00    -0.251 A  
HETATM   26 CL   UNL     1     -10.471  19.255  66.473  1.00  0.00    -0.521 Cl 
HETATM   27  C   UNL     1      -7.619  16.421  66.949  1.00  0.00    -0.240 A  
HETATM   28 CL   UNL     1      -7.318  14.830  67.572  1.00  0.00    -0.211 Cl 
HETATM   29  F   UNL     1      -7.959  20.247  65.488  1.00  0.00    -0.292 F  
HETATM   30  C   UNL     1      -6.492  17.107  66.476  1.00  0.00    -0.268 A  
HETATM   31  C   UNL     1      -6.618  18.394  65.974  1.00  0.00    -0.287 A  
HETATM   32  C   UNL     1      -9.005  18.333  66.457  1.00  0.00    -0.274 A  
HETATM   33  C   UNL     1      -7.868  18.997  65.968  1.00  0.00    -0.204 A  
ENDBRANCH   2  25
TORSDOF 5
ENDMDL
MODEL       13
REMARK 921   NORMALIZED FREE ENERGY PREDICTED BY IDOCK:   -7.53 KCAL/MOL
REMARK 922        TOTAL FREE ENERGY PREDICTED BY IDOCK:  -10.41 KCAL/MOL
REMARK 923 INTER-LIGAND FREE ENERGY PREDICTED BY IDOCK:  -10.63 KCAL/MOL
REMARK 924 INTRA-LIGAND FREE ENERGY PREDICTED BY IDOCK:    0.23 KCAL/MOL
REMARK 927      BINDING AFFINITY PREDICTED BY RF-SCORE:    0.00 PKD
ROOT
HETATM    1  C   UNL     1      -9.718  10.213  67.363  1.00  0.00    -0.192 C  
HETATM    2  C   UNL     1     -10.654  11.316  67.861  1.00  0.00    -0.194 C  
ENDROOT
BRANCH   2   3
HETATM    3  O   UNL     1     -11.608  11.544  66.823  1.00  0.00    -0.492 OA 
BRANCH   3   4
HETATM    4  C   UNL     1     -11.553  12.676  66.062  1.00  0.00    -0.393 A  
HETATM    5  C   UNL     1     -11.328  15.091  64.822  1.00  0.00    -0.406 A  
HETATM    6  C   UNL     1     -10.570  14.888  65.969  1.00  0.00    -0.321 A  
HETATM    7  H1  UNL     1     -13.792  12.401  63.522  1.00  0.00     0.000 HD 
HETATM    8  N   UNL     1     -12.172  14.179  64.285  1.00  0.00    -0.601 NA 
HETATM    9  C   UNL     1     -10.693  13.649  66.588  1.00  0.00    -0.280 A  
HETATM   10  C   UNL     1     -12.292  12.999  64.923  1.00  0.00    -0.459 A  
HETATM   11  H2  UNL     1     -13.920  11.933  65.088  1.00  0.00     0.000 HD 
HETATM   12  N   UNL     1     -13.251  12.165  64.354  1.00  0.00    -0.681 NA 
BRANCH   6  13
HETATM   13  C   UNL     1      -9.739  15.947  66.501  1.00  0.00    -0.286 A  
HETATM   14  N   UNL     1      -7.943  17.276  66.935  1.00  0.00    -0.209 NA 
HETATM   15  C   UNL     1      -8.382  16.227  66.247  1.00  0.00    -0.308 A  
HETATM   16  C   UNL     1     -10.125  16.921  67.400  1.00  0.00    -0.279 A  
HETATM   17  N   UNL     1      -9.009  17.677  67.648  1.00  0.00    -0.238 NA 
BRANCH  17  18
HETATM   18  C   UNL     1      -8.890  18.790  68.590  1.00  0.00    -0.325 C  
HETATM   19  C   UNL     1      -7.522  19.482  68.513  1.00  0.00    -0.368 C  
HETATM   20  C   UNL     1      -7.405  20.411  67.304  1.00  0.00    -0.310 C  
HETATM   21  N   UNL     1      -8.500  21.380  67.252  1.00  0.00    -0.375 NA 
HETATM   22  C   UNL     1      -9.812  20.729  67.228  1.00  0.00    -0.293 C  
HETATM   23  H   UNL     1      -8.391  22.019  66.465  1.00  0.00     0.000 HD 
HETATM   24  C   UNL     1     -10.017  19.818  68.437  1.00  0.00    -0.549 C  
ENDBRANCH  17  18
ENDBRANCH   6  13
ENDBRANCH   3   4
ENDBRANCH   2   3
BRANCH   2  25
HETATM   25  C   UNL     1     -11.303  10.913  69.187  1.00  0.00    -0.350 A  
HETATM   26 CL   UNL     1     -12.241  13.483  69.659  1.00  0.00    -0.339 Cl 
HETATM   27  C   UNL     1     -11.264   9.554  69.590  1.00  0.00    -0.108 A  
HETATM   28 CL   UNL     1     -10.528   8.312  68.628  1.00  0.00    -0.222 Cl 
HETATM   29  F   UNL     1     -13.172  12.221  72.067  1.00  0.00    -0.545 F  
HETATM   30  C   UNL     1     -11.845   9.123  70.791  1.00  0.00    -0.280 A  
HETATM   31  C   UNL     1     -12.477  10.032  71.626  1.00  0.00    -0.513 A  
HETATM   32  C   UNL     1     -11.986  11.812  70.037  1.00  0.00    -0.344 A  
HETATM   33  C   UNL     1     -12.544  11.364  71.246  1.00  0.00    -0.374 A  
ENDBRANCH   2  25
TORSDOF 5
ENDMDL
MODEL       14
REMARK 921   NORMALIZED FREE ENERGY PREDICTED BY IDOCK:   -7.44 KCAL/MOL
REMARK 922        TOTAL FREE ENERGY PREDICTED BY IDOCK:  -10.29 KCAL/MOL
REMARK 923 INTER-LIGAND FREE ENERGY PREDICTED BY IDOCK:  -10.49 KCAL/MOL
REMARK 924 INTRA-LIGAND FREE ENERGY PREDICTED BY IDOCK:    0.20 KCAL/MOL
REMARK 927      BINDING AFFINITY PREDICTED BY RF-SCORE:    0.00 PKD
ROOT
HETATM    1  C   UNL     1     -10.141   9.923  66.607  1.00  0.00    -0.297 C  
HETATM    2  C   UNL     1     -10.772  10.884  67.616  1.00  0.00    -0.242 C  
ENDROOT
BRANCH   2   3
HETATM    3  O   UNL     1     -11.903  11.473  66.970  1.00  0.00    -0.568 OA 
BRANCH   3   4
HETATM    4  C   UNL     1     -11.758  12.573  66.176  1.00  0.00    -0.409 A  
HETATM    5  C   UNL     1     -11.371  14.933  64.871  1.00  0.00    -0.413 A  
HETATM    6  C   UNL     1     -10.711  14.755  66.081  1.00  0.00    -0.314 A  
HETATM    7  H1  UNL     1     -13.801  12.257  63.480  1.00  0.00     0.000 HD 
HETATM    8  N   UNL     1     -12.196  14.022  64.303  1.00  0.00    -0.598 NA 
HETATM    9  C   UNL     1     -10.915  13.543  66.732  1.00  0.00    -0.297 A  
HETATM   10  C   UNL     1     -12.398  12.871  64.971  1.00  0.00    -0.485 A  
HETATM   11  H2  UNL     1     -14.063  11.853  65.047  1.00  0.00     0.000 HD 
HETATM   12  N   UNL     1     -13.333  12.040  64.360  1.00  0.00    -0.485 NA 
BRANCH   6  13
HETATM   13  C   UNL     1      -9.894  15.812  66.638  1.00  0.00    -0.266 A  
HETATM   14  N   UNL     1      -8.094  17.086  67.203  1.00  0.00    -0.183 NA 
HETATM   15  C   UNL     1      -8.502  16.007  66.543  1.00  0.00    -0.313 A  
HETATM   16  C   UNL     1     -10.334  16.871  67.407  1.00  0.00    -0.309 A  
HETATM   17  N   UNL     1      -9.217  17.592  67.742  1.00  0.00    -0.250 NA 
BRANCH  17  18
HETATM   18  C   UNL     1      -9.154  18.768  68.608  1.00  0.00    -0.330 C  
HETATM   19  C   UNL     1      -7.727  19.314  68.756  1.00  0.00    -0.397 C  
HETATM   20  C   UNL     1      -7.278  20.114  67.532  1.00  0.00    -0.285 C  
HETATM   21  N   UNL     1      -8.227  21.176  67.196  1.00  0.00    -0.588 NA 
HETATM   22  C   UNL     1      -9.575  20.656  66.958  1.00  0.00    -0.344 C  
HETATM   23  H   UNL     1      -7.899  21.727  66.403  1.00  0.00     0.000 HD 
HETATM   24  C   UNL     1     -10.108  19.883  68.162  1.00  0.00    -0.569 C  
ENDBRANCH  17  18
ENDBRANCH   6  13
ENDBRANCH   3   4
ENDBRANCH   2   3
BRANCH   2  25
HETATM   25  C   UNL     1     -11.141  10.147  68.905  1.00  0.00    -0.251 A  
HETATM   26 CL   UNL     1      -9.991   7.776  68.031  1.00  0.00    -0.196 Cl 
HETATM   27  C   UNL     1     -11.770  10.863  69.954  1.00  0.00    -0.339 A  
HETATM   28 CL   UNL     1     -12.123  12.558  69.851  1.00  0.00    -0.356 Cl 
HETATM   29  F   UNL     1     -10.996   6.874  70.568  1.00  0.00    -0.251 F  
HETATM   30  C   UNL     1     -12.128  10.244  71.160  1.00  0.00    -0.494 A  
HETATM   31  C   UNL     1     -11.873   8.894  71.354  1.00  0.00    -0.383 A  
HETATM   32  C   UNL     1     -10.857   8.783  69.143  1.00  0.00    -0.053 A  
HETATM   33  C   UNL     1     -11.241   8.176  70.349  1.00  0.00    -0.221 A  
ENDBRANCH   2  25
TORSDOF 5
ENDMDL
MODEL       15
REMARK 921   NORMALIZED FREE ENERGY PREDICTED BY IDOCK:   -7.36 KCAL/MOL
REMARK 922        TOTAL FREE ENERGY PREDICTED BY IDOCK:  -10.18 KCAL/MOL
REMARK 923 INTER-LIGAND FREE ENERGY PREDICTED BY IDOCK:   -9.42 KCAL/MOL
REMARK 924 INTRA-LIGAND FREE ENERGY PREDICTED BY IDOCK:   -0.76 KCAL/MOL
REMARK 927      BINDING AFFINITY PREDICTED BY RF-SCORE:    0.00 PKD
ROOT
HETATM    1  C   UNL     1     -11.212  16.179  68.127  1.00  0.00    -0.311 C  
HETATM    2  C   UNL     1      -9.832  16.114  67.471  1.00  0.00    -0.237 C  
ENDROOT
BRANCH   2   3
HETATM    3  O   UNL     1     -10.051  15.968  66.067  1.00  0.00    -0.297 OA 
BRANCH   3   4
HETATM    4  C   UNL     1     -10.800  14.936  65.581  1.00  0.00    -0.341 A  
HETATM    5  C   UNL     1     -12.044  12.674  64.711  1.00  0.00    -0.436 A  
HETATM    6  C   UNL     1     -11.056  12.530  65.678  1.00  0.00    -0.338 A  
HETATM    7  H1  UNL     1     -12.889  16.130  63.182  1.00  0.00     0.000 HD 
HETATM    8  N   UNL     1     -12.422  13.855  64.168  1.00  0.00    -0.693 NA 
HETATM    9  C   UNL     1     -10.434  13.694  66.115  1.00  0.00    -0.297 A  
HETATM   10  C   UNL     1     -11.783  14.962  64.589  1.00  0.00    -0.404 A  
HETATM   11  H2  UNL     1     -11.329  16.520  63.504  1.00  0.00     0.000 HD 
HETATM   12  N   UNL     1     -12.172  16.111  63.907  1.00  0.00    -0.802 NA 
BRANCH   6  13
HETATM   13  C   UNL     1     -10.678  11.217  66.156  1.00  0.00    -0.307 A  
HETATM   14  N   UNL     1      -9.850   9.097  66.231  1.00  0.00    -0.273 NA 
HETATM   15  C   UNL     1     -10.012  10.179  65.475  1.00  0.00    -0.293 A  
HETATM   16  C   UNL     1     -10.912  10.702  67.415  1.00  0.00    -0.298 A  
HETATM   17  N   UNL     1     -10.420   9.423  67.404  1.00  0.00    -0.269 NA 
BRANCH  17  18
HETATM   18  C   UNL     1     -10.495   8.440  68.485  1.00  0.00    -0.164 C  
HETATM   19  C   UNL     1      -9.408   7.362  68.375  1.00  0.00    -0.144 C  
HETATM   20  C   UNL     1      -8.039   7.862  68.839  1.00  0.00    -0.125 C  
HETATM   21  N   UNL     1      -8.094   8.433  70.185  1.00  0.00    -0.105 NA 
HETATM   22  C   UNL     1      -9.060   9.530  70.279  1.00  0.00    -0.253 C  
HETATM   23  H   UNL     1      -7.170   8.728  70.499  1.00  0.00     0.000 HD 
HETATM   24  C   UNL     1     -10.465   9.088  69.875  1.00  0.00    -0.226 C  
ENDBRANCH  17  18
ENDBRANCH   6  13
ENDBRANCH   3   4
ENDBRANCH   2   3
BRANCH   2  25
HETATM   25  C   UNL     1      -9.011  17.357  67.819  1.00  0.00    -0.236 A  
HETATM   26 CL   UNL     1     -10.713  19.036  66.408  1.00  0.00    -0.457 Cl 
HETATM   27  C   UNL     1      -7.891  17.227  68.679  1.00  0.00    -0.272 A  
HETATM   28 CL   UNL     1      -7.419  15.712  69.379  1.00  0.00    -0.217 Cl 
HETATM   29  F   UNL     1      -8.784  20.983  67.271  1.00  0.00    -0.408 F  
HETATM   30  C   UNL     1      -7.103  18.329  69.038  1.00  0.00    -0.249 A  
HETATM   31  C   UNL     1      -7.405  19.592  68.549  1.00  0.00    -0.368 A  
HETATM   32  C   UNL     1      -9.320  18.660  67.366  1.00  0.00    -0.282 A  
HETATM   33  C   UNL     1      -8.507  19.749  67.721  1.00  0.00    -0.317 A  
ENDBRANCH   2  25
TORSDOF 5
ENDMDL
MODEL       16
REMARK 921   NORMALIZED FREE ENERGY PREDICTED BY IDOCK:   -7.36 KCAL/MOL
REMARK 922        TOTAL FREE ENERGY PREDICTED BY IDOCK:  -10.18 KCAL/MOL
REMARK 923 INTER-LIGAND FREE ENERGY PREDICTED BY IDOCK:   -9.46 KCAL/MOL
REMARK 924 INTRA-LIGAND FREE ENERGY PREDICTED BY IDOCK:   -0.72 KCAL/MOL
REMARK 927      BINDING AFFINITY PREDICTED BY RF-SCORE:    0.00 PKD
ROOT
HETATM    1  C   UNL     1      -8.962  10.074  69.493  1.00  0.00    -0.220 C  
HETATM    2  C   UNL     1     -10.310  10.753  69.246  1.00  0.00    -0.205 C  
ENDROOT
BRANCH   2   3
HETATM    3  O   UNL     1     -10.622  10.556  67.865  1.00  0.00    -0.197 OA 
BRANCH   3   4
HETATM    4  C   UNL     1     -10.501  11.579  66.970  1.00  0.00    -0.228 A  
HETATM    5  C   UNL     1     -10.413  13.815  65.415  1.00  0.00    -0.331 A  
HETATM    6  C   UNL     1     -10.552  13.994  66.787  1.00  0.00    -0.277 A  
HETATM    7  H1  UNL     1     -10.321  10.280  63.836  1.00  0.00     0.000 HD 
HETATM    8  N   UNL     1     -10.327  12.611  64.802  1.00  0.00    -0.309 NA 
HETATM    9  C   UNL     1     -10.591  12.843  67.567  1.00  0.00    -0.234 A  
HETATM   10  C   UNL     1     -10.397  11.514  65.579  1.00  0.00    -0.273 A  
HETATM   11  H2  UNL     1     -11.240   9.816  65.113  1.00  0.00     0.000 HD 
HETATM   12  N   UNL     1     -10.397  10.327  64.852  1.00  0.00    -0.200 NA 
BRANCH   6  13
HETATM   13  C   UNL     1     -10.696  15.321  67.346  1.00  0.00    -0.293 A  
HETATM   14  N   UNL     1     -11.208  17.028  68.763  1.00  0.00    -0.089 NA 
HETATM   15  C   UNL     1     -11.213  15.709  68.598  1.00  0.00    -0.338 A  
HETATM   16  C   UNL     1     -10.352  16.511  66.737  1.00  0.00    -0.296 A  
HETATM   17  N   UNL     1     -10.700  17.505  67.613  1.00  0.00    -0.345 NA 
BRANCH  17  18
HETATM   18  C   UNL     1     -10.598  18.948  67.395  1.00  0.00    -0.460 C  
HETATM   19  C   UNL     1     -10.004  19.686  68.603  1.00  0.00    -0.553 C  
HETATM   20  C   UNL     1      -8.485  19.529  68.693  1.00  0.00    -0.328 C  
HETATM   21  N   UNL     1      -7.822  19.916  67.448  1.00  0.00    -0.275 NA 
HETATM   22  C   UNL     1      -8.313  19.151  66.300  1.00  0.00    -0.299 C  
HETATM   23  H   UNL     1      -6.808  19.845  67.532  1.00  0.00     0.000 HD 
HETATM   24  C   UNL     1      -9.822  19.300  66.120  1.00  0.00    -0.429 C  
ENDBRANCH  17  18
ENDBRANCH   6  13
ENDBRANCH   3   4
ENDBRANCH   2   3
BRANCH   2  25
HETATM   25  C   UNL     1     -11.378  10.187  70.183  1.00  0.00    -0.372 A  
HETATM   26 CL   UNL     1     -10.465   7.585  69.865  1.00  0.00    -0.224 Cl 
HETATM   27  C   UNL     1     -12.263  11.080  70.841  1.00  0.00    -0.367 A  
HETATM   28 CL   UNL     1     -12.173  12.801  70.647  1.00  0.00    -0.439 Cl 
HETATM   29  F   UNL     1     -12.696   7.064  71.600  1.00  0.00    -0.356 F  
HETATM   30  C   UNL     1     -13.259  10.621  71.715  1.00  0.00    -0.526 A  
HETATM   31  C   UNL     1     -13.405   9.263  71.956  1.00  0.00    -0.518 A  
HETATM   32  C   UNL     1     -11.523   8.812  70.477  1.00  0.00    -0.196 A  
HETATM   33  C   UNL     1     -12.540   8.371  71.340  1.00  0.00    -0.277 A  
ENDBRANCH   2  25
TORSDOF 5
ENDMDL
MODEL       17
REMARK 921   NORMALIZED FREE ENERGY PREDICTED BY IDOCK:   -7.31 KCAL/MOL
REMARK 922        TOTAL FREE ENERGY PREDICTED BY IDOCK:  -10.12 KCAL/MOL
REMARK 923 INTER-LIGAND FREE ENERGY PREDICTED BY IDOCK:   -9.76 KCAL/MOL
REMARK 924 INTRA-LIGAND FREE ENERGY PREDICTED BY IDOCK:   -0.36 KCAL/MOL
REMARK 927      BINDING AFFINITY PREDICTED BY RF-SCORE:    0.00 PKD
ROOT
HETATM    1  C   UNL     1     -11.517  10.280  68.678  1.00  0.00    -0.178 C  
HETATM    2  C   UNL     1     -11.222  10.841  70.070  1.00  0.00    -0.291 C  
ENDROOT
BRANCH   2   3
HETATM    3  O   UNL     1     -12.388  11.560  70.478  1.00  0.00    -0.350 OA 
BRANCH   3   4
HETATM    4  C   UNL     1     -12.340  12.909  70.681  1.00  0.00    -0.302 A  
HETATM    5  C   UNL     1     -11.944  15.593  70.928  1.00  0.00    -0.397 A  
HETATM    6  C   UNL     1     -11.238  14.931  69.930  1.00  0.00    -0.307 A  
HETATM    7  H1  UNL     1     -14.258  13.682  73.376  1.00  0.00     0.000 HD 
HETATM    8  N   UNL     1     -12.805  14.997  71.786  1.00  0.00    -0.317 NA 
HETATM    9  C   UNL     1     -11.455  13.563  69.814  1.00  0.00    -0.246 A  
HETATM   10  C   UNL     1     -12.971  13.666  71.669  1.00  0.00    -0.362 A  
HETATM   11  H2  UNL     1     -13.263  12.403  73.129  1.00  0.00     0.000 HD 
HETATM   12  N   UNL     1     -13.797  13.129  72.653  1.00  0.00    -0.668 NA 
BRANCH   6  13
HETATM   13  C   UNL     1     -10.294  15.646  69.098  1.00  0.00    -0.241 A  
HETATM   14  N   UNL     1      -8.355  16.518  68.283  1.00  0.00    -0.183 NA 
HETATM   15  C   UNL     1      -8.896  15.757  69.230  1.00  0.00    -0.262 A  
HETATM   16  C   UNL     1     -10.590  16.393  67.975  1.00  0.00    -0.314 A  
HETATM   17  N   UNL     1      -9.401  16.914  67.537  1.00  0.00    -0.230 NA 
BRANCH  17  18
HETATM   18  C   UNL     1      -9.201  17.834  66.417  1.00  0.00    -0.240 C  
HETATM   19  C   UNL     1     -10.470  18.626  66.073  1.00  0.00    -0.456 C  
HETATM   20  C   UNL     1     -10.726  19.774  67.052  1.00  0.00    -0.418 C  
HETATM   21  N   UNL     1      -9.562  20.652  67.179  1.00  0.00    -0.612 NA 
HETATM   22  C   UNL     1      -8.364  19.923  67.600  1.00  0.00    -0.321 C  
HETATM   23  H   UNL     1      -9.756  21.435  67.803  1.00  0.00     0.000 HD 
HETATM   24  C   UNL     1      -8.020  18.788  66.639  1.00  0.00    -0.278 C  
ENDBRANCH  17  18
ENDBRANCH   6  13
ENDBRANCH   3   4
ENDBRANCH   2   3
BRANCH   2  25
HETATM   25  C   UNL     1     -10.850   9.716  71.037  1.00  0.00    -0.412 A  
HETATM   26 CL   UNL     1      -8.168   9.817  70.329  1.00  0.00    -0.208 Cl 
HETATM   27  C   UNL     1     -11.852   9.169  71.879  1.00  0.00    -0.369 A  
HETATM   28 CL   UNL     1     -13.490   9.740  71.879  1.00  0.00    -0.486 Cl 
HETATM   29  F   UNL     1      -8.050   7.643  72.205  1.00  0.00    -0.095 F  
HETATM   30  C   UNL     1     -11.571   8.140  72.789  1.00  0.00    -0.371 A  
HETATM   31  C   UNL     1     -10.288   7.623  72.884  1.00  0.00    -0.380 A  
HETATM   32  C   UNL     1      -9.543   9.198  71.182  1.00  0.00    -0.277 A  
HETATM   33  C   UNL     1      -9.286   8.153  72.084  1.00  0.00    -0.194 A  
ENDBRANCH   2  25
TORSDOF 5
ENDMDL
MODEL       18
REMARK 921   NORMALIZED FREE ENERGY PREDICTED BY IDOCK:   -7.28 KCAL/MOL
REMARK 922        TOTAL FREE ENERGY PREDICTED BY IDOCK:  -10.08 KCAL/MOL
REMARK 923 INTER-LIGAND FREE ENERGY PREDICTED BY IDOCK:   -9.32 KCAL/MOL
REMARK 924 INTRA-LIGAND FREE ENERGY PREDICTED BY IDOCK:   -0.76 KCAL/MOL
REMARK 927      BINDING AFFINITY PREDICTED BY RF-SCORE:    0.00 PKD
ROOT
HETATM    1  C   UNL     1     -10.395   8.659  66.881  1.00  0.00    -0.355 C  
HETATM    2  C   UNL     1     -10.524  10.120  66.449  1.00  0.00    -0.140 C  
ENDROOT
BRANCH   2   3
HETATM    3  O   UNL     1      -9.943  10.909  67.489  1.00  0.00    -0.170 OA 
BRANCH   3   4
HETATM    4  C   UNL     1     -10.644  11.929  68.065  1.00  0.00    -0.207 A  
HETATM    5  C   UNL     1     -11.823  14.174  69.061  1.00  0.00    -0.348 A  
HETATM    6  C   UNL     1     -11.041  14.314  67.920  1.00  0.00    -0.293 A  
HETATM    7  H1  UNL     1     -12.184  10.763  70.860  1.00  0.00     0.000 HD 
HETATM    8  N   UNL     1     -12.031  13.006  69.712  1.00  0.00    -0.322 NA 
HETATM    9  C   UNL     1     -10.450  13.158  67.422  1.00  0.00    -0.243 A  
HETATM   10  C   UNL     1     -11.422  11.909  69.224  1.00  0.00    -0.306 A  
HETATM   11  H2  UNL     1     -10.692  10.429  70.267  1.00  0.00     0.000 HD 
HETATM   12  N   UNL     1     -11.616  10.778  70.013  1.00  0.00    -0.305 NA 
BRANCH   6  13
HETATM   13  C   UNL     1     -10.830  15.617  67.327  1.00  0.00    -0.298 A  
HETATM   14  N   UNL     1     -10.329  17.257  65.829  1.00  0.00    -0.581 NA 
HETATM   15  C   UNL     1     -10.447  15.946  66.012  1.00  0.00    -0.345 A  
HETATM   16  C   UNL     1     -10.957  16.838  67.959  1.00  0.00    -0.296 A  
HETATM   17  N   UNL     1     -10.623  17.788  67.029  1.00  0.00    -0.306 NA 
BRANCH  17  18
HETATM   18  C   UNL     1     -10.536  19.233  67.238  1.00  0.00    -0.462 C  
HETATM   19  C   UNL     1      -9.912  19.595  68.593  1.00  0.00    -0.553 C  
HETATM   20  C   UNL     1      -8.391  19.439  68.596  1.00  0.00    -0.362 C  
HETATM   21  N   UNL     1      -7.764  20.181  67.501  1.00  0.00    -0.297 NA 
HETATM   22  C   UNL     1      -8.283  19.776  66.193  1.00  0.00    -0.344 C  
HETATM   23  H   UNL     1      -6.748  20.102  67.535  1.00  0.00     0.000 HD 
HETATM   24  C   UNL     1      -9.797  19.951  66.102  1.00  0.00    -0.562 C  
ENDBRANCH  17  18
ENDBRANCH   6  13
ENDBRANCH   3   4
ENDBRANCH   2   3
BRANCH   2  25
HETATM   25  C   UNL     1      -9.855  10.342  65.091  1.00  0.00    -0.389 A  
HETATM   26 CL   UNL     1      -7.725   8.677  65.722  1.00  0.00    -0.089 Cl 
HETATM   27  C   UNL     1     -10.514  11.136  64.118  1.00  0.00    -0.377 A  
HETATM   28 CL   UNL     1     -12.069  11.854  64.391  1.00  0.00    -0.347 Cl 
HETATM   29  F   UNL     1      -6.879   9.508  63.104  1.00  0.00    -0.097 F  
HETATM   30  C   UNL     1      -9.954  11.371  62.854  1.00  0.00    -0.278 A  
HETATM   31  C   UNL     1      -8.721  10.827  62.526  1.00  0.00    -0.313 A  
HETATM   32  C   UNL     1      -8.619   9.768  64.716  1.00  0.00    -0.179 A  
HETATM   33  C   UNL     1      -8.065  10.031  63.453  1.00  0.00    -0.158 A  
ENDBRANCH   2  25
TORSDOF 5
ENDMDL
MODEL       19
REMARK 921   NORMALIZED FREE ENERGY PREDICTED BY IDOCK:   -7.26 KCAL/MOL
REMARK 922        TOTAL FREE ENERGY PREDICTED BY IDOCK:  -10.05 KCAL/MOL
REMARK 923 INTER-LIGAND FREE ENERGY PREDICTED BY IDOCK:   -8.86 KCAL/MOL
REMARK 924 INTRA-LIGAND FREE ENERGY PREDICTED BY IDOCK:   -1.19 KCAL/MOL
REMARK 927      BINDING AFFINITY PREDICTED BY RF-SCORE:    0.00 PKD
ROOT
HETATM    1  C   UNL     1     -11.245   6.200  69.182  1.00  0.00    -0.409 C  
HETATM    2  C   UNL     1     -10.777   7.656  69.137  1.00  0.00    -0.141 C  
ENDROOT
BRANCH   2   3
HETATM    3  O   UNL     1     -10.994   8.197  70.441  1.00  0.00    -0.246 OA 
BRANCH   3   4
HETATM    4  C   UNL     1     -11.634   9.391  70.603  1.00  0.00    -0.269 A  
HETATM    5  C   UNL     1     -12.676  11.906  70.721  1.00  0.00    -0.153 A  
HETATM    6  C   UNL     1     -11.865  11.599  69.634  1.00  0.00    -0.419 A  
HETATM    7  H1  UNL     1     -13.302   9.350  73.562  1.00  0.00     0.000 HD 
HETATM    8  N   UNL     1     -12.976  11.047  71.723  1.00  0.00    -0.468 NA 
HETATM    9  C   UNL     1     -11.345  10.311  69.587  1.00  0.00    -0.315 A  
HETATM   10  C   UNL     1     -12.433   9.816  71.666  1.00  0.00    -0.410 A  
HETATM   11  H2  UNL     1     -11.826   8.746  73.182  1.00  0.00     0.000 HD 
HETATM   12  N   UNL     1     -12.719   9.040  72.786  1.00  0.00    -0.254 NA 
BRANCH   6  13
HETATM   13  C   UNL     1     -11.554  12.604  68.640  1.00  0.00    -0.356 A  
HETATM   14  N   UNL     1     -11.444  14.589  67.531  1.00  0.00    -0.340 NA 
HETATM   15  C   UNL     1     -11.882  13.974  68.624  1.00  0.00    -0.361 A  
HETATM   16  C   UNL     1     -10.857  12.408  67.464  1.00  0.00    -0.236 A  
HETATM   17  N   UNL     1     -10.838  13.619  66.823  1.00  0.00    -0.289 NA 
BRANCH  17  18
HETATM   18  C   UNL     1     -10.278  13.910  65.503  1.00  0.00    -0.331 C  
HETATM   19  C   UNL     1     -10.453  12.743  64.521  1.00  0.00    -0.392 C  
HETATM   20  C   UNL     1     -11.876  12.654  63.967  1.00  0.00    -0.431 C  
HETATM   21  N   UNL     1     -12.313  13.922  63.380  1.00  0.00    -1.139 NA 
HETATM   22  C   UNL     1     -12.241  15.027  64.337  1.00  0.00    -0.337 C  
HETATM   23  H   UNL     1     -13.247  13.841  62.979  1.00  0.00     0.000 HD 
HETATM   24  C   UNL     1     -10.832  15.205  64.898  1.00  0.00    -0.437 C  
ENDBRANCH  17  18
ENDBRANCH   6  13
ENDBRANCH   3   4
ENDBRANCH   2   3
BRANCH   2  25
HETATM   25  C   UNL     1      -9.315   7.738  68.694  1.00  0.00    -0.148 A  
HETATM   26 CL   UNL     1      -8.426   6.338  70.921  1.00  0.00    -0.130 Cl 
HETATM   27  C   UNL     1      -9.003   8.340  67.448  1.00  0.00    -0.134 A  
HETATM   28 CL   UNL     1     -10.218   8.971  66.383  1.00  0.00    -0.341 Cl 
HETATM   29  F   UNL     1      -5.886   6.862  69.682  1.00  0.00    -0.017 F  
HETATM   30  C   UNL     1      -7.683   8.440  66.987  1.00  0.00    -0.093 A  
HETATM   31  C   UNL     1      -6.637   7.949  67.753  1.00  0.00    -0.060 A  
HETATM   32  C   UNL     1      -8.234   7.211  69.437  1.00  0.00    -0.132 A  
HETATM   33  C   UNL     1      -6.917   7.339  68.967  1.00  0.00    -0.077 A  
ENDBRANCH   2  25
TORSDOF 5
ENDMDL
MODEL       20
REMARK 921   NORMALIZED FREE ENERGY PREDICTED BY IDOCK:   -7.25 KCAL/MOL
REMARK 922        TOTAL FREE ENERGY PREDICTED BY IDOCK:  -10.04 KCAL/MOL
REMARK 923 INTER-LIGAND FREE ENERGY PREDICTED BY IDOCK:   -9.34 KCAL/MOL
REMARK 924 INTRA-LIGAND FREE ENERGY PREDICTED BY IDOCK:   -0.71 KCAL/MOL
REMARK 927      BINDING AFFINITY PREDICTED BY RF-SCORE:    0.00 PKD
ROOT
HETATM    1  C   UNL     1      -8.636   8.067  70.694  1.00  0.00    -0.130 C  
HETATM    2  C   UNL     1      -9.968   7.659  71.326  1.00  0.00    -0.179 C  
ENDROOT
BRANCH   2   3
HETATM    3  O   UNL     1     -10.995   8.075  70.424  1.00  0.00    -0.246 OA 
BRANCH   3   4
HETATM    4  C   UNL     1     -11.635   9.268  70.599  1.00  0.00    -0.252 A  
HETATM    5  C   UNL     1     -12.678  11.781  70.741  1.00  0.00    -0.167 A  
HETATM    6  C   UNL     1     -11.876  11.482  69.646  1.00  0.00    -0.421 A  
HETATM    7  H1  UNL     1     -13.278   9.207  73.571  1.00  0.00     0.000 HD 
HETATM    8  N   UNL     1     -12.969  10.916  71.740  1.00  0.00    -0.473 NA 
HETATM    9  C   UNL     1     -11.355  10.194  69.586  1.00  0.00    -0.289 A  
HETATM   10  C   UNL     1     -12.426   9.686  71.671  1.00  0.00    -0.407 A  
HETATM   11  H2  UNL     1     -11.805   8.607  73.175  1.00  0.00     0.000 HD 
HETATM   12  N   UNL     1     -12.701   8.902  72.788  1.00  0.00    -0.271 NA 
BRANCH   6  13
HETATM   13  C   UNL     1     -11.574  12.492  68.655  1.00  0.00    -0.357 A  
HETATM   14  N   UNL     1     -11.473  14.485  67.558  1.00  0.00    -0.340 NA 
HETATM   15  C   UNL     1     -11.900  13.863  68.652  1.00  0.00    -0.372 A  
HETATM   16  C   UNL     1     -10.890  12.304  67.471  1.00  0.00    -0.234 A  
HETATM   17  N   UNL     1     -10.876  13.520  66.838  1.00  0.00    -0.281 NA 
BRANCH  17  18
HETATM   18  C   UNL     1     -10.330  13.818  65.514  1.00  0.00    -0.321 C  
HETATM   19  C   UNL     1     -10.560  12.678  64.512  1.00  0.00    -0.369 C  
HETATM   20  C   UNL     1     -11.994  12.646  63.982  1.00  0.00    -0.451 C  
HETATM   21  N   UNL     1     -12.400  13.939  63.428  1.00  0.00    -1.139 NA 
HETATM   22  C   UNL     1     -12.276  15.022  64.406  1.00  0.00    -0.337 C  
HETATM   23  H   UNL     1     -13.343  13.896  63.043  1.00  0.00     0.000 HD 
HETATM   24  C   UNL     1     -10.852  15.143  64.944  1.00  0.00    -0.437 C  
ENDBRANCH  17  18
ENDBRANCH   6  13
ENDBRANCH   3   4
ENDBRANCH   2   3
BRANCH   2  25
HETATM   25  C   UNL     1      -9.994   6.155  71.603  1.00  0.00    -0.203 A  
HETATM   26 CL   UNL     1      -9.579   5.522  68.932  1.00  0.00    -0.164 Cl 
HETATM   27  C   UNL     1     -10.119   5.702  72.942  1.00  0.00    -0.176 A  
HETATM   28 CL   UNL     1     -10.222   6.785  74.292  1.00  0.00    -0.376 Cl 
HETATM   29  F   UNL     1      -9.806   2.860  69.990  1.00  0.00    -0.201 F  
HETATM   30  C   UNL     1     -10.145   4.336  73.259  1.00  0.00    -0.199 A  
HETATM   31  C   UNL     1     -10.050   3.384  72.255  1.00  0.00    -0.219 A  
HETATM   32  C   UNL     1      -9.860   5.165  70.604  1.00  0.00    -0.205 A  
HETATM   33  C   UNL     1      -9.907   3.802  70.940  1.00  0.00    -0.122 A  
ENDBRANCH   2  25
TORSDOF 5
ENDMDL
MODEL       21
REMARK 921   NORMALIZED FREE ENERGY PREDICTED BY IDOCK:   -7.22 KCAL/MOL
REMARK 922        TOTAL FREE ENERGY PREDICTED BY IDOCK:  -10.00 KCAL/MOL
REMARK 923 INTER-LIGAND FREE ENERGY PREDICTED BY IDOCK:   -9.03 KCAL/MOL
REMARK 924 INTRA-LIGAND FREE ENERGY PREDICTED BY IDOCK:   -0.97 KCAL/MOL
REMARK 927      BINDING AFFINITY PREDICTED BY RF-SCORE:    0.00 PKD
ROOT
HETATM    1  C   UNL     1     -11.083   6.177  69.327  1.00  0.00    -0.463 C  
HETATM    2  C   UNL     1     -10.534   7.584  69.084  1.00  0.00    -0.215 C  
ENDROOT
BRANCH   2   3
HETATM    3  O   UNL     1     -10.592   8.269  70.336  1.00  0.00    -0.215 OA 
BRANCH   3   4
HETATM    4  C   UNL     1     -11.355   9.391  70.483  1.00  0.00    -0.274 A  
HETATM    5  C   UNL     1     -12.652  11.785  70.580  1.00  0.00    -0.201 A  
HETATM    6  C   UNL     1     -11.779  11.572  69.520  1.00  0.00    -0.413 A  
HETATM    7  H1  UNL     1     -13.106   9.153  73.385  1.00  0.00     0.000 HD 
HETATM    8  N   UNL     1     -12.894  10.891  71.568  1.00  0.00    -0.441 NA 
HETATM    9  C   UNL     1     -11.128  10.343  69.482  1.00  0.00    -0.314 A  
HETATM   10  C   UNL     1     -12.228   9.722  71.521  1.00  0.00    -0.406 A  
HETATM   11  H2  UNL     1     -11.564   8.706  73.051  1.00  0.00     0.000 HD 
HETATM   12  N   UNL     1     -12.469   8.911  72.627  1.00  0.00    -0.275 NA 
BRANCH   6  13
HETATM   13  C   UNL     1     -11.539  12.612  68.542  1.00  0.00    -0.363 A  
HETATM   14  N   UNL     1     -11.578  14.614  67.460  1.00  0.00    -0.364 NA 
HETATM   15  C   UNL     1     -11.976  13.951  68.541  1.00  0.00    -0.359 A  
HETATM   16  C   UNL     1     -10.816  12.489  67.372  1.00  0.00    -0.240 A  
HETATM   17  N   UNL     1     -10.889  13.706  66.747  1.00  0.00    -0.289 NA 
BRANCH  17  18
HETATM   18  C   UNL     1     -10.341  14.059  65.437  1.00  0.00    -0.359 C  
HETATM   19  C   UNL     1     -10.416  12.897  64.436  1.00  0.00    -0.419 C  
HETATM   20  C   UNL     1     -11.822  12.707  63.867  1.00  0.00    -0.467 C  
HETATM   21  N   UNL     1     -12.351  13.945  63.293  1.00  0.00    -1.148 NA 
HETATM   22  C   UNL     1     -12.374  15.038  64.267  1.00  0.00    -0.226 C  
HETATM   23  H   UNL     1     -13.272  13.798  62.881  1.00  0.00     0.000 HD 
HETATM   24  C   UNL     1     -10.988  15.316  64.844  1.00  0.00    -0.445 C  
ENDBRANCH  17  18
ENDBRANCH   6  13
ENDBRANCH   3   4
ENDBRANCH   2   3
BRANCH   2  25
HETATM   25  C   UNL     1      -9.119   7.518  68.506  1.00  0.00    -0.134 A  
HETATM   26 CL   UNL     1      -9.852   8.886  66.206  1.00  0.00    -0.353 Cl 
HETATM   27  C   UNL     1      -8.083   6.938  69.283  1.00  0.00    -0.120 A  
HETATM   28 CL   UNL     1      -8.346   6.317  70.881  1.00  0.00    -0.125 Cl 
HETATM   29  F   UNL     1      -7.092   8.398  65.571  1.00  0.00    -0.069 F  
HETATM   30  C   UNL     1      -6.766   6.853  68.811  1.00  0.00    -0.056 A  
HETATM   31  C   UNL     1      -6.443   7.338  67.552  1.00  0.00    -0.055 A  
HETATM   32  C   UNL     1      -8.755   8.039  67.244  1.00  0.00    -0.131 A  
HETATM   33  C   UNL     1      -7.435   7.926  66.780  1.00  0.00    -0.090 A  
ENDBRANCH   2  25
TORSDOF 5
ENDMDL
MODEL       22
REMARK 921   NORMALIZED FREE ENERGY PREDICTED BY IDOCK:   -7.21 KCAL/MOL
REMARK 922        TOTAL FREE ENERGY PREDICTED BY IDOCK:   -9.99 KCAL/MOL
REMARK 923 INTER-LIGAND FREE ENERGY PREDICTED BY IDOCK:   -9.15 KCAL/MOL
REMARK 924 INTRA-LIGAND FREE ENERGY PREDICTED BY IDOCK:   -0.85 KCAL/MOL
REMARK 927      BINDING AFFINITY PREDICTED BY RF-SCORE:    0.00 PKD
ROOT
HETATM    1  C   UNL     1     -11.539  15.521  68.439  1.00  0.00    -0.368 C  
HETATM    2  C   UNL     1     -10.295  15.371  67.562  1.00  0.00    -0.264 C  
ENDROOT
BRANCH   2   3
HETATM    3  O   UNL     1     -10.717  15.573  66.212  1.00  0.00    -0.307 OA 
BRANCH   3   4
HETATM    4  C   UNL     1     -11.137  14.523  65.449  1.00  0.00    -0.345 A  
HETATM    5  C   UNL     1     -11.679  12.281  63.999  1.00  0.00    -0.425 A  
HETATM    6  C   UNL     1     -10.715  12.181  64.995  1.00  0.00    -0.338 A  
HETATM    7  H1  UNL     1     -13.416  15.648  63.194  1.00  0.00     0.000 HD 
HETATM    8  N   UNL     1     -12.359  13.412  63.696  1.00  0.00    -0.735 NA 
HETATM    9  C   UNL     1     -10.453  13.333  65.729  1.00  0.00    -0.289 A  
HETATM   10  C   UNL     1     -12.063  14.519  64.403  1.00  0.00    -0.472 A  
HETATM   11  H2  UNL     1     -12.034  16.351  63.729  1.00  0.00     0.000 HD 
HETATM   12  N   UNL     1     -12.740  15.650  63.957  1.00  0.00    -0.559 NA 
BRANCH   6  13
HETATM   13  C   UNL     1      -9.999  10.942  65.206  1.00  0.00    -0.330 A  
HETATM   14  N   UNL     1      -8.772   9.061  64.831  1.00  0.00    -0.181 NA 
HETATM   15  C   UNL     1      -9.291  10.153  64.278  1.00  0.00    -0.295 A  
HETATM   16  C   UNL     1      -9.870  10.260  66.400  1.00  0.00    -0.217 A  
HETATM   17  N   UNL     1      -9.149   9.129  66.119  1.00  0.00    -0.173 NA 
BRANCH  17  18
HETATM   18  C   UNL     1      -8.811   8.047  67.044  1.00  0.00    -0.133 C  
HETATM   19  C   UNL     1      -9.164   8.386  68.499  1.00  0.00    -0.135 C  
HETATM   20  C   UNL     1     -10.660   8.248  68.785  1.00  0.00    -0.123 C  
HETATM   21  N   UNL     1     -11.169   6.930  68.402  1.00  0.00    -0.523 NA 
HETATM   22  C   UNL     1     -10.924   6.634  66.989  1.00  0.00    -0.393 C  
HETATM   23  H   UNL     1     -12.158   6.835  68.632  1.00  0.00     0.000 HD 
HETATM   24  C   UNL     1      -9.438   6.707  66.642  1.00  0.00    -0.201 C  
ENDBRANCH  17  18
ENDBRANCH   6  13
ENDBRANCH   3   4
ENDBRANCH   2   3
BRANCH   2  25
HETATM   25  C   UNL     1      -9.208  16.356  67.998  1.00  0.00    -0.204 A  
HETATM   26 CL   UNL     1     -10.756  18.562  67.336  1.00  0.00    -0.457 Cl 
HETATM   27  C   UNL     1      -8.013  15.854  68.575  1.00  0.00    -0.152 A  
HETATM   28 CL   UNL     1      -7.736  14.161  68.832  1.00  0.00    -0.122 Cl 
HETATM   29  F   UNL     1      -8.380  19.930  68.198  1.00  0.00    -0.339 F  
HETATM   30  C   UNL     1      -6.983  16.705  68.998  1.00  0.00    -0.212 A  
HETATM   31  C   UNL     1      -7.111  18.079  68.856  1.00  0.00    -0.268 A  
HETATM   32  C   UNL     1      -9.329  17.760  67.901  1.00  0.00    -0.266 A  
HETATM   33  C   UNL     1      -8.278  18.596  68.313  1.00  0.00    -0.323 A  
ENDBRANCH   2  25
TORSDOF 5
ENDMDL
MODEL       23
REMARK 921   NORMALIZED FREE ENERGY PREDICTED BY IDOCK:   -7.21 KCAL/MOL
REMARK 922        TOTAL FREE ENERGY PREDICTED BY IDOCK:   -9.99 KCAL/MOL
REMARK 923 INTER-LIGAND FREE ENERGY PREDICTED BY IDOCK:   -9.42 KCAL/MOL
REMARK 924 INTRA-LIGAND FREE ENERGY PREDICTED BY IDOCK:   -0.57 KCAL/MOL
REMARK 927      BINDING AFFINITY PREDICTED BY RF-SCORE:    0.00 PKD
ROOT
HETATM    1  C   UNL     1     -13.162   6.728  71.725  1.00  0.00    -0.212 C  
HETATM    2  C   UNL     1     -11.922   7.097  70.908  1.00  0.00    -0.334 C  
ENDROOT
BRANCH   2   3
HETATM    3  O   UNL     1     -11.296   8.189  71.583  1.00  0.00    -0.247 OA 
BRANCH   3   4
HETATM    4  C   UNL     1     -10.340   8.938  70.960  1.00  0.00    -0.253 A  
HETATM    5  C   UNL     1      -8.642  10.443  69.452  1.00  0.00    -0.130 A  
HETATM    6  C   UNL     1      -9.989  10.465  69.113  1.00  0.00    -0.237 A  
HETATM    7  H1  UNL     1      -7.314   8.204  72.319  1.00  0.00     0.000 HD 
HETATM    8  N   UNL     1      -8.117   9.722  70.470  1.00  0.00    -0.249 NA 
HETATM    9  C   UNL     1     -10.843   9.695  69.895  1.00  0.00    -0.287 A  
HETATM   10  C   UNL     1      -8.963   8.963  71.191  1.00  0.00    -0.241 A  
HETATM   11  H2  UNL     1      -8.575   7.215  71.970  1.00  0.00     0.000 HD 
HETATM   12  N   UNL     1      -8.320   8.186  72.151  1.00  0.00    -0.143 NA 
BRANCH   6  13
HETATM   13  C   UNL     1     -10.449  11.222  67.968  1.00  0.00    -0.215 A  
HETATM   14  N   UNL     1     -11.807  12.258  66.463  1.00  0.00    -0.598 NA 
HETATM   15  C   UNL     1     -11.764  11.568  67.598  1.00  0.00    -0.208 A  
HETATM   16  C   UNL     1      -9.662  11.767  66.973  1.00  0.00    -0.185 A  
HETATM   17  N   UNL     1     -10.521  12.355  66.083  1.00  0.00    -0.243 NA 
BRANCH  17  18
HETATM   18  C   UNL     1     -10.173  13.005  64.820  1.00  0.00    -0.291 C  
HETATM   19  C   UNL     1     -10.721  12.252  63.600  1.00  0.00    -0.513 C  
HETATM   20  C   UNL     1     -12.215  12.496  63.385  1.00  0.00    -0.517 C  
HETATM   21  N   UNL     1     -12.532  13.923  63.322  1.00  0.00    -1.112 NA 
HETATM   22  C   UNL     1     -12.099  14.638  64.525  1.00  0.00    -0.475 C  
HETATM   23  H   UNL     1     -13.524  14.074  63.140  1.00  0.00     0.000 HD 
HETATM   24  C   UNL     1     -10.601  14.477  64.775  1.00  0.00    -0.401 C  
ENDBRANCH  17  18
ENDBRANCH   6  13
ENDBRANCH   3   4
ENDBRANCH   2   3
BRANCH   2  25
HETATM   25  C   UNL     1     -11.000   5.886  70.753  1.00  0.00    -0.343 A  
HETATM   26 CL   UNL     1     -11.015   5.361  73.479  1.00  0.00    -0.340 Cl 
HETATM   27  C   UNL     1     -10.600   5.484  69.453  1.00  0.00    -0.279 A  
HETATM   28 CL   UNL     1     -11.134   6.297  68.016  1.00  0.00    -0.415 Cl 
HETATM   29  F   UNL     1      -9.224   3.278  72.635  1.00  0.00    -0.099 F  
HETATM   30  C   UNL     1      -9.760   4.381  69.247  1.00  0.00    -0.252 A  
HETATM   31  C   UNL     1      -9.291   3.649  70.328  1.00  0.00    -0.241 A  
HETATM   32  C   UNL     1     -10.540   5.100  71.834  1.00  0.00    -0.188 A  
HETATM   33  C   UNL     1      -9.683   4.011  71.608  1.00  0.00    -0.172 A  
ENDBRANCH   2  25
TORSDOF 5
ENDMDL
MODEL       24
REMARK 921   NORMALIZED FREE ENERGY PREDICTED BY IDOCK:   -7.20 KCAL/MOL
REMARK 922        TOTAL FREE ENERGY PREDICTED BY IDOCK:   -9.97 KCAL/MOL
REMARK 923 INTER-LIGAND FREE ENERGY PREDICTED BY IDOCK:   -9.78 KCAL/MOL
REMARK 924 INTRA-LIGAND FREE ENERGY PREDICTED BY IDOCK:   -0.19 KCAL/MOL
REMARK 927      BINDING AFFINITY PREDICTED BY RF-SCORE:    0.00 PKD
ROOT
HETATM    1  C   UNL     1      -9.143  10.289  69.291  1.00  0.00    -0.206 C  
HETATM    2  C   UNL     1     -10.442   9.846  69.966  1.00  0.00    -0.284 C  
ENDROOT
BRANCH   2   3
HETATM    3  O   UNL     1     -11.501  10.564  69.330  1.00  0.00    -0.253 OA 
BRANCH   3   4
HETATM    4  C   UNL     1     -11.933  11.757  69.831  1.00  0.00    -0.332 A  
HETATM    5  C   UNL     1     -12.540  14.281  70.659  1.00  0.00    -0.355 A  
HETATM    6  C   UNL     1     -11.781  14.152  69.502  1.00  0.00    -0.364 A  
HETATM    7  H1  UNL     1     -13.615  11.188  72.727  1.00  0.00     0.000 HD 
HETATM    8  N   UNL     1     -12.989  13.243  71.403  1.00  0.00    -0.343 NA 
HETATM    9  C   UNL     1     -11.483  12.858  69.090  1.00  0.00    -0.360 A  
HETATM   10  C   UNL     1     -12.661  12.003  70.997  1.00  0.00    -0.273 A  
HETATM   11  H2  UNL     1     -12.257  10.476  72.145  1.00  0.00     0.000 HD 
HETATM   12  N   UNL     1     -13.084  11.009  71.875  1.00  0.00    -0.483 NA 
BRANCH   6  13
HETATM   13  C   UNL     1     -11.295  15.324  68.805  1.00  0.00    -0.318 A  
HETATM   14  N   UNL     1     -10.542  16.705  67.160  1.00  0.00    -0.299 NA 
HETATM   15  C   UNL     1     -10.985  15.484  67.440  1.00  0.00    -0.306 A  
HETATM   16  C   UNL     1     -11.021  16.557  69.363  1.00  0.00    -0.288 A  
HETATM   17  N   UNL     1     -10.550  17.343  68.343  1.00  0.00    -0.371 NA 
BRANCH  17  18
HETATM   18  C   UNL     1     -10.057  18.716  68.445  1.00  0.00    -0.383 C  
HETATM   19  C   UNL     1      -8.539  18.813  68.242  1.00  0.00    -0.357 C  
HETATM   20  C   UNL     1      -8.138  18.711  66.770  1.00  0.00    -0.265 C  
HETATM   21  N   UNL     1      -8.853  19.683  65.941  1.00  0.00    -0.399 NA 
HETATM   22  C   UNL     1     -10.306  19.538  66.052  1.00  0.00    -0.511 C  
HETATM   23  H   UNL     1      -8.550  19.633  64.969  1.00  0.00     0.000 HD 
HETATM   24  C   UNL     1     -10.784  19.677  67.496  1.00  0.00    -0.537 C  
ENDBRANCH  17  18
ENDBRANCH   6  13
ENDBRANCH   3   4
ENDBRANCH   2   3
BRANCH   2  25
HETATM   25  C   UNL     1     -10.609   8.328  69.866  1.00  0.00    -0.232 A  
HETATM   26 CL   UNL     1     -10.635   8.382  67.091  1.00  0.00    -0.373 Cl 
HETATM   27  C   UNL     1     -10.606   7.554  71.055  1.00  0.00    -0.221 A  
HETATM   28 CL   UNL     1     -10.397   8.253  72.628  1.00  0.00    -0.392 Cl 
HETATM   29  F   UNL     1     -11.032   5.562  67.485  1.00  0.00    -0.279 F  
HETATM   30  C   UNL     1     -10.750   6.159  71.028  1.00  0.00    -0.317 A  
HETATM   31  C   UNL     1     -10.905   5.497  69.819  1.00  0.00    -0.291 A  
HETATM   32  C   UNL     1     -10.729   7.625  68.646  1.00  0.00    -0.059 A  
HETATM   33  C   UNL     1     -10.892   6.230  68.641  1.00  0.00    -0.333 A  
ENDBRANCH   2  25
TORSDOF 5
ENDMDL
MODEL       25
REMARK 921   NORMALIZED FREE ENERGY PREDICTED BY IDOCK:   -7.20 KCAL/MOL
REMARK 922        TOTAL FREE ENERGY PREDICTED BY IDOCK:   -9.97 KCAL/MOL
REMARK 923 INTER-LIGAND FREE ENERGY PREDICTED BY IDOCK:   -8.81 KCAL/MOL
REMARK 924 INTRA-LIGAND FREE ENERGY PREDICTED BY IDOCK:   -1.16 KCAL/MOL
REMARK 927      BINDING AFFINITY PREDICTED BY RF-SCORE:    0.00 PKD
ROOT
HETATM    1  C   UNL     1     -10.795   9.771  67.758  1.00  0.00    -0.306 C  
HETATM    2  C   UNL     1     -10.137  11.099  67.380  1.00  0.00    -0.185 C  
ENDROOT
BRANCH   2   3
HETATM    3  O   UNL     1      -8.731  10.928  67.564  1.00  0.00    -0.129 OA 
BRANCH   3   4
HETATM    4  C   UNL     1      -7.905  12.008  67.678  1.00  0.00    -0.149 A  
HETATM    5  C   UNL     1      -6.534  14.355  67.863  1.00  0.00    -0.164 A  
HETATM    6  C   UNL     1      -7.900  14.389  68.121  1.00  0.00    -0.138 A  
HETATM    7  H1  UNL     1      -4.765  11.091  66.761  1.00  0.00     0.000 HD 
HETATM    8  N   UNL     1      -5.844  13.243  67.521  1.00  0.00    -0.319 NA 
HETATM    9  C   UNL     1      -8.584  13.183  68.026  1.00  0.00    -0.182 A  
HETATM   10  C   UNL     1      -6.538  12.094  67.408  1.00  0.00    -0.147 A  
HETATM   11  H2  UNL     1      -6.212  10.666  66.118  1.00  0.00     0.000 HD 
HETATM   12  N   UNL     1      -5.764  11.028  66.959  1.00  0.00    -0.058 NA 
BRANCH   6  13
HETATM   13  C   UNL     1      -8.561  15.640  68.423  1.00  0.00    -0.173 A  
HETATM   14  N   UNL     1     -10.141  17.158  69.045  1.00  0.00    -0.305 NA 
HETATM   15  C   UNL     1      -9.867  15.865  68.901  1.00  0.00    -0.226 A  
HETATM   16  C   UNL     1      -8.027  16.907  68.288  1.00  0.00    -0.211 A  
HETATM   17  N   UNL     1      -9.018  17.782  68.648  1.00  0.00    -0.281 NA 
BRANCH  17  18
HETATM   18  C   UNL     1      -8.962  19.243  68.605  1.00  0.00    -0.374 C  
HETATM   19  C   UNL     1      -7.930  19.762  67.595  1.00  0.00    -0.325 C  
HETATM   20  C   UNL     1      -8.430  19.676  66.152  1.00  0.00    -0.334 C  
HETATM   21  N   UNL     1      -9.726  20.336  65.984  1.00  0.00    -0.650 NA 
HETATM   22  C   UNL     1     -10.746  19.783  66.877  1.00  0.00    -0.421 C  
HETATM   23  H   UNL     1     -10.032  20.306  65.011  1.00  0.00     0.000 HD 
HETATM   24  C   UNL     1     -10.332  19.880  68.343  1.00  0.00    -0.507 C  
ENDBRANCH  17  18
ENDBRANCH   6  13
ENDBRANCH   3   4
ENDBRANCH   2   3
BRANCH   2  25
HETATM   25  C   UNL     1     -10.506  11.495  65.949  1.00  0.00    -0.303 A  
HETATM   26 CL   UNL     1      -8.998   9.438  64.853  1.00  0.00    -0.253 Cl 
HETATM   27  C   UNL     1     -11.417  12.562  65.741  1.00  0.00    -0.365 A  
HETATM   28 CL   UNL     1     -12.156  13.431  67.047  1.00  0.00    -0.416 Cl 
HETATM   29  F   UNL     1      -9.922  10.658  62.420  1.00  0.00    -0.226 F  
HETATM   30  C   UNL     1     -11.796  12.968  64.454  1.00  0.00    -0.443 A  
HETATM   31  C   UNL     1     -11.278  12.327  63.339  1.00  0.00    -0.497 A  
HETATM   32  C   UNL     1     -10.023  10.834  64.798  1.00  0.00    -0.320 A  
HETATM   33  C   UNL     1     -10.399  11.268  63.516  1.00  0.00    -0.408 A  
ENDBRANCH   2  25
TORSDOF 5
ENDMDL
MODEL       26
REMARK 921   NORMALIZED FREE ENERGY PREDICTED BY IDOCK:   -7.19 KCAL/MOL
REMARK 922        TOTAL FREE ENERGY PREDICTED BY IDOCK:   -9.97 KCAL/MOL
REMARK 923 INTER-LIGAND FREE ENERGY PREDICTED BY IDOCK:   -9.49 KCAL/MOL
REMARK 924 INTRA-LIGAND FREE ENERGY PREDICTED BY IDOCK:   -0.47 KCAL/MOL
REMARK 927      BINDING AFFINITY PREDICTED BY RF-SCORE:    0.00 PKD
ROOT
HETATM    1  C   UNL     1     -11.316  16.578  68.756  1.00  0.00    -0.221 C  
HETATM    2  C   UNL     1     -10.118  16.381  67.826  1.00  0.00    -0.262 C  
ENDROOT
BRANCH   2   3
HETATM    3  O   UNL     1     -10.641  16.274  66.500  1.00  0.00    -0.308 OA 
BRANCH   3   4
HETATM    4  C   UNL     1     -11.224  15.117  66.072  1.00  0.00    -0.275 A  
HETATM    5  C   UNL     1     -12.165  12.646  65.414  1.00  0.00    -0.459 A  
HETATM    6  C   UNL     1     -11.448  12.763  66.599  1.00  0.00    -0.404 A  
HETATM    7  H1  UNL     1     -12.669  15.670  63.048  1.00  0.00     0.000 HD 
HETATM    8  N   UNL     1     -12.419  13.669  64.565  1.00  0.00    -0.618 NA 
HETATM    9  C   UNL     1     -10.979  14.031  66.923  1.00  0.00    -0.301 A  
HETATM   10  C   UNL     1     -11.927  14.879  64.890  1.00  0.00    -0.306 A  
HETATM   11  H2  UNL     1     -11.248  16.224  63.648  1.00  0.00     0.000 HD 
HETATM   12  N   UNL     1     -12.156  15.843  63.912  1.00  0.00    -0.750 NA 
BRANCH   6  13
HETATM   13  C   UNL     1     -11.176  11.599  67.414  1.00  0.00    -0.358 A  
HETATM   14  N   UNL     1     -11.217  10.097  69.125  1.00  0.00    -0.211 NA 
HETATM   15  C   UNL     1     -11.723  11.235  68.660  1.00  0.00    -0.324 A  
HETATM   16  C   UNL     1     -10.287  10.582  67.124  1.00  0.00    -0.235 A  
HETATM   17  N   UNL     1     -10.329   9.721  68.189  1.00  0.00    -0.191 NA 
BRANCH  17  18
HETATM   18  C   UNL     1      -9.513   8.523  68.386  1.00  0.00    -0.135 C  
HETATM   19  C   UNL     1     -10.361   7.264  68.613  1.00  0.00    -0.208 C  
HETATM   20  C   UNL     1     -10.958   6.720  67.315  1.00  0.00    -0.363 C  
HETATM   21  N   UNL     1      -9.933   6.500  66.293  1.00  0.00    -0.404 NA 
HETATM   22  C   UNL     1      -9.179   7.719  65.998  1.00  0.00    -0.082 C  
HETATM   23  H   UNL     1     -10.336   6.101  65.446  1.00  0.00     0.000 HD 
HETATM   24  C   UNL     1      -8.513   8.294  67.246  1.00  0.00    -0.124 C  
ENDBRANCH  17  18
ENDBRANCH   6  13
ENDBRANCH   3   4
ENDBRANCH   2   3
BRANCH   2  25
HETATM   25  C   UNL     1      -9.121  17.531  67.980  1.00  0.00    -0.269 A  
HETATM   26 CL   UNL     1     -10.835  19.352  66.777  1.00  0.00    -0.534 Cl 
HETATM   27  C   UNL     1      -7.897  17.297  68.658  1.00  0.00    -0.272 A  
HETATM   28 CL   UNL     1      -7.486  15.759  69.346  1.00  0.00    -0.221 Cl 
HETATM   29  F   UNL     1      -8.590  21.088  67.231  1.00  0.00    -0.400 F  
HETATM   30  C   UNL     1      -6.946  18.311  68.835  1.00  0.00    -0.289 A  
HETATM   31  C   UNL     1      -7.183  19.585  68.340  1.00  0.00    -0.354 A  
HETATM   32  C   UNL     1      -9.354  18.846  67.520  1.00  0.00    -0.294 A  
HETATM   33  C   UNL     1      -8.381  19.844  67.690  1.00  0.00    -0.321 A  
ENDBRANCH   2  25
TORSDOF 5
ENDMDL
MODEL       27
REMARK 921   NORMALIZED FREE ENERGY PREDICTED BY IDOCK:   -7.12 KCAL/MOL
REMARK 922        TOTAL FREE ENERGY PREDICTED BY IDOCK:   -9.88 KCAL/MOL
REMARK 923 INTER-LIGAND FREE ENERGY PREDICTED BY IDOCK:   -9.03 KCAL/MOL
REMARK 924 INTRA-LIGAND FREE ENERGY PREDICTED BY IDOCK:   -0.84 KCAL/MOL
REMARK 927      BINDING AFFINITY PREDICTED BY RF-SCORE:    0.00 PKD
ROOT
HETATM    1  C   UNL     1      -8.647  10.892  69.305  1.00  0.00     0.005 C  
HETATM    2  C   UNL     1     -10.017  11.397  68.851  1.00  0.00    -0.131 C  
ENDROOT
BRANCH   2   3
HETATM    3  O   UNL     1     -10.265  10.815  67.570  1.00  0.00    -0.183 OA 
BRANCH   3   4
HETATM    4  C   UNL     1     -10.194  11.569  66.435  1.00  0.00    -0.224 A  
HETATM    5  C   UNL     1     -10.209  13.318  64.346  1.00  0.00    -0.277 A  
HETATM    6  C   UNL     1     -10.346  13.846  65.624  1.00  0.00    -0.337 A  
HETATM    7  H1  UNL     1      -9.981   9.498  63.751  1.00  0.00     0.000 HD 
HETATM    8  N   UNL     1     -10.077  11.999  64.069  1.00  0.00    -0.331 NA 
HETATM    9  C   UNL     1     -10.332  12.942  66.680  1.00  0.00    -0.258 A  
HETATM   10  C   UNL     1     -10.096  11.144  65.109  1.00  0.00    -0.281 A  
HETATM   11  H2  UNL     1     -10.871   9.352  65.121  1.00  0.00     0.000 HD 
HETATM   12  N   UNL     1     -10.052   9.808  64.720  1.00  0.00     0.039 NA 
BRANCH   6  13
HETATM   13  C   UNL     1     -10.541  15.267  65.817  1.00  0.00    -0.359 A  
HETATM   14  N   UNL     1     -10.864  17.483  65.403  1.00  0.00    -0.483 NA 
HETATM   15  C   UNL     1     -10.741  16.278  64.856  1.00  0.00    -0.234 A  
HETATM   16  C   UNL     1     -10.562  15.938  67.024  1.00  0.00    -0.306 A  
HETATM   17  N   UNL     1     -10.733  17.264  66.723  1.00  0.00    -0.170 NA 
BRANCH  17  18
HETATM   18  C   UNL     1     -10.749  18.386  67.662  1.00  0.00    -0.357 C  
HETATM   19  C   UNL     1      -9.798  18.173  68.848  1.00  0.00    -0.322 C  
HETATM   20  C   UNL     1      -8.336  18.422  68.477  1.00  0.00    -0.323 C  
HETATM   21  N   UNL     1      -8.145  19.738  67.865  1.00  0.00    -0.298 NA 
HETATM   22  C   UNL     1      -8.977  19.918  66.674  1.00  0.00    -0.372 C  
HETATM   23  H   UNL     1      -7.161  19.909  67.657  1.00  0.00     0.000 HD 
HETATM   24  C   UNL     1     -10.461  19.730  66.982  1.00  0.00    -0.595 C  
ENDBRANCH  17  18
ENDBRANCH   6  13
ENDBRANCH   3   4
ENDBRANCH   2   3
BRANCH   2  25
HETATM   25  C   UNL     1     -11.090  11.044  69.883  1.00  0.00    -0.276 A  
HETATM   26 CL   UNL     1     -11.966  13.671  70.065  1.00  0.00    -0.398 Cl 
HETATM   27  C   UNL     1     -11.272   9.686  70.252  1.00  0.00    -0.271 A  
HETATM   28 CL   UNL     1     -10.341   8.395  69.564  1.00  0.00    -0.216 Cl 
HETATM   29  F   UNL     1     -13.716  12.483  72.011  1.00  0.00    -0.502 F  
HETATM   30  C   UNL     1     -12.242   9.300  71.188  1.00  0.00    -0.373 A  
HETATM   31  C   UNL     1     -13.054  10.252  71.785  1.00  0.00    -0.570 A  
HETATM   32  C   UNL     1     -11.957  11.989  70.477  1.00  0.00    -0.246 A  
HETATM   33  C   UNL     1     -12.909  11.584  71.427  1.00  0.00    -0.384 A  
ENDBRANCH   2  25
TORSDOF 5
ENDMDL
MODEL       28
REMARK 921   NORMALIZED FREE ENERGY PREDICTED BY IDOCK:   -7.12 KCAL/MOL
REMARK 922        TOTAL FREE ENERGY PREDICTED BY IDOCK:   -9.87 KCAL/MOL
REMARK 923 INTER-LIGAND FREE ENERGY PREDICTED BY IDOCK:   -9.08 KCAL/MOL
REMARK 924 INTRA-LIGAND FREE ENERGY PREDICTED BY IDOCK:   -0.79 KCAL/MOL
REMARK 927      BINDING AFFINITY PREDICTED BY RF-SCORE:    0.00 PKD
ROOT
HETATM    1  C   UNL     1     -10.243   9.544  67.314  1.00  0.00    -0.295 C  
HETATM    2  C   UNL     1     -10.052  11.061  67.275  1.00  0.00    -0.189 C  
ENDROOT
BRANCH   2   3
HETATM    3  O   UNL     1      -8.648  11.295  67.154  1.00  0.00    -0.139 OA 
BRANCH   3   4
HETATM    4  C   UNL     1      -8.019  12.197  67.962  1.00  0.00    -0.152 A  
HETATM    5  C   UNL     1      -6.934  14.237  69.407  1.00  0.00    -0.106 A  
HETATM    6  C   UNL     1      -8.136  14.483  68.752  1.00  0.00    -0.146 A  
HETATM    7  H1  UNL     1      -5.105  10.840  69.063  1.00  0.00     0.000 HD 
HETATM    8  N   UNL     1      -6.266  13.060  69.369  1.00  0.00    -0.107 NA 
HETATM    9  C   UNL     1      -8.678  13.431  68.023  1.00  0.00    -0.178 A  
HETATM   10  C   UNL     1      -6.800  12.069  68.631  1.00  0.00    -0.091 A  
HETATM   11  H2  UNL     1      -5.818  10.742  67.589  1.00  0.00     0.000 HD 
HETATM   12  N   UNL     1      -5.996  10.934  68.575  1.00  0.00    -0.043 NA 
BRANCH   6  13
HETATM   13  C   UNL     1      -8.747  15.794  68.803  1.00  0.00    -0.203 A  
HETATM   14  N   UNL     1     -10.290  17.456  69.007  1.00  0.00    -0.349 NA 
HETATM   15  C   UNL     1     -10.087  16.144  69.062  1.00  0.00    -0.247 A  
HETATM   16  C   UNL     1      -8.115  17.004  68.592  1.00  0.00    -0.254 A  
HETATM   17  N   UNL     1      -9.085  17.967  68.699  1.00  0.00    -0.282 NA 
BRANCH  17  18
HETATM   18  C   UNL     1      -8.926  19.405  68.487  1.00  0.00    -0.370 C  
HETATM   19  C   UNL     1      -7.643  19.748  67.716  1.00  0.00    -0.321 C  
HETATM   20  C   UNL     1      -7.773  19.476  66.216  1.00  0.00    -0.308 C  
HETATM   21  N   UNL     1      -8.941  20.145  65.640  1.00  0.00    -0.478 NA 
HETATM   22  C   UNL     1     -10.185  19.753  66.305  1.00  0.00    -0.509 C  
HETATM   23  H   UNL     1      -8.996  19.989  64.634  1.00  0.00     0.000 HD 
HETATM   24  C   UNL     1     -10.144  20.040  67.805  1.00  0.00    -0.563 C  
ENDBRANCH  17  18
ENDBRANCH   6  13
ENDBRANCH   3   4
ENDBRANCH   2   3
BRANCH   2  25
HETATM   25  C   UNL     1     -10.858  11.676  66.129  1.00  0.00    -0.343 A  
HETATM   26 CL   UNL     1     -12.153  13.455  67.821  1.00  0.00    -0.348 Cl 
HETATM   27  C   UNL     1     -10.622  11.232  64.803  1.00  0.00    -0.312 A  
HETATM   28 CL   UNL     1      -9.433  10.030  64.415  1.00  0.00    -0.352 Cl 
HETATM   29  F   UNL     1     -13.448  14.164  65.356  1.00  0.00    -0.436 F  
HETATM   30  C   UNL     1     -11.325  11.761  63.711  1.00  0.00    -0.524 A  
HETATM   31  C   UNL     1     -12.285  12.742  63.909  1.00  0.00    -0.543 A  
HETATM   32  C   UNL     1     -11.814  12.703  66.298  1.00  0.00    -0.410 A  
HETATM   33  C   UNL     1     -12.522  13.206  65.195  1.00  0.00    -0.483 A  
ENDBRANCH   2  25
TORSDOF 5
ENDMDL
MODEL       29
REMARK 921   NORMALIZED FREE ENERGY PREDICTED BY IDOCK:   -7.12 KCAL/MOL
REMARK 922        TOTAL FREE ENERGY PREDICTED BY IDOCK:   -9.87 KCAL/MOL
REMARK 923 INTER-LIGAND FREE ENERGY PREDICTED BY IDOCK:   -8.87 KCAL/MOL
REMARK 924 INTRA-LIGAND FREE ENERGY PREDICTED BY IDOCK:   -0.99 KCAL/MOL
REMARK 927      BINDING AFFINITY PREDICTED BY RF-SCORE:    0.00 PKD
ROOT
HETATM    1  C   UNL     1     -10.528   8.710  66.813  1.00  0.00    -0.298 C  
HETATM    2  C   UNL     1     -10.313  10.060  67.498  1.00  0.00    -0.232 C  
ENDROOT
BRANCH   2   3
HETATM    3  O   UNL     1     -11.587  10.478  67.990  1.00  0.00    -0.442 OA 
BRANCH   3   4
HETATM    4  C   UNL     1     -11.755  11.724  68.522  1.00  0.00    -0.330 A  
HETATM    5  C   UNL     1     -11.877  14.319  69.342  1.00  0.00    -0.326 A  
HETATM    6  C   UNL     1     -11.470  14.079  68.035  1.00  0.00    -0.342 A  
HETATM    7  H1  UNL     1     -12.650  11.414  71.784  1.00  0.00     0.000 HD 
HETATM    8  N   UNL     1     -12.208  13.355  70.234  1.00  0.00    -0.346 NA 
HETATM    9  C   UNL     1     -11.417  12.750  67.630  1.00  0.00    -0.387 A  
HETATM   10  C   UNL     1     -12.119  12.076  69.823  1.00  0.00    -0.248 A  
HETATM   11  H2  UNL     1     -11.571  10.548  70.906  1.00  0.00     0.000 HD 
HETATM   12  N   UNL     1     -12.385  11.157  70.834  1.00  0.00    -0.387 NA 
BRANCH   6  13
HETATM   13  C   UNL     1     -11.078  15.174  67.173  1.00  0.00    -0.335 A  
HETATM   14  N   UNL     1     -10.488  16.370  65.328  1.00  0.00    -0.627 NA 
HETATM   15  C   UNL     1     -10.860  15.177  65.781  1.00  0.00    -0.353 A  
HETATM   16  C   UNL     1     -10.825  16.475  67.560  1.00  0.00    -0.237 A  
HETATM   17  N   UNL     1     -10.451  17.146  66.425  1.00  0.00    -0.293 NA 
BRANCH  17  18
HETATM   18  C   UNL     1     -10.013  18.539  66.329  1.00  0.00    -0.365 C  
HETATM   19  C   UNL     1     -10.599  19.418  67.443  1.00  0.00    -0.603 C  
HETATM   20  C   UNL     1      -9.885  19.219  68.780  1.00  0.00    -0.447 C  
HETATM   21  N   UNL     1      -8.438  19.401  68.658  1.00  0.00    -0.364 NA 
HETATM   22  C   UNL     1      -7.851  18.499  67.665  1.00  0.00    -0.234 C  
HETATM   23  H   UNL     1      -7.976  19.305  69.562  1.00  0.00     0.000 HD 
HETATM   24  C   UNL     1      -8.487  18.677  66.288  1.00  0.00    -0.241 C  
ENDBRANCH  17  18
ENDBRANCH   6  13
ENDBRANCH   3   4
ENDBRANCH   2   3
BRANCH   2  25
HETATM   25  C   UNL     1      -9.259   9.942  68.600  1.00  0.00    -0.139 A  
HETATM   26 CL   UNL     1     -10.792   8.142  70.055  1.00  0.00    -0.247 Cl 
HETATM   27  C   UNL     1      -8.028  10.632  68.455  1.00  0.00    -0.120 A  
HETATM   28 CL   UNL     1      -7.651  11.592  67.061  1.00  0.00    -0.151 Cl 
HETATM   29  F   UNL     1      -8.555   8.369  71.845  1.00  0.00    -0.159 F  
HETATM   30  C   UNL     1      -7.022  10.560  69.428  1.00  0.00    -0.099 A  
HETATM   31  C   UNL     1      -7.213   9.802  70.575  1.00  0.00    -0.130 A  
HETATM   32  C   UNL     1      -9.412   9.147  69.758  1.00  0.00    -0.182 A  
HETATM   33  C   UNL     1      -8.401   9.103  70.732  1.00  0.00    -0.208 A  
ENDBRANCH   2  25
TORSDOF 5
ENDMDL
MODEL       30
REMARK 921   NORMALIZED FREE ENERGY PREDICTED BY IDOCK:   -7.11 KCAL/MOL
REMARK 922        TOTAL FREE ENERGY PREDICTED BY IDOCK:   -9.86 KCAL/MOL
REMARK 923 INTER-LIGAND FREE ENERGY PREDICTED BY IDOCK:   -8.84 KCAL/MOL
REMARK 924 INTRA-LIGAND FREE ENERGY PREDICTED BY IDOCK:   -1.03 KCAL/MOL
REMARK 927      BINDING AFFINITY PREDICTED BY RF-SCORE:    0.00 PKD
ROOT
HETATM    1  C   UNL     1     -12.953  13.841  65.705  1.00  0.00    -0.346 C  
HETATM    2  C   UNL     1     -11.914  13.458  66.760  1.00  0.00    -0.394 C  
ENDROOT
BRANCH   2   3
HETATM    3  O   UNL     1     -10.868  12.767  66.074  1.00  0.00    -0.270 OA 
BRANCH   3   4
HETATM    4  C   UNL     1     -10.637  11.442  66.308  1.00  0.00    -0.263 A  
HETATM    5  C   UNL     1     -10.162   8.880  67.102  1.00  0.00    -0.269 A  
HETATM    6  C   UNL     1     -10.679   9.758  68.048  1.00  0.00    -0.298 A  
HETATM    7  H1  UNL     1      -9.271  10.058  63.522  1.00  0.00     0.000 HD 
HETATM    8  N   UNL     1      -9.873   9.211  65.822  1.00  0.00    -0.258 NA 
HETATM    9  C   UNL     1     -10.920  11.061  67.625  1.00  0.00    -0.332 A  
HETATM   10  C   UNL     1     -10.089  10.487  65.450  1.00  0.00    -0.291 A  
HETATM   11  H2  UNL     1      -9.008  11.528  64.200  1.00  0.00     0.000 HD 
HETATM   12  N   UNL     1      -9.672  10.756  64.149  1.00  0.00    -0.281 NA 
BRANCH   6  13
HETATM   13  C   UNL     1     -10.900   9.326  69.411  1.00  0.00    -0.184 A  
HETATM   14  N   UNL     1     -11.293   9.356  71.654  1.00  0.00    -0.389 NA 
HETATM   15  C   UNL     1     -11.163  10.099  70.559  1.00  0.00    -0.336 A  
HETATM   16  C   UNL     1     -10.890   8.025  69.873  1.00  0.00    -0.217 A  
HETATM   17  N   UNL     1     -11.105   8.096  71.225  1.00  0.00    -0.243 NA 
BRANCH  17  18
HETATM   18  C   UNL     1     -11.111   6.984  72.176  1.00  0.00    -0.245 C  
HETATM   19  C   UNL     1     -10.296   5.781  71.679  1.00  0.00    -0.266 C  
HETATM   20  C   UNL     1      -8.790   5.991  71.836  1.00  0.00    -0.138 C  
HETATM   21  N   UNL     1      -8.429   6.354  73.208  1.00  0.00    -0.122 NA 
HETATM   22  C   UNL     1      -9.129   7.558  73.661  1.00  0.00    -0.255 C  
HETATM   23  H   UNL     1      -7.420   6.453  73.311  1.00  0.00     0.000 HD 
HETATM   24  C   UNL     1     -10.645   7.402  73.576  1.00  0.00    -0.388 C  
ENDBRANCH  17  18
ENDBRANCH   6  13
ENDBRANCH   3   4
ENDBRANCH   2   3
BRANCH   2  25
HETATM   25  C   UNL     1     -11.418  14.701  67.502  1.00  0.00    -0.378 A  
HETATM   26 CL   UNL     1     -10.752  16.005  65.144  1.00  0.00    -0.451 Cl 
HETATM   27  C   UNL     1     -11.540  14.755  68.914  1.00  0.00    -0.313 A  
HETATM   28 CL   UNL     1     -12.253  13.476  69.843  1.00  0.00    -0.377 Cl 
HETATM   29  F   UNL     1      -9.885  18.004  67.018  1.00  0.00    -0.279 F  
HETATM   30  C   UNL     1     -11.108  15.868  69.650  1.00  0.00    -0.320 A  
HETATM   31  C   UNL     1     -10.541  16.955  69.002  1.00  0.00    -0.338 A  
HETATM   32  C   UNL     1     -10.872  15.837  66.864  1.00  0.00    -0.265 A  
HETATM   33  C   UNL     1     -10.427  16.934  67.620  1.00  0.00    -0.332 A  
ENDBRANCH   2  25
TORSDOF 5
ENDMDL
MODEL       31
REMARK 921   NORMALIZED FREE ENERGY PREDICTED BY IDOCK:   -7.10 KCAL/MOL
REMARK 922        TOTAL FREE ENERGY PREDICTED BY IDOCK:   -9.84 KCAL/MOL
REMARK 923 INTER-LIGAND FREE ENERGY PREDICTED BY IDOCK:   -9.14 KCAL/MOL
REMARK 924 INTRA-LIGAND FREE ENERGY PREDICTED BY IDOCK:   -0.70 KCAL/MOL
REMARK 927      BINDING AFFINITY PREDICTED BY RF-SCORE:    0.00 PKD
ROOT
HETATM    1  C   UNL     1      -9.924  12.320  68.753  1.00  0.00    -0.048 C  
HETATM    2  C   UNL     1     -11.166  13.097  68.314  1.00  0.00    -0.274 C  
ENDROOT
BRANCH   2   3
HETATM    3  O   UNL     1     -11.942  12.208  67.509  1.00  0.00    -0.544 OA 
BRANCH   3   4
HETATM    4  C   UNL     1     -11.821  12.213  66.149  1.00  0.00    -0.254 A  
HETATM    5  C   UNL     1     -11.280  12.072  63.483  1.00  0.00    -0.445 A  
HETATM    6  C   UNL     1     -10.603  11.194  64.321  1.00  0.00    -0.425 A  
HETATM    7  H1  UNL     1     -13.718  14.733  64.887  1.00  0.00     0.000 HD 
HETATM    8  N   UNL     1     -12.180  12.993  63.900  1.00  0.00    -0.567 NA 
HETATM    9  C   UNL     1     -10.894  11.275  65.678  1.00  0.00    -0.242 A  
HETATM   10  C   UNL     1     -12.419  13.069  65.223  1.00  0.00    -0.499 A  
HETATM   11  H2  UNL     1     -12.793  14.693  66.240  1.00  0.00     0.000 HD 
HETATM   12  N   UNL     1     -13.282  14.107  65.564  1.00  0.00    -0.597 NA 
BRANCH   6  13
HETATM   13  C   UNL     1      -9.614  10.282  63.788  1.00  0.00    -0.344 A  
HETATM   14  N   UNL     1      -8.266   9.158  62.338  1.00  0.00    -0.148 NA 
HETATM   15  C   UNL     1      -9.184  10.111  62.457  1.00  0.00    -0.300 A  
HETATM   16  C   UNL     1      -8.876   9.359  64.504  1.00  0.00    -0.198 A  
HETATM   17  N   UNL     1      -8.102   8.694  63.589  1.00  0.00    -0.161 NA 
BRANCH  17  18
HETATM   18  C   UNL     1      -7.199   7.573  63.848  1.00  0.00    -0.082 C  
HETATM   19  C   UNL     1      -7.444   6.926  65.219  1.00  0.00    -0.089 C  
HETATM   20  C   UNL     1      -8.674   6.018  65.225  1.00  0.00    -0.047 C  
HETATM   21  N   UNL     1      -8.618   5.016  64.160  1.00  0.00    -0.166 NA 
HETATM   22  C   UNL     1      -8.481   5.625  62.835  1.00  0.00    -0.027 C  
HETATM   23  H   UNL     1      -9.424   4.392  64.197  1.00  0.00     0.000 HD 
HETATM   24  C   UNL     1      -7.241   6.512  62.742  1.00  0.00    -0.053 C  
ENDBRANCH  17  18
ENDBRANCH   6  13
ENDBRANCH   3   4
ENDBRANCH   2   3
BRANCH   2  25
HETATM   25  C   UNL     1     -11.932  13.621  69.530  1.00  0.00    -0.397 A  
HETATM   26 CL   UNL     1     -12.388  11.063  70.507  1.00  0.00    -0.438 Cl 
HETATM   27  C   UNL     1     -12.040  15.021  69.728  1.00  0.00    -0.314 A  
HETATM   28 CL   UNL     1     -11.317  16.177  68.656  1.00  0.00    -0.370 Cl 
HETATM   29  F   UNL     1     -13.795  12.563  72.515  1.00  0.00    -0.590 F  
HETATM   30  C   UNL     1     -12.725  15.561  70.825  1.00  0.00    -0.511 A  
HETATM   31  C   UNL     1     -13.324  14.723  71.755  1.00  0.00    -0.444 A  
HETATM   32  C   UNL     1     -12.517  12.790  70.512  1.00  0.00    -0.202 A  
HETATM   33  C   UNL     1     -13.216  13.350  71.594  1.00  0.00    -0.364 A  
ENDBRANCH   2  25
TORSDOF 5
ENDMDL
MODEL       32
REMARK 921   NORMALIZED FREE ENERGY PREDICTED BY IDOCK:   -7.09 KCAL/MOL
REMARK 922        TOTAL FREE ENERGY PREDICTED BY IDOCK:   -9.83 KCAL/MOL
REMARK 923 INTER-LIGAND FREE ENERGY PREDICTED BY IDOCK:   -9.25 KCAL/MOL
REMARK 924 INTRA-LIGAND FREE ENERGY PREDICTED BY IDOCK:   -0.58 KCAL/MOL
REMARK 927      BINDING AFFINITY PREDICTED BY RF-SCORE:    0.00 PKD
ROOT
HETATM    1  C   UNL     1     -11.284  16.225  68.081  1.00  0.00    -0.298 C  
HETATM    2  C   UNL     1      -9.912  16.064  67.426  1.00  0.00    -0.241 C  
ENDROOT
BRANCH   2   3
HETATM    3  O   UNL     1     -10.139  15.950  66.020  1.00  0.00    -0.291 OA 
BRANCH   3   4
HETATM    4  C   UNL     1     -10.860  14.908  65.512  1.00  0.00    -0.356 A  
HETATM    5  C   UNL     1     -12.040  12.631  64.592  1.00  0.00    -0.420 A  
HETATM    6  C   UNL     1     -11.045  12.493  65.553  1.00  0.00    -0.336 A  
HETATM    7  H1  UNL     1     -12.992  16.097  63.149  1.00  0.00     0.000 HD 
HETATM    8  N   UNL     1     -12.455  13.813  64.079  1.00  0.00    -0.705 NA 
HETATM    9  C   UNL     1     -10.456  13.665  66.015  1.00  0.00    -0.300 A  
HETATM   10  C   UNL     1     -11.846  14.928  64.524  1.00  0.00    -0.396 A  
HETATM   11  H2  UNL     1     -11.442  16.524  63.475  1.00  0.00     0.000 HD 
HETATM   12  N   UNL     1     -12.271  16.082  63.871  1.00  0.00    -0.803 NA 
BRANCH   6  13
HETATM   13  C   UNL     1     -10.627  11.181  65.998  1.00  0.00    -0.298 A  
HETATM   14  N   UNL     1      -9.727   9.090  66.024  1.00  0.00    -0.278 NA 
HETATM   15  C   UNL     1      -9.918  10.186  65.297  1.00  0.00    -0.311 A  
HETATM   16  C   UNL     1     -10.858  10.622  67.240  1.00  0.00    -0.287 A  
HETATM   17  N   UNL     1     -10.323   9.362  67.198  1.00  0.00    -0.251 NA 
BRANCH  17  18
HETATM   18  C   UNL     1     -10.376   8.347  68.251  1.00  0.00    -0.199 C  
HETATM   19  C   UNL     1      -9.039   7.613  68.427  1.00  0.00    -0.130 C  
HETATM   20  C   UNL     1      -8.012   8.446  69.196  1.00  0.00    -0.110 C  
HETATM   21  N   UNL     1      -8.540   8.917  70.477  1.00  0.00    -0.164 NA 
HETATM   22  C   UNL     1      -9.765   9.701  70.314  1.00  0.00    -0.259 C  
HETATM   23  H   UNL     1      -7.835   9.438  70.998  1.00  0.00     0.000 HD 
HETATM   24  C   UNL     1     -10.856   8.911  69.593  1.00  0.00    -0.186 C  
ENDBRANCH  17  18
ENDBRANCH   6  13
ENDBRANCH   3   4
ENDBRANCH   2   3
BRANCH   2  25
HETATM   25  C   UNL     1      -9.001  17.239  67.787  1.00  0.00    -0.234 A  
HETATM   26 CL   UNL     1      -7.313  15.636  69.300  1.00  0.00    -0.193 Cl 
HETATM   27  C   UNL     1      -9.268  18.516  67.230  1.00  0.00    -0.276 A  
HETATM   28 CL   UNL     1     -10.577  18.803  66.129  1.00  0.00    -0.472 Cl 
HETATM   29  F   UNL     1      -6.025  18.169  69.731  1.00  0.00    -0.216 F  
HETATM   30  C   UNL     1      -8.467  19.630  67.519  1.00  0.00    -0.346 A  
HETATM   31  C   UNL     1      -7.381  19.505  68.374  1.00  0.00    -0.352 A  
HETATM   32  C   UNL     1      -7.867  17.132  68.623  1.00  0.00    -0.265 A  
HETATM   33  C   UNL     1      -7.089  18.263  68.917  1.00  0.00    -0.274 A  
ENDBRANCH   2  25
TORSDOF 5
ENDMDL
MODEL       33
REMARK 921   NORMALIZED FREE ENERGY PREDICTED BY IDOCK:   -7.07 KCAL/MOL
REMARK 922        TOTAL FREE ENERGY PREDICTED BY IDOCK:   -9.81 KCAL/MOL
REMARK 923 INTER-LIGAND FREE ENERGY PREDICTED BY IDOCK:   -8.63 KCAL/MOL
REMARK 924 INTRA-LIGAND FREE ENERGY PREDICTED BY IDOCK:   -1.18 KCAL/MOL
REMARK 927      BINDING AFFINITY PREDICTED BY RF-SCORE:    0.00 PKD
ROOT
HETATM    1  C   UNL     1      -9.194   8.555  71.812  1.00  0.00    -0.316 C  
HETATM    2  C   UNL     1     -10.082   8.600  70.568  1.00  0.00    -0.196 C  
ENDROOT
BRANCH   2   3
HETATM    3  O   UNL     1      -9.645   7.541  69.714  1.00  0.00    -0.163 OA 
BRANCH   3   4
HETATM    4  C   UNL     1      -9.259   7.795  68.429  1.00  0.00    -0.137 A  
HETATM    5  C   UNL     1      -8.763   8.500  65.845  1.00  0.00    -0.174 A  
HETATM    6  C   UNL     1      -9.584   9.337  66.590  1.00  0.00    -0.263 A  
HETATM    7  H1  UNL     1      -7.364   5.203  67.320  1.00  0.00     0.000 HD 
HETATM    8  N   UNL     1      -8.202   7.359  66.310  1.00  0.00    -0.120 NA 
HETATM    9  C   UNL     1      -9.824   8.966  67.909  1.00  0.00    -0.205 A  
HETATM   10  C   UNL     1      -8.476   7.010  67.582  1.00  0.00    -0.123 A  
HETATM   11  H2  UNL     1      -8.708   5.194  68.259  1.00  0.00     0.000 HD 
HETATM   12  N   UNL     1      -7.936   5.778  67.939  1.00  0.00    -0.097 NA 
BRANCH   6  13
HETATM   13  C   UNL     1     -10.187  10.506  65.987  1.00  0.00    -0.310 A  
HETATM   14  N   UNL     1     -10.708  12.147  64.496  1.00  0.00    -0.292 NA 
HETATM   15  C   UNL     1      -9.996  11.043  64.698  1.00  0.00    -0.301 A  
HETATM   16  C   UNL     1     -11.094  11.363  66.580  1.00  0.00    -0.251 A  
HETATM   17  N   UNL     1     -11.357  12.342  65.658  1.00  0.00    -0.337 NA 
BRANCH  17  18
HETATM   18  C   UNL     1     -12.204  13.520  65.841  1.00  0.00    -0.460 C  
HETATM   19  C   UNL     1     -12.077  14.124  67.246  1.00  0.00    -0.407 C  
HETATM   20  C   UNL     1     -10.795  14.941  67.417  1.00  0.00    -0.304 C  
HETATM   21  N   UNL     1     -10.658  15.964  66.378  1.00  0.00    -0.309 NA 
HETATM   22  C   UNL     1     -10.682  15.389  65.032  1.00  0.00    -0.438 C  
HETATM   23  H   UNL     1      -9.821  16.528  66.524  1.00  0.00     0.000 HD 
HETATM   24  C   UNL     1     -11.961  14.595  64.774  1.00  0.00    -0.439 C  
ENDBRANCH  17  18
ENDBRANCH   6  13
ENDBRANCH   3   4
ENDBRANCH   2   3
BRANCH   2  25
HETATM   25  C   UNL     1     -11.557   8.481  70.955  1.00  0.00    -0.317 A  
HETATM   26 CL   UNL     1     -11.311   5.788  71.583  1.00  0.00    -0.268 Cl 
HETATM   27  C   UNL     1     -12.372   9.642  70.934  1.00  0.00    -0.263 A  
HETATM   28 CL   UNL     1     -11.760  11.208  70.507  1.00  0.00    -0.428 Cl 
HETATM   29  F   UNL     1     -14.123   6.106  72.083  1.00  0.00    -0.252 F  
HETATM   30  C   UNL     1     -13.729   9.598  71.282  1.00  0.00    -0.222 A  
HETATM   31  C   UNL     1     -14.314   8.397  71.658  1.00  0.00    -0.536 A  
HETATM   32  C   UNL     1     -12.169   7.280  71.379  1.00  0.00    -0.349 A  
HETATM   33  C   UNL     1     -13.534   7.252  71.705  1.00  0.00    -0.354 A  
ENDBRANCH   2  25
TORSDOF 5
ENDMDL
MODEL       34
REMARK 921   NORMALIZED FREE ENERGY PREDICTED BY IDOCK:   -7.07 KCAL/MOL
REMARK 922        TOTAL FREE ENERGY PREDICTED BY IDOCK:   -9.80 KCAL/MOL
REMARK 923 INTER-LIGAND FREE ENERGY PREDICTED BY IDOCK:   -8.74 KCAL/MOL
REMARK 924 INTRA-LIGAND FREE ENERGY PREDICTED BY IDOCK:   -1.07 KCAL/MOL
REMARK 927      BINDING AFFINITY PREDICTED BY RF-SCORE:    0.00 PKD
ROOT
HETATM    1  C   UNL     1      -8.840   9.603  70.192  1.00  0.00    -0.266 C  
HETATM    2  C   UNL     1     -10.193   9.933  69.560  1.00  0.00    -0.225 C  
ENDROOT
BRANCH   2   3
HETATM    3  O   UNL     1     -10.229   9.267  68.296  1.00  0.00    -0.185 OA 
BRANCH   3   4
HETATM    4  C   UNL     1      -9.978   9.949  67.141  1.00  0.00    -0.200 A  
HETATM    5  C   UNL     1      -9.677  11.553  64.959  1.00  0.00    -0.238 A  
HETATM    6  C   UNL     1     -10.074  12.155  66.147  1.00  0.00    -0.251 A  
HETATM    7  H1  UNL     1      -9.175   7.721  64.705  1.00  0.00     0.000 HD 
HETATM    8  N   UNL     1      -9.438  10.229  64.811  1.00  0.00    -0.257 NA 
HETATM    9  C   UNL     1     -10.219  11.324  67.252  1.00  0.00    -0.226 A  
HETATM   10  C   UNL     1      -9.615   9.444  65.891  1.00  0.00    -0.270 A  
HETATM   11  H2  UNL     1     -10.300   7.616  65.894  1.00  0.00     0.000 HD 
HETATM   12  N   UNL     1      -9.440   8.090  65.618  1.00  0.00     0.127 NA 
BRANCH   6  13
HETATM   13  C   UNL     1     -10.364  13.573  66.193  1.00  0.00    -0.296 A  
HETATM   14  N   UNL     1     -10.836  15.707  65.556  1.00  0.00    -0.350 NA 
HETATM   15  C   UNL     1     -10.634  14.462  65.135  1.00  0.00    -0.410 A  
HETATM   16  C   UNL     1     -10.426  14.362  67.325  1.00  0.00    -0.269 A  
HETATM   17  N   UNL     1     -10.686  15.635  66.890  1.00  0.00    -0.313 NA 
BRANCH  17  18
HETATM   18  C   UNL     1     -10.775  16.845  67.708  1.00  0.00    -0.315 C  
HETATM   19  C   UNL     1     -10.026  16.710  69.040  1.00  0.00    -0.280 C  
HETATM   20  C   UNL     1      -8.512  16.855  68.877  1.00  0.00    -0.202 C  
HETATM   21  N   UNL     1      -8.154  18.093  68.183  1.00  0.00    -0.273 NA 
HETATM   22  C   UNL     1      -8.788  18.190  66.867  1.00  0.00    -0.267 C  
HETATM   23  H   UNL     1      -7.142  18.198  68.114  1.00  0.00     0.000 HD 
HETATM   24  C   UNL     1     -10.309  18.100  66.959  1.00  0.00    -0.391 C  
ENDBRANCH  17  18
ENDBRANCH   6  13
ENDBRANCH   3   4
ENDBRANCH   2   3
BRANCH   2  25
HETATM   25  C   UNL     1     -11.337   9.515  70.486  1.00  0.00    -0.343 A  
HETATM   26 CL   UNL     1     -10.519   6.862  70.513  1.00  0.00    -0.227 Cl 
HETATM   27  C   UNL     1     -12.219  10.507  70.985  1.00  0.00    -0.400 A  
HETATM   28 CL   UNL     1     -12.044  12.191  70.609  1.00  0.00    -0.422 Cl 
HETATM   29  F   UNL     1     -12.867   6.621  72.153  1.00  0.00    -0.335 F  
HETATM   30  C   UNL     1     -13.282  10.187  71.841  1.00  0.00    -0.557 A  
HETATM   31  C   UNL     1     -13.500   8.870  72.220  1.00  0.00    -0.503 A  
HETATM   32  C   UNL     1     -11.557   8.188  70.919  1.00  0.00    -0.267 A  
HETATM   33  C   UNL     1     -12.640   7.884  71.760  1.00  0.00    -0.328 A  
ENDBRANCH   2  25
TORSDOF 5
ENDMDL
MODEL       35
REMARK 921   NORMALIZED FREE ENERGY PREDICTED BY IDOCK:   -7.04 KCAL/MOL
REMARK 922        TOTAL FREE ENERGY PREDICTED BY IDOCK:   -9.76 KCAL/MOL
REMARK 923 INTER-LIGAND FREE ENERGY PREDICTED BY IDOCK:   -9.31 KCAL/MOL
REMARK 924 INTRA-LIGAND FREE ENERGY PREDICTED BY IDOCK:   -0.46 KCAL/MOL
REMARK 927      BINDING AFFINITY PREDICTED BY RF-SCORE:    0.00 PKD
ROOT
HETATM    1  C   UNL     1     -13.219   6.784  71.733  1.00  0.00    -0.212 C  
HETATM    2  C   UNL     1     -11.999   7.175  70.898  1.00  0.00    -0.334 C  
ENDROOT
BRANCH   2   3
HETATM    3  O   UNL     1     -11.332   8.220  71.609  1.00  0.00    -0.249 OA 
BRANCH   3   4
HETATM    4  C   UNL     1     -10.368   8.972  71.002  1.00  0.00    -0.278 A  
HETATM    5  C   UNL     1      -8.655  10.492  69.527  1.00  0.00    -0.029 A  
HETATM    6  C   UNL     1     -10.003  10.539  69.192  1.00  0.00    -0.236 A  
HETATM    7  H1  UNL     1      -7.349   8.169  72.337  1.00  0.00     0.000 HD 
HETATM    8  N   UNL     1      -8.137   9.741  70.527  1.00  0.00    -0.249 NA 
HETATM    9  C   UNL     1     -10.865   9.760  69.957  1.00  0.00    -0.319 A  
HETATM   10  C   UNL     1      -8.991   8.975  71.231  1.00  0.00    -0.211 A  
HETATM   11  H2  UNL     1      -8.622   7.204  71.967  1.00  0.00     0.000 HD 
HETATM   12  N   UNL     1      -8.355   8.167  72.170  1.00  0.00    -0.143 NA 
BRANCH   6  13
HETATM   13  C   UNL     1     -10.456  11.328  68.067  1.00  0.00    -0.215 A  
HETATM   14  N   UNL     1     -11.804  12.428  66.598  1.00  0.00    -0.563 NA 
HETATM   15  C   UNL     1     -11.765  11.716  67.720  1.00  0.00    -0.245 A  
HETATM   16  C   UNL     1      -9.667  11.869  67.072  1.00  0.00    -0.194 A  
HETATM   17  N   UNL     1     -10.521  12.496  66.203  1.00  0.00    -0.245 NA 
BRANCH  17  18
HETATM   18  C   UNL     1     -10.170  13.160  64.947  1.00  0.00    -0.287 C  
HETATM   19  C   UNL     1     -10.612  12.358  63.715  1.00  0.00    -0.486 C  
HETATM   20  C   UNL     1     -12.111  12.489  63.439  1.00  0.00    -0.529 C  
HETATM   21  N   UNL     1     -12.528  13.889  63.347  1.00  0.00    -1.110 NA 
HETATM   22  C   UNL     1     -12.198  14.644  64.557  1.00  0.00    -0.456 C  
HETATM   23  H   UNL     1     -13.520  13.965  63.124  1.00  0.00     0.000 HD 
HETATM   24  C   UNL     1     -10.703  14.596  64.868  1.00  0.00    -0.447 C  
ENDBRANCH  17  18
ENDBRANCH   6  13
ENDBRANCH   3   4
ENDBRANCH   2   3
BRANCH   2  25
HETATM   25  C   UNL     1     -11.103   5.959  70.652  1.00  0.00    -0.335 A  
HETATM   26 CL   UNL     1     -11.168   6.305  67.898  1.00  0.00    -0.351 Cl 
HETATM   27  C   UNL     1     -10.577   5.252  71.763  1.00  0.00    -0.201 A  
HETATM   28 CL   UNL     1     -10.886   5.723  73.404  1.00  0.00    -0.296 Cl 
HETATM   29  F   UNL     1      -9.568   3.921  68.009  1.00  0.00    -0.200 F  
HETATM   30  C   UNL     1      -9.748   4.134  71.602  1.00  0.00    -0.246 A  
HETATM   31  C   UNL     1      -9.422   3.685  70.330  1.00  0.00    -0.255 A  
HETATM   32  C   UNL     1     -10.724   5.504  69.369  1.00  0.00    -0.242 A  
HETATM   33  C   UNL     1      -9.908   4.370  69.227  1.00  0.00    -0.148 A  
ENDBRANCH   2  25
TORSDOF 5
ENDMDL
MODEL       36
REMARK 921   NORMALIZED FREE ENERGY PREDICTED BY IDOCK:   -7.03 KCAL/MOL
REMARK 922        TOTAL FREE ENERGY PREDICTED BY IDOCK:   -9.75 KCAL/MOL
REMARK 923 INTER-LIGAND FREE ENERGY PREDICTED BY IDOCK:   -8.66 KCAL/MOL
REMARK 924 INTRA-LIGAND FREE ENERGY PREDICTED BY IDOCK:   -1.10 KCAL/MOL
REMARK 927      BINDING AFFINITY PREDICTED BY RF-SCORE:    0.00 PKD
ROOT
HETATM    1  C   UNL     1     -12.769  12.802  64.898  1.00  0.00    -0.479 C  
HETATM    2  C   UNL     1     -11.670  12.493  65.915  1.00  0.00    -0.426 C  
ENDROOT
BRANCH   2   3
HETATM    3  O   UNL     1     -10.485  12.213  65.168  1.00  0.00    -0.263 OA 
BRANCH   3   4
HETATM    4  C   UNL     1      -9.907  10.978  65.213  1.00  0.00    -0.259 A  
HETATM    5  C   UNL     1      -8.718   8.563  65.637  1.00  0.00    -0.181 A  
HETATM    6  C   UNL     1      -9.317   9.182  66.728  1.00  0.00    -0.213 A  
HETATM    7  H1  UNL     1      -8.590  10.269  62.163  1.00  0.00     0.000 HD 
HETATM    8  N   UNL     1      -8.678   9.079  64.386  1.00  0.00    -0.162 NA 
HETATM    9  C   UNL     1      -9.923  10.411  66.494  1.00  0.00    -0.271 A  
HETATM   10  C   UNL     1      -9.247  10.284  64.196  1.00  0.00    -0.267 A  
HETATM   11  H2  UNL     1      -8.618  11.685  62.990  1.00  0.00     0.000 HD 
HETATM   12  N   UNL     1      -9.072  10.775  62.905  1.00  0.00    -0.263 NA 
BRANCH   6  13
HETATM   13  C   UNL     1      -9.258   8.579  68.042  1.00  0.00    -0.143 A  
HETATM   14  N   UNL     1      -8.520   7.945  70.101  1.00  0.00    -0.128 NA 
HETATM   15  C   UNL     1      -8.235   8.647  69.008  1.00  0.00    -0.122 A  
HETATM   16  C   UNL     1     -10.223   7.781  68.625  1.00  0.00    -0.201 A  
HETATM   17  N   UNL     1      -9.725   7.406  69.845  1.00  0.00    -0.171 NA 
BRANCH  17  18
HETATM   18  C   UNL     1     -10.347   6.500  70.811  1.00  0.00    -0.204 C  
HETATM   19  C   UNL     1      -9.918   6.795  72.255  1.00  0.00    -0.173 C  
HETATM   20  C   UNL     1     -10.636   8.012  72.840  1.00  0.00    -0.329 C  
HETATM   21  N   UNL     1     -12.090   7.896  72.725  1.00  0.00    -0.614 NA 
HETATM   22  C   UNL     1     -12.520   7.710  71.337  1.00  0.00    -0.333 C  
HETATM   23  H   UNL     1     -12.559   8.694  73.152  1.00  0.00     0.000 HD 
HETATM   24  C   UNL     1     -11.876   6.480  70.702  1.00  0.00    -0.398 C  
ENDBRANCH  17  18
ENDBRANCH   6  13
ENDBRANCH   3   4
ENDBRANCH   2   3
BRANCH   2  25
HETATM   25  C   UNL     1     -11.496  13.659  66.891  1.00  0.00    -0.369 A  
HETATM   26 CL   UNL     1     -11.018  15.471  64.843  1.00  0.00    -0.451 Cl 
HETATM   27  C   UNL     1     -11.696  13.435  68.277  1.00  0.00    -0.356 A  
HETATM   28 CL   UNL     1     -12.156  11.891  68.920  1.00  0.00    -0.293 Cl 
HETATM   29  F   UNL     1     -10.704  17.241  67.086  1.00  0.00    -0.329 F  
HETATM   30  C   UNL     1     -11.556  14.464  69.218  1.00  0.00    -0.345 A  
HETATM   31  C   UNL     1     -11.210  15.743  68.808  1.00  0.00    -0.342 A  
HETATM   32  C   UNL     1     -11.182  14.979  66.496  1.00  0.00    -0.312 A  
HETATM   33  C   UNL     1     -11.027  15.992  67.456  1.00  0.00    -0.261 A  
ENDBRANCH   2  25
TORSDOF 5
ENDMDL
MODEL       37
REMARK 921   NORMALIZED FREE ENERGY PREDICTED BY IDOCK:   -7.00 KCAL/MOL
REMARK 922        TOTAL FREE ENERGY PREDICTED BY IDOCK:   -9.72 KCAL/MOL
REMARK 923 INTER-LIGAND FREE ENERGY PREDICTED BY IDOCK:   -9.08 KCAL/MOL
REMARK 924 INTRA-LIGAND FREE ENERGY PREDICTED BY IDOCK:   -0.64 KCAL/MOL
REMARK 927      BINDING AFFINITY PREDICTED BY RF-SCORE:    0.00 PKD
ROOT
HETATM    1  C   UNL     1      -9.008  12.255  67.967  1.00  0.00    -0.190 C  
HETATM    2  C   UNL     1     -10.504  11.976  67.812  1.00  0.00    -0.203 C  
ENDROOT
BRANCH   2   3
HETATM    3  O   UNL     1     -11.174  12.791  68.776  1.00  0.00    -0.251 OA 
BRANCH   3   4
HETATM    4  C   UNL     1     -11.745  12.235  69.883  1.00  0.00    -0.273 A  
HETATM    5  C   UNL     1     -12.835  10.825  71.944  1.00  0.00    -0.354 A  
HETATM    6  C   UNL     1     -11.973  10.148  71.090  1.00  0.00    -0.480 A  
HETATM    7  H1  UNL     1     -13.792  14.528  71.332  1.00  0.00     0.000 HD 
HETATM    8  N   UNL     1     -13.175  12.129  71.818  1.00  0.00    -0.410 NA 
HETATM    9  C   UNL     1     -11.422  10.882  70.046  1.00  0.00    -0.411 A  
HETATM   10  C   UNL     1     -12.649  12.807  70.780  1.00  0.00    -0.225 A  
HETATM   11  H2  UNL     1     -13.533  14.207  69.745  1.00  0.00     0.000 HD 
HETATM   12  N   UNL     1     -13.131  14.110  70.677  1.00  0.00    -0.237 NA 
BRANCH   6  13
HETATM   13  C   UNL     1     -11.715   8.735  71.272  1.00  0.00    -0.356 A  
HETATM   14  N   UNL     1     -11.441   6.514  70.852  1.00  0.00    -0.332 NA 
HETATM   15  C   UNL     1     -11.697   7.702  70.314  1.00  0.00     0.016 A  
HETATM   16  C   UNL     1     -11.434   8.097  72.464  1.00  0.00    -0.404 A  
HETATM   17  N   UNL     1     -11.303   6.766  72.166  1.00  0.00    -0.260 NA 
BRANCH  17  18
HETATM   18  C   UNL     1     -11.074   5.670  73.107  1.00  0.00    -0.270 C  
HETATM   19  C   UNL     1     -10.406   4.457  72.445  1.00  0.00    -0.241 C  
HETATM   20  C   UNL     1      -8.907   4.664  72.223  1.00  0.00    -0.122 C  
HETATM   21  N   UNL     1      -8.221   5.048  73.458  1.00  0.00    -0.107 NA 
HETATM   22  C   UNL     1      -8.788   6.261  74.049  1.00  0.00    -0.126 C  
HETATM   23  H   UNL     1      -7.217   5.145  73.307  1.00  0.00     0.000 HD 
HETATM   24  C   UNL     1     -10.279   6.109  74.343  1.00  0.00    -0.332 C  
ENDBRANCH  17  18
ENDBRANCH   6  13
ENDBRANCH   3   4
ENDBRANCH   2   3
BRANCH   2  25
HETATM   25  C   UNL     1     -10.958  12.255  66.378  1.00  0.00    -0.326 A  
HETATM   26 CL   UNL     1     -11.763  14.839  66.996  1.00  0.00    -0.363 Cl 
HETATM   27  C   UNL     1     -10.755  11.264  65.385  1.00  0.00    -0.227 A  
HETATM   28 CL   UNL     1      -9.986   9.746  65.720  1.00  0.00    -0.363 Cl 
HETATM   29  F   UNL     1     -12.524  14.787  64.225  1.00  0.00    -0.496 F  
HETATM   30  C   UNL     1     -11.145  11.462  64.053  1.00  0.00    -0.400 A  
HETATM   31  C   UNL     1     -11.752  12.651  63.673  1.00  0.00    -0.597 A  
HETATM   32  C   UNL     1     -11.543  13.471  65.957  1.00  0.00    -0.338 A  
HETATM   33  C   UNL     1     -11.945  13.643  64.623  1.00  0.00    -0.407 A  
ENDBRANCH   2  25
TORSDOF 5
ENDMDL
MODEL       38
REMARK 921   NORMALIZED FREE ENERGY PREDICTED BY IDOCK:   -6.98 KCAL/MOL
REMARK 922        TOTAL FREE ENERGY PREDICTED BY IDOCK:   -9.69 KCAL/MOL
REMARK 923 INTER-LIGAND FREE ENERGY PREDICTED BY IDOCK:   -8.80 KCAL/MOL
REMARK 924 INTRA-LIGAND FREE ENERGY PREDICTED BY IDOCK:   -0.89 KCAL/MOL
REMARK 927      BINDING AFFINITY PREDICTED BY RF-SCORE:    0.00 PKD
ROOT
HETATM    1  C   UNL     1      -7.169   7.222  70.596  1.00  0.00    -0.066 C  
HETATM    2  C   UNL     1      -8.672   7.499  70.533  1.00  0.00    -0.146 C  
ENDROOT
BRANCH   2   3
HETATM    3  O   UNL     1      -8.848   8.882  70.846  1.00  0.00    -0.180 OA 
BRANCH   3   4
HETATM    4  C   UNL     1     -10.054   9.492  70.656  1.00  0.00    -0.286 A  
HETATM    5  C   UNL     1     -12.287  10.960  70.125  1.00  0.00    -0.322 A  
HETATM    6  C   UNL     1     -11.157  11.212  69.356  1.00  0.00    -0.314 A  
HETATM    7  H1  UNL     1     -12.228   8.391  73.023  1.00  0.00     0.000 HD 
HETATM    8  N   UNL     1     -12.351  10.044  71.120  1.00  0.00    -0.347 NA 
HETATM    9  C   UNL     1     -10.027  10.452  69.636  1.00  0.00    -0.209 A  
HETATM   10  C   UNL     1     -11.233   9.344  71.388  1.00  0.00    -0.381 A  
HETATM   11  H2  UNL     1     -10.633   8.750  73.149  1.00  0.00     0.000 HD 
HETATM   12  N   UNL     1     -11.366   8.499  72.487  1.00  0.00    -0.346 NA 
BRANCH   6  13
HETATM   13  C   UNL     1     -11.167  12.254  68.352  1.00  0.00    -0.311 A  
HETATM   14  N   UNL     1     -11.696  14.148  67.204  1.00  0.00    -0.382 NA 
HETATM   15  C   UNL     1     -11.942  13.429  68.294  1.00  0.00    -0.317 A  
HETATM   16  C   UNL     1     -10.397  12.299  67.206  1.00  0.00    -0.214 A  
HETATM   17  N   UNL     1     -10.768  13.438  66.540  1.00  0.00    -0.284 NA 
BRANCH  17  18
HETATM   18  C   UNL     1     -10.287  13.891  65.234  1.00  0.00    -0.378 C  
HETATM   19  C   UNL     1     -10.442  12.820  64.146  1.00  0.00    -0.437 C  
HETATM   20  C   UNL     1     -11.882  12.700  63.645  1.00  0.00    -0.530 C  
HETATM   21  N   UNL     1     -12.416  13.991  63.208  1.00  0.00    -1.112 NA 
HETATM   22  C   UNL     1     -12.362  14.998  64.269  1.00  0.00    -0.226 C  
HETATM   23  H   UNL     1     -13.362  13.894  62.839  1.00  0.00     0.000 HD 
HETATM   24  C   UNL     1     -10.940  15.204  64.787  1.00  0.00    -0.394 C  
ENDBRANCH  17  18
ENDBRANCH   6  13
ENDBRANCH   3   4
ENDBRANCH   2   3
BRANCH   2  25
HETATM   25  C   UNL     1      -9.232   7.124  69.160  1.00  0.00    -0.139 A  
HETATM   26 CL   UNL     1      -7.280   8.576  67.823  1.00  0.00    -0.083 Cl 
HETATM   27  C   UNL     1     -10.334   6.234  69.082  1.00  0.00    -0.216 A  
HETATM   28 CL   UNL     1     -11.066   5.527  70.486  1.00  0.00    -0.200 Cl 
HETATM   29  F   UNL     1      -8.780   7.653  65.552  1.00  0.00    -0.153 F  
HETATM   30  C   UNL     1     -10.888   5.850  67.853  1.00  0.00    -0.323 A  
HETATM   31  C   UNL     1     -10.364   6.343  66.667  1.00  0.00    -0.223 A  
HETATM   32  C   UNL     1      -8.693   7.581  67.936  1.00  0.00    -0.124 A  
HETATM   33  C   UNL     1      -9.274   7.200  66.715  1.00  0.00    -0.158 A  
ENDBRANCH   2  25
TORSDOF 5
ENDMDL
MODEL       39
REMARK 921   NORMALIZED FREE ENERGY PREDICTED BY IDOCK:   -6.97 KCAL/MOL
REMARK 922        TOTAL FREE ENERGY PREDICTED BY IDOCK:   -9.68 KCAL/MOL
REMARK 923 INTER-LIGAND FREE ENERGY PREDICTED BY IDOCK:   -8.91 KCAL/MOL
REMARK 924 INTRA-LIGAND FREE ENERGY PREDICTED BY IDOCK:   -0.78 KCAL/MOL
REMARK 927      BINDING AFFINITY PREDICTED BY RF-SCORE:    0.00 PKD
ROOT
HETATM    1  C   UNL     1     -11.337  16.316  68.040  1.00  0.00    -0.205 C  
HETATM    2  C   UNL     1      -9.938  16.117  67.454  1.00  0.00    -0.247 C  
ENDROOT
BRANCH   2   3
HETATM    3  O   UNL     1     -10.106  15.924  66.048  1.00  0.00    -0.291 OA 
BRANCH   3   4
HETATM    4  C   UNL     1     -10.861  14.892  65.572  1.00  0.00    -0.356 A  
HETATM    5  C   UNL     1     -12.116  12.628  64.721  1.00  0.00    -0.436 A  
HETATM    6  C   UNL     1     -11.131  12.488  65.691  1.00  0.00    -0.338 A  
HETATM    7  H1  UNL     1     -12.940  16.075  63.159  1.00  0.00     0.000 HD 
HETATM    8  N   UNL     1     -12.488  13.806  64.167  1.00  0.00    -0.688 NA 
HETATM    9  C   UNL     1     -10.503  13.652  66.117  1.00  0.00    -0.297 A  
HETATM   10  C   UNL     1     -11.842  14.914  64.578  1.00  0.00    -0.396 A  
HETATM   11  H2  UNL     1     -11.378  16.459  63.479  1.00  0.00     0.000 HD 
HETATM   12  N   UNL     1     -12.223  16.059  63.885  1.00  0.00    -0.803 NA 
BRANCH   6  13
HETATM   13  C   UNL     1     -10.761  11.177  66.181  1.00  0.00    -0.285 A  
HETATM   14  N   UNL     1     -10.474   9.381  67.551  1.00  0.00    -0.265 NA 
HETATM   15  C   UNL     1     -10.970  10.610  67.454  1.00  0.00    -0.298 A  
HETATM   16  C   UNL     1     -10.099  10.192  65.475  1.00  0.00    -0.268 A  
HETATM   17  N   UNL     1      -9.928   9.147  66.345  1.00  0.00    -0.281 NA 
BRANCH  17  18
HETATM   18  C   UNL     1      -9.216   7.895  66.088  1.00  0.00    -0.152 C  
HETATM   19  C   UNL     1      -8.135   8.043  65.009  1.00  0.00    -0.145 C  
HETATM   20  C   UNL     1      -6.872   8.727  65.536  1.00  0.00    -0.075 C  
HETATM   21  N   UNL     1      -6.351   8.061  66.731  1.00  0.00    -0.054 NA 
HETATM   22  C   UNL     1      -7.343   7.998  67.805  1.00  0.00    -0.093 C  
HETATM   23  H   UNL     1      -5.488   8.500  67.051  1.00  0.00     0.000 HD 
HETATM   24  C   UNL     1      -8.618   7.283  67.361  1.00  0.00    -0.121 C  
ENDBRANCH  17  18
ENDBRANCH   6  13
ENDBRANCH   3   4
ENDBRANCH   2   3
BRANCH   2  25
HETATM   25  C   UNL     1      -9.041  17.310  67.787  1.00  0.00    -0.235 A  
HETATM   26 CL   UNL     1     -10.659  19.084  66.394  1.00  0.00    -0.498 Cl 
HETATM   27  C   UNL     1      -7.918  17.115  68.632  1.00  0.00    -0.265 A  
HETATM   28 CL   UNL     1      -7.528  15.576  69.330  1.00  0.00    -0.209 Cl 
HETATM   29  F   UNL     1      -8.606  20.915  67.225  1.00  0.00    -0.409 F  
HETATM   30  C   UNL     1      -7.062  18.170  68.977  1.00  0.00    -0.244 A  
HETATM   31  C   UNL     1      -7.295  19.447  68.488  1.00  0.00    -0.368 A  
HETATM   32  C   UNL     1      -9.278  18.628  67.335  1.00  0.00    -0.279 A  
HETATM   33  C   UNL     1      -8.397  19.667  67.675  1.00  0.00    -0.308 A  
ENDBRANCH   2  25
TORSDOF 5
ENDMDL
MODEL       40
REMARK 921   NORMALIZED FREE ENERGY PREDICTED BY IDOCK:   -6.96 KCAL/MOL
REMARK 922        TOTAL FREE ENERGY PREDICTED BY IDOCK:   -9.67 KCAL/MOL
REMARK 923 INTER-LIGAND FREE ENERGY PREDICTED BY IDOCK:   -8.83 KCAL/MOL
REMARK 924 INTRA-LIGAND FREE ENERGY PREDICTED BY IDOCK:   -0.84 KCAL/MOL
REMARK 927      BINDING AFFINITY PREDICTED BY RF-SCORE:    0.00 PKD
ROOT
HETATM    1  C   UNL     1     -13.031  13.769  65.619  1.00  0.00    -0.346 C  
HETATM    2  C   UNL     1     -11.954  13.416  66.645  1.00  0.00    -0.399 C  
ENDROOT
BRANCH   2   3
HETATM    3  O   UNL     1     -10.916  12.737  65.934  1.00  0.00    -0.268 OA 
BRANCH   3   4
HETATM    4  C   UNL     1     -10.622  11.433  66.207  1.00  0.00    -0.263 A  
HETATM    5  C   UNL     1     -10.042   8.917  67.078  1.00  0.00    -0.261 A  
HETATM    6  C   UNL     1     -10.664   9.778  67.975  1.00  0.00    -0.298 A  
HETATM    7  H1  UNL     1      -9.018  10.088  63.531  1.00  0.00     0.000 HD 
HETATM    8  N   UNL     1      -9.700   9.244  65.809  1.00  0.00    -0.286 NA 
HETATM    9  C   UNL     1     -10.957  11.057  67.514  1.00  0.00    -0.338 A  
HETATM   10  C   UNL     1      -9.969  10.498  65.400  1.00  0.00    -0.289 A  
HETATM   11  H2  UNL     1      -8.882  11.581  64.193  1.00  0.00     0.000 HD 
HETATM   12  N   UNL     1      -9.495  10.770  64.120  1.00  0.00    -0.245 NA 
BRANCH   6  13
HETATM   13  C   UNL     1     -10.938   9.356  69.331  1.00  0.00    -0.165 A  
HETATM   14  N   UNL     1     -11.398   9.402  71.561  1.00  0.00    -0.379 NA 
HETATM   15  C   UNL     1     -11.215  10.139  70.470  1.00  0.00    -0.336 A  
HETATM   16  C   UNL     1     -10.975   8.056  69.796  1.00  0.00    -0.137 A  
HETATM   17  N   UNL     1     -11.229   8.137  71.141  1.00  0.00    -0.252 NA 
BRANCH  17  18
HETATM   18  C   UNL     1     -11.292   7.029  72.094  1.00  0.00    -0.265 C  
HETATM   19  C   UNL     1     -10.746   5.718  71.509  1.00  0.00    -0.319 C  
HETATM   20  C   UNL     1      -9.218   5.685  71.475  1.00  0.00    -0.143 C  
HETATM   21  N   UNL     1      -8.637   5.971  72.788  1.00  0.00    -0.125 NA 
HETATM   22  C   UNL     1      -9.075   7.264  73.316  1.00  0.00    -0.159 C  
HETATM   23  H   UNL     1      -7.620   5.908  72.764  1.00  0.00     0.000 HD 
HETATM   24  C   UNL     1     -10.596   7.350  73.422  1.00  0.00    -0.427 C  
ENDBRANCH  17  18
ENDBRANCH   6  13
ENDBRANCH   3   4
ENDBRANCH   2   3
BRANCH   2  25
HETATM   25  C   UNL     1     -11.459  14.674  67.362  1.00  0.00    -0.384 A  
HETATM   26 CL   UNL     1     -12.074  13.648  69.866  1.00  0.00    -0.399 Cl 
HETATM   27  C   UNL     1     -10.875  15.718  66.599  1.00  0.00    -0.241 A  
HETATM   28 CL   UNL     1     -10.673  15.622  64.879  1.00  0.00    -0.454 Cl 
HETATM   29  F   UNL     1     -11.112  16.234  70.669  1.00  0.00    -0.334 F  
HETATM   30  C   UNL     1     -10.399  16.892  67.199  1.00  0.00    -0.304 A  
HETATM   31  C   UNL     1     -10.494  17.062  68.572  1.00  0.00    -0.373 A  
HETATM   32  C   UNL     1     -11.507  14.856  68.762  1.00  0.00    -0.307 A  
HETATM   33  C   UNL     1     -11.044  16.048  69.342  1.00  0.00    -0.331 A  
ENDBRANCH   2  25
TORSDOF 5
ENDMDL
MODEL       41
REMARK 921   NORMALIZED FREE ENERGY PREDICTED BY IDOCK:   -6.95 KCAL/MOL
REMARK 922        TOTAL FREE ENERGY PREDICTED BY IDOCK:   -9.65 KCAL/MOL
REMARK 923 INTER-LIGAND FREE ENERGY PREDICTED BY IDOCK:   -8.73 KCAL/MOL
REMARK 924 INTRA-LIGAND FREE ENERGY PREDICTED BY IDOCK:   -0.92 KCAL/MOL
REMARK 927      BINDING AFFINITY PREDICTED BY RF-SCORE:    0.00 PKD
ROOT
HETATM    1  C   UNL     1     -10.650   6.422  69.413  1.00  0.00    -0.310 C  
HETATM    2  C   UNL     1     -10.547   7.750  70.164  1.00  0.00    -0.237 C  
ENDROOT
BRANCH   2   3
HETATM    3  O   UNL     1     -11.881   8.131  70.506  1.00  0.00    -0.166 OA 
BRANCH   3   4
HETATM    4  C   UNL     1     -12.201   9.442  70.711  1.00  0.00    -0.162 A  
HETATM    5  C   UNL     1     -12.590  12.132  70.901  1.00  0.00    -0.247 A  
HETATM    6  C   UNL     1     -11.941  11.658  69.768  1.00  0.00    -0.402 A  
HETATM    7  H1  UNL     1     -13.660   9.752  73.763  1.00  0.00     0.000 HD 
HETATM    8  N   UNL     1     -13.033  11.353  71.916  1.00  0.00    -0.433 NA 
HETATM    9  C   UNL     1     -11.754  10.283  69.684  1.00  0.00    -0.230 A  
HETATM   10  C   UNL     1     -12.811  10.029  71.821  1.00  0.00    -0.446 A  
HETATM   11  H2  UNL     1     -12.399   8.815  73.294  1.00  0.00     0.000 HD 
HETATM   12  N   UNL     1     -13.214   9.324  72.952  1.00  0.00    -0.188 NA 
BRANCH   6  13
HETATM   13  C   UNL     1     -11.450  12.575  68.762  1.00  0.00    -0.353 A  
HETATM   14  N   UNL     1     -10.862  14.493  67.684  1.00  0.00    -0.268 NA 
HETATM   15  C   UNL     1     -11.343  13.979  68.812  1.00  0.00    -0.278 A  
HETATM   16  C   UNL     1     -10.983  12.244  67.505  1.00  0.00    -0.254 A  
HETATM   17  N   UNL     1     -10.666  13.426  66.889  1.00  0.00    -0.272 NA 
BRANCH  17  18
HETATM   18  C   UNL     1     -10.196  13.607  65.516  1.00  0.00    -0.302 C  
HETATM   19  C   UNL     1     -10.560  12.422  64.610  1.00  0.00    -0.339 C  
HETATM   20  C   UNL     1     -12.026  12.447  64.177  1.00  0.00    -0.435 C  
HETATM   21  N   UNL     1     -12.393  13.725  63.565  1.00  0.00    -1.032 NA 
HETATM   22  C   UNL     1     -12.140  14.857  64.458  1.00  0.00    -0.407 C  
HETATM   23  H   UNL     1     -13.362  13.716  63.245  1.00  0.00     0.000 HD 
HETATM   24  C   UNL     1     -10.678  14.922  64.894  1.00  0.00    -0.426 C  
ENDBRANCH  17  18
ENDBRANCH   6  13
ENDBRANCH   3   4
ENDBRANCH   2   3
BRANCH   2  25
HETATM   25  C   UNL     1      -9.637   7.609  71.386  1.00  0.00    -0.178 A  
HETATM   26 CL   UNL     1      -8.003   9.701  70.573  1.00  0.00    -0.192 Cl 
HETATM   27  C   UNL     1      -9.963   6.654  72.383  1.00  0.00    -0.166 A  
HETATM   28 CL   UNL     1     -11.371   5.646  72.290  1.00  0.00    -0.321 Cl 
HETATM   29  F   UNL     1      -6.600   8.943  72.964  1.00  0.00    -0.098 F  
HETATM   30  C   UNL     1      -9.171   6.481  73.526  1.00  0.00    -0.149 A  
HETATM   31  C   UNL     1      -8.031   7.251  73.708  1.00  0.00    -0.137 A  
HETATM   32  C   UNL     1      -8.493   8.406  71.615  1.00  0.00    -0.163 A  
HETATM   33  C   UNL     1      -7.701   8.204  72.757  1.00  0.00    -0.136 A  
ENDBRANCH   2  25
TORSDOF 5
ENDMDL
MODEL       42
REMARK 921   NORMALIZED FREE ENERGY PREDICTED BY IDOCK:   -6.94 KCAL/MOL
REMARK 922        TOTAL FREE ENERGY PREDICTED BY IDOCK:   -9.64 KCAL/MOL
REMARK 923 INTER-LIGAND FREE ENERGY PREDICTED BY IDOCK:   -8.91 KCAL/MOL
REMARK 924 INTRA-LIGAND FREE ENERGY PREDICTED BY IDOCK:   -0.73 KCAL/MOL
REMARK 927      BINDING AFFINITY PREDICTED BY RF-SCORE:    0.00 PKD
ROOT
HETATM    1  C   UNL     1     -10.445  14.889  65.437  1.00  0.00    -0.406 C  
HETATM    2  C   UNL     1     -10.403  13.683  66.377  1.00  0.00    -0.286 C  
ENDROOT
BRANCH   2   3
HETATM    3  O   UNL     1     -11.693  13.591  66.983  1.00  0.00    -0.341 OA 
BRANCH   3   4
HETATM    4  C   UNL     1     -11.825  13.558  68.341  1.00  0.00    -0.373 A  
HETATM    5  C   UNL     1     -12.211  13.179  71.012  1.00  0.00    -0.165 A  
HETATM    6  C   UNL     1     -12.109  12.047  70.212  1.00  0.00    -0.395 A  
HETATM    7  H1  UNL     1     -12.118  16.741  69.492  1.00  0.00     0.000 HD 
HETATM    8  N   UNL     1     -12.139  14.452  70.555  1.00  0.00    -0.312 NA 
HETATM    9  C   UNL     1     -11.908  12.257  68.853  1.00  0.00    -0.355 A  
HETATM   10  C   UNL     1     -11.974  14.624  69.230  1.00  0.00    -0.302 A  
HETATM   11  H2  UNL     1     -12.745  16.051  68.143  1.00  0.00     0.000 HD 
HETATM   12  N   UNL     1     -12.009  15.961  68.843  1.00  0.00    -0.307 NA 
BRANCH   6  13
HETATM   13  C   UNL     1     -12.257  10.726  70.784  1.00  0.00    -0.480 A  
HETATM   14  N   UNL     1     -12.996   8.990  72.061  1.00  0.00    -0.375 NA 
HETATM   15  C   UNL     1     -13.166  10.275  71.762  1.00  0.00    -0.430 A  
HETATM   16  C   UNL     1     -11.504   9.609  70.480  1.00  0.00    -0.285 A  
HETATM   17  N   UNL     1     -11.967   8.603  71.287  1.00  0.00    -0.289 NA 
BRANCH  17  18
HETATM   18  C   UNL     1     -11.441   7.241  71.388  1.00  0.00    -0.266 C  
HETATM   19  C   UNL     1     -10.218   7.016  70.488  1.00  0.00    -0.209 C  
HETATM   20  C   UNL     1      -8.941   7.620  71.074  1.00  0.00    -0.146 C  
HETATM   21  N   UNL     1      -8.696   7.156  72.440  1.00  0.00    -0.123 NA 
HETATM   22  C   UNL     1      -9.818   7.452  73.333  1.00  0.00    -0.294 C  
HETATM   23  H   UNL     1      -7.823   7.534  72.808  1.00  0.00     0.000 HD 
HETATM   24  C   UNL     1     -11.122   6.836  72.832  1.00  0.00    -0.277 C  
ENDBRANCH  17  18
ENDBRANCH   6  13
ENDBRANCH   3   4
ENDBRANCH   2   3
BRANCH   2  25
HETATM   25  C   UNL     1     -10.013  12.417  65.611  1.00  0.00    -0.261 A  
HETATM   26 CL   UNL     1      -8.223  11.621  67.578  1.00  0.00    -0.141 Cl 
HETATM   27  C   UNL     1     -10.675  12.116  64.393  1.00  0.00    -0.323 A  
HETATM   28 CL   UNL     1     -11.933  13.115  63.739  1.00  0.00    -0.546 Cl 
HETATM   29  F   UNL     1      -7.804   9.483  65.703  1.00  0.00    -0.096 F  
HETATM   30  C   UNL     1     -10.365  10.969  63.649  1.00  0.00    -0.415 A  
HETATM   31  C   UNL     1      -9.387  10.092  64.093  1.00  0.00    -0.340 A  
HETATM   32  C   UNL     1      -9.049  11.488  66.061  1.00  0.00    -0.198 A  
HETATM   33  C   UNL     1      -8.738  10.355  65.291  1.00  0.00    -0.179 A  
ENDBRANCH   2  25
TORSDOF 5
ENDMDL
MODEL       43
REMARK 921   NORMALIZED FREE ENERGY PREDICTED BY IDOCK:   -6.94 KCAL/MOL
REMARK 922        TOTAL FREE ENERGY PREDICTED BY IDOCK:   -9.64 KCAL/MOL
REMARK 923 INTER-LIGAND FREE ENERGY PREDICTED BY IDOCK:   -9.04 KCAL/MOL
REMARK 924 INTRA-LIGAND FREE ENERGY PREDICTED BY IDOCK:   -0.60 KCAL/MOL
REMARK 927      BINDING AFFINITY PREDICTED BY RF-SCORE:    0.00 PKD
ROOT
HETATM    1  C   UNL     1      -8.920   7.893  70.595  1.00  0.00    -0.148 C  
HETATM    2  C   UNL     1      -9.963   8.608  69.735  1.00  0.00    -0.190 C  
ENDROOT
BRANCH   2   3
HETATM    3  O   UNL     1     -10.246   7.746  68.631  1.00  0.00    -0.192 OA 
BRANCH   3   4
HETATM    4  C   UNL     1      -9.685   7.972  67.408  1.00  0.00    -0.166 A  
HETATM    5  C   UNL     1      -8.824   8.631  64.908  1.00  0.00    -0.031 A  
HETATM    6  C   UNL     1      -9.698   9.511  65.537  1.00  0.00    -0.344 A  
HETATM    7  H1  UNL     1      -7.777   5.291  66.564  1.00  0.00     0.000 HD 
HETATM    8  N   UNL     1      -8.380   7.472  65.447  1.00  0.00    -0.137 NA 
HETATM    9  C   UNL     1     -10.124   9.162  66.814  1.00  0.00    -0.341 A  
HETATM   10  C   UNL     1      -8.833   7.146  66.673  1.00  0.00    -0.132 A  
HETATM   11  H2  UNL     1      -9.232   5.347  67.319  1.00  0.00     0.000 HD 
HETATM   12  N   UNL     1      -8.399   5.895  67.102  1.00  0.00    -0.105 NA 
BRANCH   6  13
HETATM   13  C   UNL     1     -10.164  10.699  64.857  1.00  0.00    -0.395 A  
HETATM   14  N   UNL     1     -10.567  12.248  63.236  1.00  0.00    -0.369 NA 
HETATM   15  C   UNL     1     -10.026  11.063  63.503  1.00  0.00    -0.370 A  
HETATM   16  C   UNL     1     -10.854  11.754  65.422  1.00  0.00    -0.295 A  
HETATM   17  N   UNL     1     -11.050  12.666  64.419  1.00  0.00    -0.323 NA 
BRANCH  17  18
HETATM   18  C   UNL     1     -11.673  13.985  64.536  1.00  0.00    -0.413 C  
HETATM   19  C   UNL     1     -12.748  14.032  65.631  1.00  0.00    -0.515 C  
HETATM   20  C   UNL     1     -12.149  14.120  67.035  1.00  0.00    -0.414 C  
HETATM   21  N   UNL     1     -11.208  15.235  67.157  1.00  0.00    -0.321 NA 
HETATM   22  C   UNL     1     -10.122  15.150  66.179  1.00  0.00    -0.295 C  
HETATM   23  H   UNL     1     -10.845  15.309  68.107  1.00  0.00     0.000 HD 
HETATM   24  C   UNL     1     -10.648  15.106  64.746  1.00  0.00    -0.305 C  
ENDBRANCH  17  18
ENDBRANCH   6  13
ENDBRANCH   3   4
ENDBRANCH   2   3
BRANCH   2  25
HETATM   25  C   UNL     1     -11.206   8.942  70.563  1.00  0.00    -0.287 A  
HETATM   26 CL   UNL     1     -11.254  11.570  69.672  1.00  0.00    -0.300 Cl 
HETATM   27  C   UNL     1     -11.835   7.912  71.309  1.00  0.00    -0.296 A  
HETATM   28 CL   UNL     1     -11.268   6.273  71.307  1.00  0.00    -0.342 Cl 
HETATM   29  F   UNL     1     -13.497  11.668  71.466  1.00  0.00    -0.395 F  
HETATM   30  C   UNL     1     -12.978   8.155  72.083  1.00  0.00    -0.287 A  
HETATM   31  C   UNL     1     -13.526   9.428  72.139  1.00  0.00    -0.543 A  
HETATM   32  C   UNL     1     -11.806  10.220  70.607  1.00  0.00    -0.347 A  
HETATM   33  C   UNL     1     -12.940  10.448  71.403  1.00  0.00    -0.443 A  
ENDBRANCH   2  25
TORSDOF 5
ENDMDL
MODEL       44
REMARK 921   NORMALIZED FREE ENERGY PREDICTED BY IDOCK:   -6.93 KCAL/MOL
REMARK 922        TOTAL FREE ENERGY PREDICTED BY IDOCK:   -9.63 KCAL/MOL
REMARK 923 INTER-LIGAND FREE ENERGY PREDICTED BY IDOCK:   -8.73 KCAL/MOL
REMARK 924 INTRA-LIGAND FREE ENERGY PREDICTED BY IDOCK:   -0.90 KCAL/MOL
REMARK 927      BINDING AFFINITY PREDICTED BY RF-SCORE:    0.00 PKD
ROOT
HETATM    1  C   UNL     1     -11.020  10.709  67.870  1.00  0.00    -0.351 C  
HETATM    2  C   UNL     1     -10.313  11.958  67.341  1.00  0.00    -0.207 C  
ENDROOT
BRANCH   2   3
HETATM    3  O   UNL     1      -8.917  11.657  67.310  1.00  0.00    -0.161 OA 
BRANCH   3   4
HETATM    4  C   UNL     1      -8.050  12.280  68.159  1.00  0.00    -0.158 A  
HETATM    5  C   UNL     1      -6.338  13.791  69.647  1.00  0.00    -0.116 A  
HETATM    6  C   UNL     1      -7.203  14.460  68.789  1.00  0.00    -0.128 A  
HETATM    7  H1  UNL     1      -6.238   9.922  69.802  1.00  0.00     0.000 HD 
HETATM    8  N   UNL     1      -6.283  12.445  69.787  1.00  0.00    -0.133 NA 
HETATM    9  C   UNL     1      -8.073  13.676  68.041  1.00  0.00    -0.161 A  
HETATM   10  C   UNL     1      -7.117  11.710  69.027  1.00  0.00    -0.108 A  
HETATM   11  H2  UNL     1      -6.730   9.966  68.239  1.00  0.00     0.000 HD 
HETATM   12  N   UNL     1      -6.920  10.339  69.169  1.00  0.00    -0.060 NA 
BRANCH   6  13
HETATM   13  C   UNL     1      -7.148  15.901  68.665  1.00  0.00    -0.133 A  
HETATM   14  N   UNL     1      -6.359  18.026  68.446  1.00  0.00    -0.191 NA 
HETATM   15  C   UNL     1      -6.028  16.740  68.506  1.00  0.00    -0.131 A  
HETATM   16  C   UNL     1      -8.222  16.770  68.686  1.00  0.00    -0.252 A  
HETATM   17  N   UNL     1      -7.697  18.031  68.577  1.00  0.00    -0.295 NA 
BRANCH  17  18
HETATM   18  C   UNL     1      -8.429  19.297  68.623  1.00  0.00    -0.368 C  
HETATM   19  C   UNL     1      -8.153  20.180  67.398  1.00  0.00    -0.372 C  
HETATM   20  C   UNL     1      -8.914  19.712  66.157  1.00  0.00    -0.334 C  
HETATM   21  N   UNL     1     -10.349  19.583  66.413  1.00  0.00    -0.455 NA 
HETATM   22  C   UNL     1     -10.631  18.667  67.520  1.00  0.00    -0.423 C  
HETATM   23  H   UNL     1     -10.852  19.309  65.570  1.00  0.00     0.000 HD 
HETATM   24  C   UNL     1      -9.938  19.101  68.810  1.00  0.00    -0.493 C  
ENDBRANCH  17  18
ENDBRANCH   6  13
ENDBRANCH   3   4
ENDBRANCH   2   3
BRANCH   2  25
HETATM   25  C   UNL     1     -10.868  12.351  65.971  1.00  0.00    -0.308 A  
HETATM   26 CL   UNL     1     -11.708  14.837  66.878  1.00  0.00    -0.353 Cl 
HETATM   27  C   UNL     1     -10.700  11.464  64.877  1.00  0.00    -0.286 A  
HETATM   28 CL   UNL     1      -9.866   9.949  65.020  1.00  0.00    -0.378 Cl 
HETATM   29  F   UNL     1     -12.645  15.013  64.167  1.00  0.00    -0.518 F  
HETATM   30  C   UNL     1     -11.182  11.770  63.597  1.00  0.00    -0.519 A  
HETATM   31  C   UNL     1     -11.847  12.965  63.369  1.00  0.00    -0.576 A  
HETATM   32  C   UNL     1     -11.515  13.579  65.703  1.00  0.00    -0.315 A  
HETATM   33  C   UNL     1     -12.008  13.859  64.418  1.00  0.00    -0.450 A  
ENDBRANCH   2  25
TORSDOF 5
ENDMDL
MODEL       45
REMARK 921   NORMALIZED FREE ENERGY PREDICTED BY IDOCK:   -6.91 KCAL/MOL
REMARK 922        TOTAL FREE ENERGY PREDICTED BY IDOCK:   -9.60 KCAL/MOL
REMARK 923 INTER-LIGAND FREE ENERGY PREDICTED BY IDOCK:   -9.18 KCAL/MOL
REMARK 924 INTRA-LIGAND FREE ENERGY PREDICTED BY IDOCK:   -0.42 KCAL/MOL
REMARK 927      BINDING AFFINITY PREDICTED BY RF-SCORE:    0.00 PKD
ROOT
HETATM    1  C   UNL     1     -11.578  16.655  68.975  1.00  0.00     0.130 C  
HETATM    2  C   UNL     1     -10.380  16.189  68.147  1.00  0.00    -0.269 C  
ENDROOT
BRANCH   2   3
HETATM    3  O   UNL     1     -10.852  16.004  66.811  1.00  0.00    -0.294 OA 
BRANCH   3   4
HETATM    4  C   UNL     1     -11.351  14.800  66.407  1.00  0.00    -0.339 A  
HETATM    5  C   UNL     1     -12.136  12.256  65.828  1.00  0.00    -0.213 A  
HETATM    6  C   UNL     1     -11.537  12.475  67.063  1.00  0.00    -0.437 A  
HETATM    7  H1  UNL     1     -12.530  15.107  63.236  1.00  0.00     0.000 HD 
HETATM    8  N   UNL     1     -12.348  13.214  64.895  1.00  0.00    -0.448 NA 
HETATM    9  C   UNL     1     -11.146  13.779  67.345  1.00  0.00    -0.312 A  
HETATM   10  C   UNL     1     -11.933  14.461  65.184  1.00  0.00    -0.391 A  
HETATM   11  H2  UNL     1     -11.190  15.755  63.925  1.00  0.00     0.000 HD 
HETATM   12  N   UNL     1     -12.105  15.354  64.130  1.00  0.00    -0.529 NA 
BRANCH   6  13
HETATM   13  C   UNL     1     -11.299  11.375  67.972  1.00  0.00    -0.372 A  
HETATM   14  N   UNL     1     -10.780   9.312  68.784  1.00  0.00    -0.194 NA 
HETATM   15  C   UNL     1     -10.871  10.063  67.690  1.00  0.00    -0.278 A  
HETATM   16  C   UNL     1     -11.459  11.393  69.344  1.00  0.00    -0.310 A  
HETATM   17  N   UNL     1     -11.161  10.129  69.781  1.00  0.00    -0.262 NA 
BRANCH  17  18
HETATM   18  C   UNL     1     -11.251   9.627  71.152  1.00  0.00    -0.384 C  
HETATM   19  C   UNL     1     -12.564  10.026  71.839  1.00  0.00    -0.454 C  
HETATM   20  C   UNL     1     -13.747   9.171  71.381  1.00  0.00    -0.266 C  
HETATM   21  N   UNL     1     -13.476   7.741  71.530  1.00  0.00    -0.461 NA 
HETATM   22  C   UNL     1     -12.277   7.327  70.799  1.00  0.00    -0.217 C  
HETATM   23  H   UNL     1     -14.285   7.182  71.258  1.00  0.00     0.000 HD 
HETATM   24  C   UNL     1     -11.042   8.110  71.241  1.00  0.00    -0.287 C  
ENDBRANCH  17  18
ENDBRANCH   6  13
ENDBRANCH   3   4
ENDBRANCH   2   3
BRANCH   2  25
HETATM   25  C   UNL     1      -9.236  17.200  68.239  1.00  0.00    -0.262 A  
HETATM   26 CL   UNL     1      -7.541  15.368  69.455  1.00  0.00    -0.213 Cl 
HETATM   27  C   UNL     1      -9.407  18.490  67.676  1.00  0.00    -0.281 A  
HETATM   28 CL   UNL     1     -10.861  18.970  66.860  1.00  0.00    -0.461 Cl 
HETATM   29  F   UNL     1      -5.799  17.654  69.456  1.00  0.00    -0.189 F  
HETATM   30  C   UNL     1      -8.394  19.458  67.725  1.00  0.00    -0.340 A  
HETATM   31  C   UNL     1      -7.184  19.170  68.338  1.00  0.00    -0.331 A  
HETATM   32  C   UNL     1      -7.980  16.920  68.823  1.00  0.00    -0.254 A  
HETATM   33  C   UNL     1      -6.984  17.909  68.880  1.00  0.00    -0.260 A  
ENDBRANCH   2  25
TORSDOF 5
ENDMDL
MODEL       46
REMARK 921   NORMALIZED FREE ENERGY PREDICTED BY IDOCK:   -6.90 KCAL/MOL
REMARK 922        TOTAL FREE ENERGY PREDICTED BY IDOCK:   -9.59 KCAL/MOL
REMARK 923 INTER-LIGAND FREE ENERGY PREDICTED BY IDOCK:   -9.98 KCAL/MOL
REMARK 924 INTRA-LIGAND FREE ENERGY PREDICTED BY IDOCK:    0.39 KCAL/MOL
REMARK 927      BINDING AFFINITY PREDICTED BY RF-SCORE:    0.00 PKD
ROOT
HETATM    1  C   UNL     1     -11.557  12.283  69.668  1.00  0.00    -0.348 C  
HETATM    2  C   UNL     1     -10.903  11.030  69.086  1.00  0.00    -0.237 C  
ENDROOT
BRANCH   2   3
HETATM    3  O   UNL     1      -9.800  11.473  68.292  1.00  0.00    -0.190 OA 
BRANCH   3   4
HETATM    4  C   UNL     1      -9.992  11.902  67.010  1.00  0.00    -0.202 A  
HETATM    5  C   UNL     1     -10.477  13.051  64.588  1.00  0.00    -0.380 A  
HETATM    6  C   UNL     1     -10.278  13.899  65.671  1.00  0.00    -0.344 A  
HETATM    7  H1  UNL     1     -10.511   9.201  65.015  1.00  0.00     0.000 HD 
HETATM    8  N   UNL     1     -10.455  11.699  64.656  1.00  0.00    -0.284 NA 
HETATM    9  C   UNL     1     -10.027  13.298  66.899  1.00  0.00    -0.250 A  
HETATM   10  C   UNL     1     -10.239  11.144  65.864  1.00  0.00    -0.251 A  
HETATM   11  H2  UNL     1     -11.036   9.495  66.540  1.00  0.00     0.000 HD 
HETATM   12  N   UNL     1     -10.330   9.755  65.852  1.00  0.00    -0.162 NA 
BRANCH   6  13
HETATM   13  C   UNL     1     -10.379  15.334  65.511  1.00  0.00    -0.408 A  
HETATM   14  N   UNL     1     -11.051  17.390  64.799  1.00  0.00    -0.883 NA 
HETATM   15  C   UNL     1     -11.263  16.081  64.707  1.00  0.00    -0.339 A  
HETATM   16  C   UNL     1      -9.596  16.287  66.130  1.00  0.00    -0.331 A  
HETATM   17  N   UNL     1     -10.019  17.500  65.653  1.00  0.00    -0.565 NA 
BRANCH  17  18
HETATM   18  C   UNL     1      -9.450  18.814  65.956  1.00  0.00    -0.057 C  
HETATM   19  C   UNL     1     -10.477  19.769  66.579  1.00  0.00    -0.615 C  
HETATM   20  C   UNL     1     -10.734  19.470  68.057  1.00  0.00    -0.220 C  
HETATM   21  N   UNL     1      -9.492  19.437  68.830  1.00  0.00    -0.402 NA 
HETATM   22  C   UNL     1      -8.539  18.459  68.303  1.00  0.00    -0.303 C  
HETATM   23  H   UNL     1      -9.677  19.275  69.820  1.00  0.00     0.000 HD 
HETATM   24  C   UNL     1      -8.199  18.727  66.838  1.00  0.00    -0.272 C  
ENDBRANCH  17  18
ENDBRANCH   6  13
ENDBRANCH   3   4
ENDBRANCH   2   3
BRANCH   2  25
HETATM   25  C   UNL     1     -10.484  10.073  70.203  1.00  0.00    -0.338 A  
HETATM   26 CL   UNL     1     -13.092   9.774  71.105  1.00  0.00    -0.434 Cl 
HETATM   27  C   UNL     1      -9.124   9.681  70.303  1.00  0.00    -0.225 A  
HETATM   28 CL   UNL     1      -7.909  10.223  69.191  1.00  0.00    -0.115 Cl 
HETATM   29  F   UNL     1     -11.759   8.132  73.050  1.00  0.00    -0.456 F  
HETATM   30  C   UNL     1      -8.680   8.804  71.302  1.00  0.00    -0.273 A  
HETATM   31  C   UNL     1      -9.575   8.295  72.232  1.00  0.00    -0.355 A  
HETATM   32  C   UNL     1     -11.380   9.510  71.139  1.00  0.00    -0.370 A  
HETATM   33  C   UNL     1     -10.913   8.648  72.145  1.00  0.00    -0.364 A  
ENDBRANCH   2  25
TORSDOF 5
ENDMDL
MODEL       47
REMARK 921   NORMALIZED FREE ENERGY PREDICTED BY IDOCK:   -6.90 KCAL/MOL
REMARK 922        TOTAL FREE ENERGY PREDICTED BY IDOCK:   -9.59 KCAL/MOL
REMARK 923 INTER-LIGAND FREE ENERGY PREDICTED BY IDOCK:   -8.77 KCAL/MOL
REMARK 924 INTRA-LIGAND FREE ENERGY PREDICTED BY IDOCK:   -0.81 KCAL/MOL
REMARK 927      BINDING AFFINITY PREDICTED BY RF-SCORE:    0.00 PKD
ROOT
HETATM    1  C   UNL     1     -10.051   7.929  68.884  1.00  0.00    -0.203 C  
HETATM    2  C   UNL     1     -10.353   8.786  70.114  1.00  0.00    -0.208 C  
ENDROOT
BRANCH   2   3
HETATM    3  O   UNL     1     -11.739   9.126  70.047  1.00  0.00    -0.041 OA 
BRANCH   3   4
HETATM    4  C   UNL     1     -12.173  10.361  70.434  1.00  0.00    -0.303 A  
HETATM    5  C   UNL     1     -12.776  12.949  71.034  1.00  0.00    -0.251 A  
HETATM    6  C   UNL     1     -11.972  12.720  69.924  1.00  0.00    -0.368 A  
HETATM    7  H1  UNL     1     -13.980  10.043  73.293  1.00  0.00     0.000 HD 
HETATM    8  N   UNL     1     -13.271  11.979  71.839  1.00  0.00    -0.450 NA 
HETATM    9  C   UNL     1     -11.678  11.394  69.628  1.00  0.00    -0.415 A  
HETATM   10  C   UNL     1     -12.944  10.707  71.545  1.00  0.00    -0.461 A  
HETATM   11  H2  UNL     1     -12.610   9.272  72.827  1.00  0.00     0.000 HD 
HETATM   12  N   UNL     1     -13.417   9.791  72.481  1.00  0.00    -0.276 NA 
BRANCH   6  13
HETATM   13  C   UNL     1     -11.442  13.827  69.157  1.00  0.00    -0.346 A  
HETATM   14  N   UNL     1     -11.046  15.932  68.386  1.00  0.00    -0.328 NA 
HETATM   15  C   UNL     1     -11.704  15.205  69.284  1.00  0.00    -0.329 A  
HETATM   16  C   UNL     1     -10.548  13.746  68.107  1.00  0.00    -0.253 A  
HETATM   17  N   UNL     1     -10.361  15.029  67.663  1.00  0.00    -0.241 NA 
BRANCH  17  18
HETATM   18  C   UNL     1      -9.556  15.457  66.520  1.00  0.00    -0.275 C  
HETATM   19  C   UNL     1      -9.913  14.701  65.233  1.00  0.00    -0.329 C  
HETATM   20  C   UNL     1     -11.206  15.212  64.594  1.00  0.00    -0.343 C  
HETATM   21  N   UNL     1     -11.170  16.659  64.375  1.00  0.00    -1.269 NA 
HETATM   22  C   UNL     1     -10.925  17.399  65.615  1.00  0.00     0.143 C  
HETATM   23  H   UNL     1     -12.020  16.984  63.914  1.00  0.00     0.000 HD 
HETATM   24  C   UNL     1      -9.621  16.971  66.284  1.00  0.00    -0.289 C  
ENDBRANCH  17  18
ENDBRANCH   6  13
ENDBRANCH   3   4
ENDBRANCH   2   3
BRANCH   2  25
HETATM   25  C   UNL     1      -9.985   8.037  71.396  1.00  0.00    -0.221 A  
HETATM   26 CL   UNL     1     -12.439   6.743  71.499  1.00  0.00    -0.404 Cl 
HETATM   27  C   UNL     1      -8.684   8.193  71.938  1.00  0.00    -0.154 A  
HETATM   28 CL   UNL     1      -7.471   9.184  71.193  1.00  0.00    -0.118 Cl 
HETATM   29  F   UNL     1     -11.280   5.690  73.909  1.00  0.00    -0.222 F  
HETATM   30  C   UNL     1      -8.286   7.529  73.107  1.00  0.00    -0.164 A  
HETATM   31  C   UNL     1      -9.174   6.695  73.772  1.00  0.00    -0.176 A  
HETATM   32  C   UNL     1     -10.856   7.152  72.071  1.00  0.00    -0.222 A  
HETATM   33  C   UNL     1     -10.446   6.512  73.252  1.00  0.00    -0.258 A  
ENDBRANCH   2  25
TORSDOF 5
ENDMDL
MODEL       48
REMARK 921   NORMALIZED FREE ENERGY PREDICTED BY IDOCK:   -6.88 KCAL/MOL
REMARK 922        TOTAL FREE ENERGY PREDICTED BY IDOCK:   -9.57 KCAL/MOL
REMARK 923 INTER-LIGAND FREE ENERGY PREDICTED BY IDOCK:   -8.61 KCAL/MOL
REMARK 924 INTRA-LIGAND FREE ENERGY PREDICTED BY IDOCK:   -0.96 KCAL/MOL
REMARK 927      BINDING AFFINITY PREDICTED BY RF-SCORE:    0.00 PKD
ROOT
HETATM    1  C   UNL     1      -7.739   7.131  70.318  1.00  0.00    -0.095 C  
HETATM    2  C   UNL     1      -9.255   7.197  70.513  1.00  0.00    -0.158 C  
ENDROOT
BRANCH   2   3
HETATM    3  O   UNL     1      -9.832   7.316  69.212  1.00  0.00    -0.163 OA 
BRANCH   3   4
HETATM    4  C   UNL     1     -10.187   8.537  68.715  1.00  0.00    -0.200 A  
HETATM    5  C   UNL     1     -11.118  10.989  67.979  1.00  0.00    -0.286 A  
HETATM    6  C   UNL     1     -11.317  10.598  69.298  1.00  0.00    -0.346 A  
HETATM    7  H1  UNL     1      -9.457   8.627  65.398  1.00  0.00     0.000 HD 
HETATM    8  N   UNL     1     -10.504  10.235  67.038  1.00  0.00    -0.242 NA 
HETATM    9  C   UNL     1     -10.832   9.346  69.659  1.00  0.00    -0.245 A  
HETATM   10  C   UNL     1     -10.071   9.015  67.409  1.00  0.00    -0.230 A  
HETATM   11  H2  UNL     1     -10.065   7.404  66.306  1.00  0.00     0.000 HD 
HETATM   12  N   UNL     1      -9.541   8.278  66.353  1.00  0.00    -0.231 NA 
BRANCH   6  13
HETATM   13  C   UNL     1     -12.038  11.451  70.219  1.00  0.00    -0.459 A  
HETATM   14  N   UNL     1     -13.254  12.165  72.006  1.00  0.00    -0.471 NA 
HETATM   15  C   UNL     1     -12.667  11.118  71.435  1.00  0.00    -0.418 A  
HETATM   16  C   UNL     1     -12.269  12.805  70.077  1.00  0.00    -0.209 A  
HETATM   17  N   UNL     1     -13.021  13.181  71.158  1.00  0.00    -0.250 NA 
BRANCH  17  18
HETATM   18  C   UNL     1     -13.580  14.507  71.424  1.00  0.00    -0.381 C  
HETATM   19  C   UNL     1     -13.753  14.781  72.925  1.00  0.00    -0.388 C  
HETATM   20  C   UNL     1     -12.432  15.132  73.611  1.00  0.00    -0.564 C  
HETATM   21  N   UNL     1     -11.744  16.235  72.939  1.00  0.00    -0.400 NA 
HETATM   22  C   UNL     1     -11.487  15.945  71.527  1.00  0.00    -0.410 C  
HETATM   23  H   UNL     1     -10.884  16.486  73.426  1.00  0.00     0.000 HD 
HETATM   24  C   UNL     1     -12.773  15.632  70.766  1.00  0.00    -0.483 C  
ENDBRANCH  17  18
ENDBRANCH   6  13
ENDBRANCH   3   4
ENDBRANCH   2   3
BRANCH   2  25
HETATM   25  C   UNL     1      -9.754   5.968  71.275  1.00  0.00    -0.200 A  
HETATM   26 CL   UNL     1      -8.556   4.213  69.488  1.00  0.00    -0.097 Cl 
HETATM   27  C   UNL     1     -10.471   6.149  72.485  1.00  0.00    -0.201 A  
HETATM   28 CL   UNL     1     -10.791   7.715  73.158  1.00  0.00    -0.453 Cl 
HETATM   29  F   UNL     1      -9.809   2.294  71.223  1.00  0.00    -0.210 F  
HETATM   30  C   UNL     1     -10.950   5.062  73.229  1.00  0.00    -0.384 A  
HETATM   31  C   UNL     1     -10.731   3.765  72.789  1.00  0.00    -0.149 A  
HETATM   32  C   UNL     1      -9.511   4.636  70.870  1.00  0.00    -0.166 A  
HETATM   33  C   UNL     1     -10.016   3.560  71.619  1.00  0.00    -0.119 A  
ENDBRANCH   2  25
TORSDOF 5
ENDMDL
MODEL       49
REMARK 921   NORMALIZED FREE ENERGY PREDICTED BY IDOCK:   -6.87 KCAL/MOL
REMARK 922        TOTAL FREE ENERGY PREDICTED BY IDOCK:   -9.55 KCAL/MOL
REMARK 923 INTER-LIGAND FREE ENERGY PREDICTED BY IDOCK:   -9.30 KCAL/MOL
REMARK 924 INTRA-LIGAND FREE ENERGY PREDICTED BY IDOCK:   -0.25 KCAL/MOL
REMARK 927      BINDING AFFINITY PREDICTED BY RF-SCORE:    0.00 PKD
ROOT
HETATM    1  C   UNL     1      -9.828  13.954  67.243  1.00  0.00    -0.244 C  
HETATM    2  C   UNL     1     -11.250  14.461  67.488  1.00  0.00    -0.315 C  
ENDROOT
BRANCH   2   3
HETATM    3  O   UNL     1     -12.130  13.548  66.831  1.00  0.00    -0.390 OA 
BRANCH   3   4
HETATM    4  C   UNL     1     -11.756  12.928  65.674  1.00  0.00    -0.387 A  
HETATM    5  C   UNL     1     -10.771  11.535  63.549  1.00  0.00    -0.414 A  
HETATM    6  C   UNL     1     -10.512  11.033  64.820  1.00  0.00    -0.384 A  
HETATM    7  H1  UNL     1     -12.674  14.870  63.042  1.00  0.00     0.000 HD 
HETATM    8  N   UNL     1     -11.469  12.667  63.298  1.00  0.00    -0.430 NA 
HETATM    9  C   UNL     1     -11.025  11.753  65.893  1.00  0.00    -0.354 A  
HETATM   10  C   UNL     1     -11.928  13.359  64.357  1.00  0.00    -0.411 A  
HETATM   11  H2  UNL     1     -12.064  15.301  64.502  1.00  0.00     0.000 HD 
HETATM   12  N   UNL     1     -12.548  14.555  64.004  1.00  0.00    -0.799 NA 
BRANCH   6  13
HETATM   13  C   UNL     1      -9.704   9.845  64.992  1.00  0.00    -0.359 A  
HETATM   14  N   UNL     1      -8.209   8.171  64.610  1.00  0.00    -0.148 NA 
HETATM   15  C   UNL     1      -8.741   9.289  64.127  1.00  0.00    -0.173 A  
HETATM   16  C   UNL     1      -9.726   8.986  66.073  1.00  0.00    -0.269 A  
HETATM   17  N   UNL     1      -8.832   7.987  65.787  1.00  0.00    -0.158 NA 
BRANCH  17  18
HETATM   18  C   UNL     1      -8.549   6.800  66.593  1.00  0.00    -0.123 C  
HETATM   19  C   UNL     1      -9.712   6.433  67.526  1.00  0.00    -0.137 C  
HETATM   20  C   UNL     1     -10.856   5.736  66.788  1.00  0.00    -0.248 C  
HETATM   21  N   UNL     1     -10.389   4.575  66.029  1.00  0.00    -0.383 NA 
HETATM   22  C   UNL     1      -9.345   4.930  65.066  1.00  0.00    -0.067 C  
HETATM   23  H   UNL     1     -11.165   4.096  65.573  1.00  0.00     0.000 HD 
HETATM   24  C   UNL     1      -8.145   5.590  65.743  1.00  0.00    -0.112 C  
ENDBRANCH  17  18
ENDBRANCH   6  13
ENDBRANCH   3   4
ENDBRANCH   2   3
BRANCH   2  25
HETATM   25  C   UNL     1     -11.527  14.581  68.988  1.00  0.00    -0.318 A  
HETATM   26 CL   UNL     1     -12.079  11.871  69.234  1.00  0.00    -0.308 Cl 
HETATM   27  C   UNL     1     -11.347  15.835  69.625  1.00  0.00    -0.334 A  
HETATM   28 CL   UNL     1     -10.798  17.246  68.779  1.00  0.00    -0.236 Cl 
HETATM   29  F   UNL     1     -12.569  12.674  71.950  1.00  0.00    -0.311 F  
HETATM   30  C   UNL     1     -11.581  16.006  70.997  1.00  0.00    -0.472 A  
HETATM   31  C   UNL     1     -12.004  14.936  71.771  1.00  0.00    -0.435 A  
HETATM   32  C   UNL     1     -11.922  13.499  69.807  1.00  0.00    -0.340 A  
HETATM   33  C   UNL     1     -12.170  13.695  71.175  1.00  0.00    -0.239 A  
ENDBRANCH   2  25
TORSDOF 5
ENDMDL
MODEL       50
REMARK 921   NORMALIZED FREE ENERGY PREDICTED BY IDOCK:   -6.86 KCAL/MOL
REMARK 922        TOTAL FREE ENERGY PREDICTED BY IDOCK:   -9.54 KCAL/MOL
REMARK 923 INTER-LIGAND FREE ENERGY PREDICTED BY IDOCK:   -9.20 KCAL/MOL
REMARK 924 INTRA-LIGAND FREE ENERGY PREDICTED BY IDOCK:   -0.35 KCAL/MOL
REMARK 927      BINDING AFFINITY PREDICTED BY RF-SCORE:    0.00 PKD
ROOT
HETATM    1  C   UNL     1     -12.807  13.244  65.411  1.00  0.00    -0.340 C  
HETATM    2  C   UNL     1     -11.680  13.129  66.440  1.00  0.00    -0.379 C  
ENDROOT
BRANCH   2   3
HETATM    3  O   UNL     1     -12.246  13.468  67.707  1.00  0.00    -0.311 OA 
BRANCH   3   4
HETATM    4  C   UNL     1     -11.794  14.551  68.405  1.00  0.00    -0.316 A  
HETATM    5  C   UNL     1     -10.640  16.724  69.574  1.00  0.00    -0.283 A  
HETATM    6  C   UNL     1     -10.332  16.474  68.242  1.00  0.00    -0.293 A  
HETATM    7  H1  UNL     1     -12.917  14.339  71.605  1.00  0.00     0.000 HD 
HETATM    8  N   UNL     1     -11.464  15.961  70.329  1.00  0.00    -0.343 NA 
HETATM    9  C   UNL     1     -10.932  15.364  67.659  1.00  0.00    -0.315 A  
HETATM   10  C   UNL     1     -12.008  14.876  69.746  1.00  0.00    -0.323 A  
HETATM   11  H2  UNL     1     -12.371  13.160  70.604  1.00  0.00     0.000 HD 
HETATM   12  N   UNL     1     -12.761  14.102  70.625  1.00  0.00    -0.333 NA 
BRANCH   6  13
HETATM   13  C   UNL     1      -9.392  17.315  67.533  1.00  0.00    -0.236 A  
HETATM   14  N   UNL     1      -8.479  18.712  65.984  1.00  0.00    -0.495 NA 
HETATM   15  C   UNL     1      -9.582  18.073  66.361  1.00  0.00    -0.295 A  
HETATM   16  C   UNL     1      -8.072  17.541  67.873  1.00  0.00    -0.230 A  
HETATM   17  N   UNL     1      -7.562  18.363  66.902  1.00  0.00    -0.212 NA 
BRANCH  17  18
HETATM   18  C   UNL     1      -6.181  18.831  66.780  1.00  0.00    -0.177 C  
HETATM   19  C   UNL     1      -6.087  20.235  66.168  1.00  0.00    -0.206 C  
HETATM   20  C   UNL     1      -6.437  21.335  67.172  1.00  0.00    -0.341 C  
HETATM   21  N   UNL     1      -5.642  21.228  68.396  1.00  0.00    -0.383 NA 
HETATM   22  C   UNL     1      -5.797  19.924  69.043  1.00  0.00    -0.254 C  
HETATM   23  H   UNL     1      -5.855  21.988  69.042  1.00  0.00     0.000 HD 
HETATM   24  C   UNL     1      -5.418  18.776  68.109  1.00  0.00    -0.179 C  
ENDBRANCH  17  18
ENDBRANCH   6  13
ENDBRANCH   3   4
ENDBRANCH   2   3
BRANCH   2  25
HETATM   25  C   UNL     1     -11.071  11.726  66.417  1.00  0.00    -0.360 A  
HETATM   26 CL   UNL     1     -12.054  11.116  68.940  1.00  0.00    -0.363 Cl 
HETATM   27  C   UNL     1     -10.395  11.286  65.250  1.00  0.00    -0.280 A  
HETATM   28 CL   UNL     1     -10.248  12.266  63.827  1.00  0.00    -0.429 Cl 
HETATM   29  F   UNL     1     -10.640   8.671  68.410  1.00  0.00    -0.231 F  
HETATM   30  C   UNL     1      -9.820  10.010  65.167  1.00  0.00    -0.388 A  
HETATM   31  C   UNL     1      -9.898   9.138  66.243  1.00  0.00    -0.359 A  
HETATM   32  C   UNL     1     -11.169  10.805  67.484  1.00  0.00    -0.274 A  
HETATM   33  C   UNL     1     -10.569   9.538  67.389  1.00  0.00    -0.271 A  
ENDBRANCH   2  25
TORSDOF 5
ENDMDL
MODEL       51
REMARK 921   NORMALIZED FREE ENERGY PREDICTED BY IDOCK:   -6.85 KCAL/MOL
REMARK 922        TOTAL FREE ENERGY PREDICTED BY IDOCK:   -9.53 KCAL/MOL
REMARK 923 INTER-LIGAND FREE ENERGY PREDICTED BY IDOCK:   -8.80 KCAL/MOL
REMARK 924 INTRA-LIGAND FREE ENERGY PREDICTED BY IDOCK:   -0.73 KCAL/MOL
REMARK 927      BINDING AFFINITY PREDICTED BY RF-SCORE:    0.00 PKD
ROOT
HETATM    1  C   UNL     1      -7.583   6.867  71.066  1.00  0.00    -0.087 C  
HETATM    2  C   UNL     1      -8.935   7.346  70.535  1.00  0.00    -0.156 C  
ENDROOT
BRANCH   2   3
HETATM    3  O   UNL     1      -9.072   8.712  70.933  1.00  0.00    -0.155 OA 
BRANCH   3   4
HETATM    4  C   UNL     1     -10.245   9.382  70.736  1.00  0.00    -0.299 A  
HETATM    5  C   UNL     1     -12.399  10.960  70.196  1.00  0.00    -0.322 A  
HETATM    6  C   UNL     1     -11.252  11.161  69.438  1.00  0.00    -0.334 A  
HETATM    7  H1  UNL     1     -12.489   8.375  73.080  1.00  0.00     0.000 HD 
HETATM    8  N   UNL     1     -12.516  10.043  71.186  1.00  0.00    -0.349 NA 
HETATM    9  C   UNL     1     -10.163  10.345  69.722  1.00  0.00    -0.228 A  
HETATM   10  C   UNL     1     -11.435   9.287  71.459  1.00  0.00    -0.384 A  
HETATM   11  H2  UNL     1     -10.879   8.656  73.220  1.00  0.00     0.000 HD 
HETATM   12  N   UNL     1     -11.619   8.444  72.551  1.00  0.00    -0.381 NA 
BRANCH   6  13
HETATM   13  C   UNL     1     -11.203  12.207  68.439  1.00  0.00    -0.314 A  
HETATM   14  N   UNL     1     -11.633  14.128  67.295  1.00  0.00    -0.353 NA 
HETATM   15  C   UNL     1     -11.925  13.415  68.378  1.00  0.00    -0.324 A  
HETATM   16  C   UNL     1     -10.416  12.224  67.304  1.00  0.00    -0.218 A  
HETATM   17  N   UNL     1     -10.727  13.382  66.640  1.00  0.00    -0.280 NA 
BRANCH  17  18
HETATM   18  C   UNL     1     -10.209  13.820  65.344  1.00  0.00    -0.326 C  
HETATM   19  C   UNL     1     -10.383  12.756  64.251  1.00  0.00    -0.402 C  
HETATM   20  C   UNL     1     -11.817  12.687  63.725  1.00  0.00    -0.498 C  
HETATM   21  N   UNL     1     -12.299  13.995  63.282  1.00  0.00    -1.145 NA 
HETATM   22  C   UNL     1     -12.229  14.999  64.346  1.00  0.00    -0.337 C  
HETATM   23  H   UNL     1     -13.242  13.931  62.897  1.00  0.00     0.000 HD 
HETATM   24  C   UNL     1     -10.810  15.155  64.888  1.00  0.00    -0.437 C  
ENDBRANCH  17  18
ENDBRANCH   6  13
ENDBRANCH   3   4
ENDBRANCH   2   3
BRANCH   2  25
HETATM   25  C   UNL     1      -9.017   7.157  69.019  1.00  0.00    -0.134 A  
HETATM   26 CL   UNL     1     -11.528   5.985  69.168  1.00  0.00    -0.238 Cl 
HETATM   27  C   UNL     1      -7.967   7.654  68.204  1.00  0.00    -0.123 A  
HETATM   28 CL   UNL     1      -6.595   8.493  68.853  1.00  0.00    -0.052 Cl 
HETATM   29  F   UNL     1     -11.116   5.794  66.330  1.00  0.00    -0.327 F  
HETATM   30  C   UNL     1      -7.987   7.515  66.809  1.00  0.00    -0.115 A  
HETATM   31  C   UNL     1      -9.049   6.876  66.187  1.00  0.00    -0.144 A  
HETATM   32  C   UNL     1     -10.104   6.545  68.356  1.00  0.00    -0.160 A  
HETATM   33  C   UNL     1     -10.096   6.398  66.960  1.00  0.00    -0.174 A  
ENDBRANCH   2  25
TORSDOF 5
ENDMDL
MODEL       52
REMARK 921   NORMALIZED FREE ENERGY PREDICTED BY IDOCK:   -6.85 KCAL/MOL
REMARK 922        TOTAL FREE ENERGY PREDICTED BY IDOCK:   -9.53 KCAL/MOL
REMARK 923 INTER-LIGAND FREE ENERGY PREDICTED BY IDOCK:   -8.52 KCAL/MOL
REMARK 924 INTRA-LIGAND FREE ENERGY PREDICTED BY IDOCK:   -1.01 KCAL/MOL
REMARK 927      BINDING AFFINITY PREDICTED BY RF-SCORE:    0.00 PKD
ROOT
HETATM    1  C   UNL     1     -12.883  13.890  65.669  1.00  0.00    -0.467 C  
HETATM    2  C   UNL     1     -11.829  13.521  66.714  1.00  0.00    -0.406 C  
ENDROOT
BRANCH   2   3
HETATM    3  O   UNL     1     -10.792  12.822  66.023  1.00  0.00    -0.270 OA 
BRANCH   3   4
HETATM    4  C   UNL     1     -10.580  11.492  66.243  1.00  0.00    -0.263 A  
HETATM    5  C   UNL     1     -10.107   8.920  67.007  1.00  0.00    -0.261 A  
HETATM    6  C   UNL     1     -10.501   9.818  67.992  1.00  0.00    -0.271 A  
HETATM    7  H1  UNL     1      -9.539  10.052  63.347  1.00  0.00     0.000 HD 
HETATM    8  N   UNL     1      -9.936   9.236  65.702  1.00  0.00    -0.196 NA 
HETATM    9  C   UNL     1     -10.743  11.126  67.585  1.00  0.00    -0.273 A  
HETATM   10  C   UNL     1     -10.149  10.516  65.343  1.00  0.00    -0.291 A  
HETATM   11  H2  UNL     1      -9.165  11.516  63.985  1.00  0.00     0.000 HD 
HETATM   12  N   UNL     1      -9.855  10.765  64.005  1.00  0.00    -0.304 NA 
BRANCH   6  13
HETATM   13  C   UNL     1     -10.600   9.400  69.374  1.00  0.00    -0.235 A  
HETATM   14  N   UNL     1     -11.257   9.257  71.549  1.00  0.00    -0.364 NA 
HETATM   15  C   UNL     1     -11.466   9.863  70.385  1.00  0.00    -0.301 A  
HETATM   16  C   UNL     1      -9.833   8.437  69.998  1.00  0.00    -0.182 A  
HETATM   17  N   UNL     1     -10.246   8.405  71.304  1.00  0.00    -0.201 NA 
BRANCH  17  18
HETATM   18  C   UNL     1      -9.686   7.594  72.386  1.00  0.00    -0.178 C  
HETATM   19  C   UNL     1     -10.762   7.083  73.355  1.00  0.00    -0.379 C  
HETATM   20  C   UNL     1     -11.544   5.898  72.787  1.00  0.00    -0.189 C  
HETATM   21  N   UNL     1     -10.658   4.818  72.350  1.00  0.00    -0.202 NA 
HETATM   22  C   UNL     1      -9.687   5.272  71.352  1.00  0.00    -0.164 C  
HETATM   23  H   UNL     1     -11.191   4.018  72.009  1.00  0.00     0.000 HD 
HETATM   24  C   UNL     1      -8.835   6.428  71.871  1.00  0.00    -0.138 C  
ENDBRANCH  17  18
ENDBRANCH   6  13
ENDBRANCH   3   4
ENDBRANCH   2   3
BRANCH   2  25
HETATM   25  C   UNL     1     -11.325  14.772  67.435  1.00  0.00    -0.361 A  
HETATM   26 CL   UNL     1     -10.719  16.060  65.052  1.00  0.00    -0.443 Cl 
HETATM   27  C   UNL     1     -11.416  14.838  68.849  1.00  0.00    -0.297 A  
HETATM   28 CL   UNL     1     -12.101  13.563  69.804  1.00  0.00    -0.387 Cl 
HETATM   29  F   UNL     1      -9.823  18.080  66.889  1.00  0.00    -0.282 F  
HETATM   30  C   UNL     1     -10.975  15.960  69.565  1.00  0.00    -0.311 A  
HETATM   31  C   UNL     1     -10.428  17.044  68.896  1.00  0.00    -0.347 A  
HETATM   32  C   UNL     1     -10.800  15.906  66.775  1.00  0.00    -0.228 A  
HETATM   33  C   UNL     1     -10.345  17.012  67.512  1.00  0.00    -0.329 A  
ENDBRANCH   2  25
TORSDOF 5
ENDMDL
MODEL       53
REMARK 921   NORMALIZED FREE ENERGY PREDICTED BY IDOCK:   -6.81 KCAL/MOL
REMARK 922        TOTAL FREE ENERGY PREDICTED BY IDOCK:   -9.47 KCAL/MOL
REMARK 923 INTER-LIGAND FREE ENERGY PREDICTED BY IDOCK:   -8.28 KCAL/MOL
REMARK 924 INTRA-LIGAND FREE ENERGY PREDICTED BY IDOCK:   -1.19 KCAL/MOL
REMARK 927      BINDING AFFINITY PREDICTED BY RF-SCORE:    0.00 PKD
ROOT
HETATM    1  C   UNL     1     -10.799  10.177  68.435  1.00  0.00    -0.284 C  
HETATM    2  C   UNL     1     -10.256  11.556  68.057  1.00  0.00    -0.191 C  
ENDROOT
BRANCH   2   3
HETATM    3  O   UNL     1      -8.864  11.388  67.782  1.00  0.00    -0.136 OA 
BRANCH   3   4
HETATM    4  C   UNL     1      -7.931  12.163  68.408  1.00  0.00    -0.152 A  
HETATM    5  C   UNL     1      -6.135  13.943  69.421  1.00  0.00    -0.104 A  
HETATM    6  C   UNL     1      -7.151  14.446  68.616  1.00  0.00    -0.116 A  
HETATM    7  H1  UNL     1      -5.763  10.144  70.071  1.00  0.00     0.000 HD 
HETATM    8  N   UNL     1      -5.974  12.635  69.728  1.00  0.00    -0.119 NA 
HETATM    9  C   UNL     1      -8.062  13.525  68.110  1.00  0.00    -0.154 A  
HETATM   10  C   UNL     1      -6.854  11.763  69.200  1.00  0.00    -0.106 A  
HETATM   11  H2  UNL     1      -6.466   9.945  68.602  1.00  0.00     0.000 HD 
HETATM   12  N   UNL     1      -6.551  10.436  69.492  1.00  0.00    -0.062 NA 
BRANCH   6  13
HETATM   13  C   UNL     1      -7.207  15.856  68.295  1.00  0.00    -0.118 A  
HETATM   14  N   UNL     1      -6.689  17.905  67.447  1.00  0.00    -0.174 NA 
HETATM   15  C   UNL     1      -6.331  16.626  67.504  1.00  0.00    -0.162 A  
HETATM   16  C   UNL     1      -8.160  16.759  68.723  1.00  0.00    -0.252 A  
HETATM   17  N   UNL     1      -7.793  17.976  68.210  1.00  0.00    -0.278 NA 
BRANCH  17  18
HETATM   18  C   UNL     1      -8.448  19.263  68.442  1.00  0.00    -0.351 C  
HETATM   19  C   UNL     1      -8.237  20.247  67.282  1.00  0.00    -0.393 C  
HETATM   20  C   UNL     1      -9.133  19.936  66.082  1.00  0.00    -0.322 C  
HETATM   21  N   UNL     1     -10.544  19.848  66.463  1.00  0.00    -0.460 NA 
HETATM   22  C   UNL     1     -10.773  18.843  67.503  1.00  0.00    -0.434 C  
HETATM   23  H   UNL     1     -11.136  19.679  65.650  1.00  0.00     0.000 HD 
HETATM   24  C   UNL     1      -9.942  19.119  68.754  1.00  0.00    -0.493 C  
ENDBRANCH  17  18
ENDBRANCH   6  13
ENDBRANCH   3   4
ENDBRANCH   2   3
BRANCH   2  25
HETATM   25  C   UNL     1     -11.031  12.132  66.870  1.00  0.00    -0.317 A  
HETATM   26 CL   UNL     1     -10.144  10.139  65.154  1.00  0.00    -0.383 Cl 
HETATM   27  C   UNL     1     -11.864  13.263  67.073  1.00  0.00    -0.390 A  
HETATM   28 CL   UNL     1     -12.063  14.013  68.624  1.00  0.00    -0.374 Cl 
HETATM   29  F   UNL     1     -11.694  11.677  63.286  1.00  0.00    -0.490 F  
HETATM   30  C   UNL     1     -12.601  13.833  66.026  1.00  0.00    -0.458 A  
HETATM   31  C   UNL     1     -12.529  13.298  64.749  1.00  0.00    -0.439 A  
HETATM   32  C   UNL     1     -11.006  11.583  65.568  1.00  0.00    -0.229 A  
HETATM   33  C   UNL     1     -11.736  12.181  64.529  1.00  0.00    -0.338 A  
ENDBRANCH   2  25
TORSDOF 5
ENDMDL
MODEL       54
REMARK 921   NORMALIZED FREE ENERGY PREDICTED BY IDOCK:   -6.79 KCAL/MOL
REMARK 922        TOTAL FREE ENERGY PREDICTED BY IDOCK:   -9.45 KCAL/MOL
REMARK 923 INTER-LIGAND FREE ENERGY PREDICTED BY IDOCK:   -8.36 KCAL/MOL
REMARK 924 INTRA-LIGAND FREE ENERGY PREDICTED BY IDOCK:   -1.09 KCAL/MOL
REMARK 927      BINDING AFFINITY PREDICTED BY RF-SCORE:    0.00 PKD
ROOT
HETATM    1  C   UNL     1     -12.154  13.940  66.823  1.00  0.00    -0.476 C  
HETATM    2  C   UNL     1     -11.290  13.421  67.973  1.00  0.00    -0.286 C  
ENDROOT
BRANCH   2   3
HETATM    3  O   UNL     1      -9.965  13.902  67.741  1.00  0.00    -0.232 OA 
BRANCH   3   4
HETATM    4  C   UNL     1      -8.891  13.067  67.848  1.00  0.00    -0.193 A  
HETATM    5  C   UNL     1      -6.935  11.219  68.275  1.00  0.00    -0.071 A  
HETATM    6  C   UNL     1      -8.245  10.841  68.548  1.00  0.00    -0.136 A  
HETATM    7  H1  UNL     1      -6.068  14.809  67.111  1.00  0.00     0.000 HD 
HETATM    8  N   UNL     1      -6.566  12.439  67.821  1.00  0.00    -0.098 NA 
HETATM    9  C   UNL     1      -9.231  11.794  68.321  1.00  0.00    -0.188 A  
HETATM   10  C   UNL     1      -7.540  13.351  67.638  1.00  0.00    -0.174 A  
HETATM   11  H2  UNL     1      -7.399  15.273  67.949  1.00  0.00     0.000 HD 
HETATM   12  N   UNL     1      -7.055  14.601  67.263  1.00  0.00    -0.195 NA 
BRANCH   6  13
HETATM   13  C   UNL     1      -8.536   9.530  69.088  1.00  0.00    -0.131 A  
HETATM   14  N   UNL     1      -8.857   7.282  69.258  1.00  0.00    -0.137 NA 
HETATM   15  C   UNL     1      -8.509   8.276  68.447  1.00  0.00    -0.129 A  
HETATM   16  C   UNL     1      -8.919   9.241  70.383  1.00  0.00    -0.239 A  
HETATM   17  N   UNL     1      -9.124   7.887  70.429  1.00  0.00    -0.153 NA 
BRANCH  17  18
HETATM   18  C   UNL     1      -9.610   7.107  71.568  1.00  0.00    -0.157 C  
HETATM   19  C   UNL     1     -10.192   7.990  72.679  1.00  0.00    -0.385 C  
HETATM   20  C   UNL     1     -11.596   8.498  72.347  1.00  0.00    -0.354 C  
HETATM   21  N   UNL     1     -12.504   7.403  72.000  1.00  0.00    -0.436 NA 
HETATM   22  C   UNL     1     -12.005   6.609  70.875  1.00  0.00    -0.355 C  
HETATM   23  H   UNL     1     -13.446   7.748  71.818  1.00  0.00     0.000 HD 
HETATM   24  C   UNL     1     -10.621   6.029  71.158  1.00  0.00    -0.303 C  
ENDBRANCH  17  18
ENDBRANCH   6  13
ENDBRANCH   3   4
ENDBRANCH   2   3
BRANCH   2  25
HETATM   25  C   UNL     1     -11.859  13.872  69.320  1.00  0.00    -0.394 A  
HETATM   26 CL   UNL     1     -12.283  11.262  70.163  1.00  0.00    -0.404 Cl 
HETATM   27  C   UNL     1     -11.881  15.256  69.631  1.00  0.00    -0.339 A  
HETATM   28 CL   UNL     1     -11.265  16.468  68.555  1.00  0.00    -0.345 Cl 
HETATM   29  F   UNL     1     -13.337  12.645  72.452  1.00  0.00    -0.599 F  
HETATM   30  C   UNL     1     -12.386  15.730  70.850  1.00  0.00    -0.451 A  
HETATM   31  C   UNL     1     -12.885  14.842  71.791  1.00  0.00    -0.404 A  
HETATM   32  C   UNL     1     -12.338  12.987  70.312  1.00  0.00    -0.241 A  
HETATM   33  C   UNL     1     -12.858  13.483  71.518  1.00  0.00    -0.352 A  
ENDBRANCH   2  25
TORSDOF 5
ENDMDL
MODEL       55
REMARK 921   NORMALIZED FREE ENERGY PREDICTED BY IDOCK:   -6.79 KCAL/MOL
REMARK 922        TOTAL FREE ENERGY PREDICTED BY IDOCK:   -9.44 KCAL/MOL
REMARK 923 INTER-LIGAND FREE ENERGY PREDICTED BY IDOCK:   -9.44 KCAL/MOL
REMARK 924 INTRA-LIGAND FREE ENERGY PREDICTED BY IDOCK:   -0.00 KCAL/MOL
REMARK 927      BINDING AFFINITY PREDICTED BY RF-SCORE:    0.00 PKD
ROOT
HETATM    1  C   UNL     1     -12.088  11.821  70.541  1.00  0.00    -0.439 C  
HETATM    2  C   UNL     1     -11.411  10.638  69.846  1.00  0.00    -0.317 C  
ENDROOT
BRANCH   2   3
HETATM    3  O   UNL     1     -10.261  11.158  69.177  1.00  0.00    -0.208 OA 
BRANCH   3   4
HETATM    4  C   UNL     1     -10.340  11.585  67.884  1.00  0.00    -0.183 A  
HETATM    5  C   UNL     1     -10.612  12.731  65.427  1.00  0.00    -0.287 A  
HETATM    6  C   UNL     1     -10.505  13.581  66.521  1.00  0.00    -0.284 A  
HETATM    7  H1  UNL     1     -10.691   8.882  65.855  1.00  0.00     0.000 HD 
HETATM    8  N   UNL     1     -10.599  11.379  65.499  1.00  0.00    -0.274 NA 
HETATM    9  C   UNL     1     -10.362  12.981  67.767  1.00  0.00    -0.227 A  
HETATM   10  C   UNL     1     -10.489  10.826  66.721  1.00  0.00    -0.251 A  
HETATM   11  H2  UNL     1     -11.345   9.180  67.329  1.00  0.00     0.000 HD 
HETATM   12  N   UNL     1     -10.581   9.437  66.704  1.00  0.00    -0.157 NA 
BRANCH   6  13
HETATM   13  C   UNL     1     -10.589  15.015  66.351  1.00  0.00    -0.310 A  
HETATM   14  N   UNL     1     -10.688  17.079  65.394  1.00  0.00    -0.548 NA 
HETATM   15  C   UNL     1     -10.631  15.771  65.163  1.00  0.00    -0.411 A  
HETATM   16  C   UNL     1     -10.638  15.961  67.357  1.00  0.00    -0.315 A  
HETATM   17  N   UNL     1     -10.672  17.181  66.734  1.00  0.00    -0.171 NA 
BRANCH  17  18
HETATM   18  C   UNL     1     -10.657  18.497  67.373  1.00  0.00    -0.424 C  
HETATM   19  C   UNL     1      -9.860  18.505  68.685  1.00  0.00    -0.419 C  
HETATM   20  C   UNL     1      -8.349  18.533  68.451  1.00  0.00    -0.332 C  
HETATM   21  N   UNL     1      -7.953  19.636  67.575  1.00  0.00    -0.273 NA 
HETATM   22  C   UNL     1      -8.636  19.586  66.281  1.00  0.00    -0.361 C  
HETATM   23  H   UNL     1      -6.941  19.669  67.457  1.00  0.00     0.000 HD 
HETATM   24  C   UNL     1     -10.155  19.603  66.437  1.00  0.00    -0.573 C  
ENDBRANCH  17  18
ENDBRANCH   6  13
ENDBRANCH   3   4
ENDBRANCH   2   3
BRANCH   2  25
HETATM   25  C   UNL     1     -11.067   9.544  70.859  1.00  0.00    -0.406 A  
HETATM   26 CL   UNL     1      -8.341   9.790  70.394  1.00  0.00    -0.185 Cl 
HETATM   27  C   UNL     1     -12.110   8.950  71.615  1.00  0.00    -0.346 A  
HETATM   28 CL   UNL     1     -13.769   9.428  71.459  1.00  0.00    -0.400 Cl 
HETATM   29  F   UNL     1      -8.275   7.644  72.305  1.00  0.00    -0.101 F  
HETATM   30  C   UNL     1     -11.856   7.947  72.561  1.00  0.00    -0.390 A  
HETATM   31  C   UNL     1     -10.560   7.504  72.779  1.00  0.00    -0.365 A  
HETATM   32  C   UNL     1      -9.752   9.103  71.128  1.00  0.00    -0.290 A  
HETATM   33  C   UNL     1      -9.520   8.083  72.066  1.00  0.00    -0.197 A  
ENDBRANCH   2  25
TORSDOF 5
ENDMDL
MODEL       56
REMARK 921   NORMALIZED FREE ENERGY PREDICTED BY IDOCK:   -6.78 KCAL/MOL
REMARK 922        TOTAL FREE ENERGY PREDICTED BY IDOCK:   -9.43 KCAL/MOL
REMARK 923 INTER-LIGAND FREE ENERGY PREDICTED BY IDOCK:   -8.76 KCAL/MOL
REMARK 924 INTRA-LIGAND FREE ENERGY PREDICTED BY IDOCK:   -0.67 KCAL/MOL
REMARK 927      BINDING AFFINITY PREDICTED BY RF-SCORE:    0.00 PKD
ROOT
HETATM    1  C   UNL     1     -10.614  18.271  67.578  1.00  0.00    -0.432 C  
HETATM    2  C   UNL     1      -9.718  17.036  67.469  1.00  0.00    -0.251 C  
ENDROOT
BRANCH   2   3
HETATM    3  O   UNL     1      -9.897  16.514  66.151  1.00  0.00    -0.297 OA 
BRANCH   3   4
HETATM    4  C   UNL     1     -10.814  15.531  65.910  1.00  0.00    -0.313 A  
HETATM    5  C   UNL     1     -12.452  13.373  65.625  1.00  0.00    -0.464 A  
HETATM    6  C   UNL     1     -11.610  13.397  66.731  1.00  0.00    -0.404 A  
HETATM    7  H1  UNL     1     -12.362  16.177  62.955  1.00  0.00     0.000 HD 
HETATM    8  N   UNL     1     -12.506  14.340  64.680  1.00  0.00    -0.631 NA 
HETATM    9  C   UNL     1     -10.784  14.507  66.864  1.00  0.00    -0.288 A  
HETATM   10  C   UNL     1     -11.674  15.389  64.819  1.00  0.00    -0.232 A  
HETATM   11  H2  UNL     1     -10.788  16.365  63.378  1.00  0.00     0.000 HD 
HETATM   12  N   UNL     1     -11.733  16.281  63.752  1.00  0.00    -0.900 NA 
BRANCH   6  13
HETATM   13  C   UNL     1     -11.580  12.286  67.658  1.00  0.00    -0.421 A  
HETATM   14  N   UNL     1     -11.878  11.017  69.525  1.00  0.00    -0.307 NA 
HETATM   15  C   UNL     1     -12.118  12.194  68.957  1.00  0.00    -0.153 A  
HETATM   16  C   UNL     1     -10.990  11.055  67.447  1.00  0.00    -0.291 A  
HETATM   17  N   UNL     1     -11.173  10.340  68.602  1.00  0.00    -0.234 NA 
BRANCH  17  18
HETATM   18  C   UNL     1     -10.665   9.000  68.898  1.00  0.00    -0.123 C  
HETATM   19  C   UNL     1      -9.143   8.897  68.726  1.00  0.00    -0.134 C  
HETATM   20  C   UNL     1      -8.380   9.514  69.899  1.00  0.00    -0.170 C  
HETATM   21  N   UNL     1      -8.814   8.963  71.183  1.00  0.00    -0.220 NA 
HETATM   22  C   UNL     1     -10.251   9.141  71.402  1.00  0.00    -0.332 C  
HETATM   23  H   UNL     1      -8.272   9.352  71.954  1.00  0.00     0.000 HD 
HETATM   24  C   UNL     1     -11.080   8.505  70.288  1.00  0.00    -0.222 C  
ENDBRANCH  17  18
ENDBRANCH   6  13
ENDBRANCH   3   4
ENDBRANCH   2   3
BRANCH   2  25
HETATM   25  C   UNL     1      -8.262  17.400  67.771  1.00  0.00    -0.216 A  
HETATM   26 CL   UNL     1      -8.355  19.658  66.159  1.00  0.00    -0.357 Cl 
HETATM   27  C   UNL     1      -7.531  16.610  68.694  1.00  0.00    -0.211 A  
HETATM   28 CL   UNL     1      -8.225  15.253  69.522  1.00  0.00    -0.230 Cl 
HETATM   29  F   UNL     1      -5.606  19.812  66.983  1.00  0.00    -0.172 F  
HETATM   30  C   UNL     1      -6.196  16.896  69.015  1.00  0.00    -0.187 A  
HETATM   31  C   UNL     1      -5.551  17.972  68.424  1.00  0.00    -0.165 A  
HETATM   32  C   UNL     1      -7.594  18.513  67.212  1.00  0.00    -0.222 A  
HETATM   33  C   UNL     1      -6.251  18.771  67.531  1.00  0.00    -0.183 A  
ENDBRANCH   2  25
TORSDOF 5
ENDMDL
MODEL       57
REMARK 921   NORMALIZED FREE ENERGY PREDICTED BY IDOCK:   -6.75 KCAL/MOL
REMARK 922        TOTAL FREE ENERGY PREDICTED BY IDOCK:   -9.39 KCAL/MOL
REMARK 923 INTER-LIGAND FREE ENERGY PREDICTED BY IDOCK:   -8.54 KCAL/MOL
REMARK 924 INTRA-LIGAND FREE ENERGY PREDICTED BY IDOCK:   -0.84 KCAL/MOL
REMARK 927      BINDING AFFINITY PREDICTED BY RF-SCORE:    0.00 PKD
ROOT
HETATM    1  C   UNL     1     -12.641  12.094  63.818  1.00  0.00    -0.585 C  
HETATM    2  C   UNL     1     -11.349  12.513  64.523  1.00  0.00    -0.330 C  
ENDROOT
BRANCH   2   3
HETATM    3  O   UNL     1     -11.709  13.511  65.479  1.00  0.00    -0.321 OA 
BRANCH   3   4
HETATM    4  C   UNL     1     -11.200  14.775  65.393  1.00  0.00    -0.347 A  
HETATM    5  C   UNL     1     -10.065  17.247  65.533  1.00  0.00     0.072 A  
HETATM    6  C   UNL     1      -9.572  16.267  66.387  1.00  0.00    -0.316 A  
HETATM    7  H1  UNL     1     -13.045  16.551  63.161  1.00  0.00     0.000 HD 
HETATM    8  N   UNL     1     -11.070  17.060  64.647  1.00  0.00    -1.014 NA 
HETATM    9  C   UNL     1     -10.159  15.010  66.300  1.00  0.00    -0.298 A  
HETATM   10  C   UNL     1     -11.639  15.841  64.606  1.00  0.00    -0.218 A  
HETATM   11  H2  UNL     1     -13.525  15.453  64.280  1.00  0.00     0.000 HD 
HETATM   12  N   UNL     1     -12.724  15.772  63.736  1.00  0.00    -0.325 NA 
BRANCH   6  13
HETATM   13  C   UNL     1      -8.532  16.579  67.344  1.00  0.00    -0.194 A  
HETATM   14  N   UNL     1      -7.359  16.739  69.289  1.00  0.00    -0.213 NA 
HETATM   15  C   UNL     1      -8.465  16.273  68.718  1.00  0.00    -0.240 A  
HETATM   16  C   UNL     1      -7.363  17.268  67.092  1.00  0.00    -0.170 A  
HETATM   17  N   UNL     1      -6.706  17.361  68.291  1.00  0.00    -0.178 NA 
BRANCH  17  18
HETATM   18  C   UNL     1      -5.451  18.065  68.557  1.00  0.00    -0.165 C  
HETATM   19  C   UNL     1      -5.133  19.121  67.490  1.00  0.00    -0.165 C  
HETATM   20  C   UNL     1      -5.958  20.396  67.665  1.00  0.00    -0.222 C  
HETATM   21  N   UNL     1      -5.836  20.944  69.017  1.00  0.00    -0.347 NA 
HETATM   22  C   UNL     1      -6.230  19.976  70.042  1.00  0.00    -0.359 C  
HETATM   23  H   UNL     1      -6.359  21.815  69.111  1.00  0.00     0.000 HD 
HETATM   24  C   UNL     1      -5.409  18.691  69.956  1.00  0.00    -0.222 C  
ENDBRANCH  17  18
ENDBRANCH   6  13
ENDBRANCH   3   4
ENDBRANCH   2   3
BRANCH   2  25
HETATM   25  C   UNL     1     -10.665  11.300  65.157  1.00  0.00    -0.312 A  
HETATM   26 CL   UNL     1     -11.889  11.730  67.612  1.00  0.00    -0.313 Cl 
HETATM   27  C   UNL     1      -9.840  10.473  64.353  1.00  0.00    -0.341 A  
HETATM   28 CL   UNL     1      -9.589  10.763  62.661  1.00  0.00    -0.306 Cl 
HETATM   29  F   UNL     1     -10.292   9.443  68.305  1.00  0.00    -0.197 F  
HETATM   30  C   UNL     1      -9.190   9.346  64.875  1.00  0.00    -0.246 A  
HETATM   31  C   UNL     1      -9.340   9.013  66.214  1.00  0.00    -0.284 A  
HETATM   32  C   UNL     1     -10.831  10.916  66.507  1.00  0.00    -0.171 A  
HETATM   33  C   UNL     1     -10.156   9.795  67.017  1.00  0.00    -0.218 A  
ENDBRANCH   2  25
TORSDOF 5
ENDMDL
MODEL       58
REMARK 921   NORMALIZED FREE ENERGY PREDICTED BY IDOCK:   -6.74 KCAL/MOL
REMARK 922        TOTAL FREE ENERGY PREDICTED BY IDOCK:   -9.38 KCAL/MOL
REMARK 923 INTER-LIGAND FREE ENERGY PREDICTED BY IDOCK:   -8.12 KCAL/MOL
REMARK 924 INTRA-LIGAND FREE ENERGY PREDICTED BY IDOCK:   -1.26 KCAL/MOL
REMARK 927      BINDING AFFINITY PREDICTED BY RF-SCORE:    0.00 PKD
ROOT
HETATM    1  C   UNL     1     -12.156  13.561  67.457  1.00  0.00    -0.340 C  
HETATM    2  C   UNL     1     -11.445  12.902  68.641  1.00  0.00    -0.308 C  
ENDROOT
BRANCH   2   3
HETATM    3  O   UNL     1     -10.077  13.307  68.575  1.00  0.00    -0.239 OA 
BRANCH   3   4
HETATM    4  C   UNL     1      -9.093  12.400  68.310  1.00  0.00    -0.183 A  
HETATM    5  C   UNL     1      -7.276  10.391  68.013  1.00  0.00    -0.084 A  
HETATM    6  C   UNL     1      -8.513  10.061  68.556  1.00  0.00    -0.115 A  
HETATM    7  H1  UNL     1      -6.375  14.047  67.108  1.00  0.00     0.000 HD 
HETATM    8  N   UNL     1      -6.912  11.637  67.630  1.00  0.00    -0.087 NA 
HETATM    9  C   UNL     1      -9.430  11.097  68.697  1.00  0.00    -0.196 A  
HETATM   10  C   UNL     1      -7.810  12.625  67.806  1.00  0.00    -0.154 A  
HETATM   11  H2  UNL     1      -7.417  14.472  68.300  1.00  0.00     0.000 HD 
HETATM   12  N   UNL     1      -7.312  13.882  67.475  1.00  0.00    -0.176 NA 
BRANCH   6  13
HETATM   13  C   UNL     1      -8.790   8.709  68.990  1.00  0.00    -0.138 A  
HETATM   14  N   UNL     1      -8.540   6.499  69.479  1.00  0.00    -0.134 NA 
HETATM   15  C   UNL     1      -7.929   7.594  69.039  1.00  0.00    -0.121 A  
HETATM   16  C   UNL     1      -9.998   8.225  69.451  1.00  0.00    -0.188 A  
HETATM   17  N   UNL     1      -9.805   6.892  69.707  1.00  0.00    -0.170 NA 
BRANCH  17  18
HETATM   18  C   UNL     1     -10.810   5.925  70.147  1.00  0.00    -0.332 C  
HETATM   19  C   UNL     1     -10.247   4.906  71.148  1.00  0.00    -0.261 C  
HETATM   20  C   UNL     1     -10.101   5.488  72.554  1.00  0.00    -0.177 C  
HETATM   21  N   UNL     1     -11.352   6.078  73.034  1.00  0.00    -0.465 NA 
HETATM   22  C   UNL     1     -11.851   7.120  72.135  1.00  0.00    -0.277 C  
HETATM   23  H   UNL     1     -11.254   6.428  73.986  1.00  0.00     0.000 HD 
HETATM   24  C   UNL     1     -12.066   6.595  70.717  1.00  0.00    -0.364 C  
ENDBRANCH  17  18
ENDBRANCH   6  13
ENDBRANCH   3   4
ENDBRANCH   2   3
BRANCH   2  25
HETATM   25  C   UNL     1     -12.118  13.292  69.958  1.00  0.00    -0.385 A  
HETATM   26 CL   UNL     1     -11.802  16.006  69.467  1.00  0.00    -0.291 Cl 
HETATM   27  C   UNL     1     -12.654  12.274  70.788  1.00  0.00    -0.213 A  
HETATM   28 CL   UNL     1     -12.600  10.594  70.362  1.00  0.00    -0.413 Cl 
HETATM   29  F   UNL     1     -13.035  16.164  72.059  1.00  0.00    -0.498 F  
HETATM   30  C   UNL     1     -13.286  12.569  72.004  1.00  0.00    -0.524 A  
HETATM   31  C   UNL     1     -13.400  13.884  72.430  1.00  0.00    -0.629 A  
HETATM   32  C   UNL     1     -12.282  14.625  70.397  1.00  0.00    -0.329 A  
HETATM   33  C   UNL     1     -12.901  14.900  71.628  1.00  0.00    -0.328 A  
ENDBRANCH   2  25
TORSDOF 5
ENDMDL
MODEL       59
REMARK 921   NORMALIZED FREE ENERGY PREDICTED BY IDOCK:   -6.73 KCAL/MOL
REMARK 922        TOTAL FREE ENERGY PREDICTED BY IDOCK:   -9.37 KCAL/MOL
REMARK 923 INTER-LIGAND FREE ENERGY PREDICTED BY IDOCK:   -8.86 KCAL/MOL
REMARK 924 INTRA-LIGAND FREE ENERGY PREDICTED BY IDOCK:   -0.51 KCAL/MOL
REMARK 927      BINDING AFFINITY PREDICTED BY RF-SCORE:    0.00 PKD
ROOT
HETATM    1  C   UNL     1      -8.438   8.399  68.140  1.00  0.00    -0.132 C  
HETATM    2  C   UNL     1      -9.712   9.139  68.553  1.00  0.00    -0.155 C  
ENDROOT
BRANCH   2   3
HETATM    3  O   UNL     1     -10.421   9.438  67.350  1.00  0.00    -0.251 OA 
BRANCH   3   4
HETATM    4  C   UNL     1     -10.425  10.703  66.839  1.00  0.00    -0.249 A  
HETATM    5  C   UNL     1     -10.617  13.315  66.087  1.00  0.00    -0.287 A  
HETATM    6  C   UNL     1     -10.821  13.018  67.430  1.00  0.00    -0.269 A  
HETATM    7  H1  UNL     1      -9.966  10.529  63.477  1.00  0.00     0.000 HD 
HETATM    8  N   UNL     1     -10.339  12.398  65.131  1.00  0.00    -0.282 NA 
HETATM    9  C   UNL     1     -10.715  11.682  67.798  1.00  0.00    -0.244 A  
HETATM   10  C   UNL     1     -10.272  11.108  65.511  1.00  0.00    -0.263 A  
HETATM   11  H2  UNL     1     -10.845   9.562  64.467  1.00  0.00     0.000 HD 
HETATM   12  N   UNL     1     -10.078  10.233  64.447  1.00  0.00    -0.281 NA 
BRANCH   6  13
HETATM   13  C   UNL     1     -11.172  14.061  68.370  1.00  0.00    -0.292 A  
HETATM   14  N   UNL     1     -11.097  15.962  69.621  1.00  0.00    -0.293 NA 
HETATM   15  C   UNL     1     -10.478  15.245  68.688  1.00  0.00    -0.235 A  
HETATM   16  C   UNL     1     -12.293  14.098  69.175  1.00  0.00    -0.138 A  
HETATM   17  N   UNL     1     -12.191  15.241  69.923  1.00  0.00    -0.334 NA 
BRANCH  17  18
HETATM   18  C   UNL     1     -13.101  15.690  70.977  1.00  0.00    -0.427 C  
HETATM   19  C   UNL     1     -14.100  14.601  71.394  1.00  0.00    -0.469 C  
HETATM   20  C   UNL     1     -13.468  13.546  72.302  1.00  0.00    -0.571 C  
HETATM   21  N   UNL     1     -12.813  14.148  73.464  1.00  0.00    -0.319 NA 
HETATM   22  C   UNL     1     -11.789  15.120  73.078  1.00  0.00    -0.335 C  
HETATM   23  H   UNL     1     -12.429  13.434  74.083  1.00  0.00     0.000 HD 
HETATM   24  C   UNL     1     -12.362  16.234  72.205  1.00  0.00    -0.392 C  
ENDBRANCH  17  18
ENDBRANCH   6  13
ENDBRANCH   3   4
ENDBRANCH   2   3
BRANCH   2  25
HETATM   25  C   UNL     1     -10.531   8.295  69.533  1.00  0.00    -0.228 A  
HETATM   26 CL   UNL     1     -11.470  10.533  70.879  1.00  0.00    -0.383 Cl 
HETATM   27  C   UNL     1     -10.569   6.887  69.366  1.00  0.00    -0.229 A  
HETATM   28 CL   UNL     1      -9.742   6.073  68.076  1.00  0.00    -0.119 Cl 
HETATM   29  F   UNL     1     -12.722   8.496  72.474  1.00  0.00    -0.385 F  
HETATM   30  C   UNL     1     -11.305   6.061  70.227  1.00  0.00    -0.336 A  
HETATM   31  C   UNL     1     -12.020   6.613  71.281  1.00  0.00    -0.409 A  
HETATM   32  C   UNL     1     -11.298   8.834  70.589  1.00  0.00    -0.254 A  
HETATM   33  C   UNL     1     -12.013   7.989  71.454  1.00  0.00    -0.298 A  
ENDBRANCH   2  25
TORSDOF 5
ENDMDL
MODEL       60
REMARK 921   NORMALIZED FREE ENERGY PREDICTED BY IDOCK:   -6.73 KCAL/MOL
REMARK 922        TOTAL FREE ENERGY PREDICTED BY IDOCK:   -9.36 KCAL/MOL
REMARK 923 INTER-LIGAND FREE ENERGY PREDICTED BY IDOCK:   -9.17 KCAL/MOL
REMARK 924 INTRA-LIGAND FREE ENERGY PREDICTED BY IDOCK:   -0.19 KCAL/MOL
REMARK 927      BINDING AFFINITY PREDICTED BY RF-SCORE:    0.00 PKD
ROOT
HETATM    1  C   UNL     1     -12.733  13.361  65.767  1.00  0.00    -0.383 C  
HETATM    2  C   UNL     1     -11.588  13.089  66.743  1.00  0.00    -0.368 C  
ENDROOT
BRANCH   2   3
HETATM    3  O   UNL     1     -12.134  13.207  68.059  1.00  0.00    -0.325 OA 
BRANCH   3   4
HETATM    4  C   UNL     1     -11.859  14.297  68.833  1.00  0.00    -0.336 A  
HETATM    5  C   UNL     1     -11.077  16.553  70.145  1.00  0.00    -0.182 A  
HETATM    6  C   UNL     1     -10.804  16.477  68.784  1.00  0.00    -0.342 A  
HETATM    7  H1  UNL     1     -12.732  13.611  72.043  1.00  0.00     0.000 HD 
HETATM    8  N   UNL     1     -11.694  15.584  70.861  1.00  0.00    -0.336 NA 
HETATM    9  C   UNL     1     -11.213  15.321  68.128  1.00  0.00    -0.328 A  
HETATM   10  C   UNL     1     -12.053  14.464  70.205  1.00  0.00    -0.331 A  
HETATM   11  H2  UNL     1     -12.029  12.647  70.919  1.00  0.00     0.000 HD 
HETATM   12  N   UNL     1     -12.591  13.489  71.041  1.00  0.00    -0.365 NA 
BRANCH   6  13
HETATM   13  C   UNL     1     -10.086  17.540  68.116  1.00  0.00    -0.341 A  
HETATM   14  N   UNL     1      -9.527  19.176  66.634  1.00  0.00    -0.329 NA 
HETATM   15  C   UNL     1     -10.453  18.287  66.979  1.00  0.00    -0.385 A  
HETATM   16  C   UNL     1      -8.850  18.045  68.469  1.00  0.00    -0.295 A  
HETATM   17  N   UNL     1      -8.547  19.004  67.538  1.00  0.00    -0.283 NA 
BRANCH  17  18
HETATM   18  C   UNL     1      -7.310  19.778  67.440  1.00  0.00    -0.251 C  
HETATM   19  C   UNL     1      -6.129  19.090  68.140  1.00  0.00    -0.228 C  
HETATM   20  C   UNL     1      -5.550  17.941  67.314  1.00  0.00    -0.137 C  
HETATM   21  N   UNL     1      -5.197  18.367  65.958  1.00  0.00    -0.146 NA 
HETATM   22  C   UNL     1      -6.341  18.938  65.245  1.00  0.00    -0.279 C  
HETATM   23  H   UNL     1      -4.776  17.603  65.429  1.00  0.00     0.000 HD 
HETATM   24  C   UNL     1      -6.943  20.126  65.992  1.00  0.00    -0.291 C  
ENDBRANCH  17  18
ENDBRANCH   6  13
ENDBRANCH   3   4
ENDBRANCH   2   3
BRANCH   2  25
HETATM   25  C   UNL     1     -10.969  11.715  66.478  1.00  0.00    -0.349 A  
HETATM   26 CL   UNL     1     -11.771  10.731  68.946  1.00  0.00    -0.357 Cl 
HETATM   27  C   UNL     1     -10.371  11.460  65.217  1.00  0.00    -0.282 A  
HETATM   28 CL   UNL     1     -10.331  12.637  63.943  1.00  0.00    -0.434 Cl 
HETATM   29  F   UNL     1     -10.373   8.414  67.976  1.00  0.00    -0.222 F  
HETATM   30  C   UNL     1      -9.792  10.220  64.912  1.00  0.00    -0.404 A  
HETATM   31  C   UNL     1      -9.787   9.202  65.854  1.00  0.00    -0.305 A  
HETATM   32  C   UNL     1     -10.985  10.649  67.404  1.00  0.00    -0.298 A  
HETATM   33  C   UNL     1     -10.382   9.421  67.088  1.00  0.00    -0.258 A  
ENDBRANCH   2  25
TORSDOF 5
ENDMDL
MODEL       61
REMARK 921   NORMALIZED FREE ENERGY PREDICTED BY IDOCK:   -6.68 KCAL/MOL
REMARK 922        TOTAL FREE ENERGY PREDICTED BY IDOCK:   -9.30 KCAL/MOL
REMARK 923 INTER-LIGAND FREE ENERGY PREDICTED BY IDOCK:   -9.25 KCAL/MOL
REMARK 924 INTRA-LIGAND FREE ENERGY PREDICTED BY IDOCK:   -0.05 KCAL/MOL
REMARK 927      BINDING AFFINITY PREDICTED BY RF-SCORE:    0.00 PKD
ROOT
HETATM    1  C   UNL     1     -11.747  13.414  68.400  1.00  0.00    -0.390 C  
HETATM    2  C   UNL     1     -11.590  12.025  67.779  1.00  0.00    -0.330 C  
ENDROOT
BRANCH   2   3
HETATM    3  O   UNL     1     -10.958  12.211  66.511  1.00  0.00    -0.258 OA 
BRANCH   3   4
HETATM    4  C   UNL     1     -11.255  13.295  65.736  1.00  0.00    -0.294 A  
HETATM    5  C   UNL     1     -11.707  15.645  64.434  1.00  0.00    -0.218 A  
HETATM    6  C   UNL     1     -10.709  15.630  65.401  1.00  0.00    -0.424 A  
HETATM    7  H1  UNL     1     -13.882  12.519  63.726  1.00  0.00     0.000 HD 
HETATM    8  N   UNL     1     -12.472  14.578  64.102  1.00  0.00    -0.784 NA 
HETATM    9  C   UNL     1     -10.488  14.422  66.053  1.00  0.00    -0.307 A  
HETATM   10  C   UNL     1     -12.255  13.430  64.771  1.00  0.00    -0.409 A  
HETATM   11  H2  UNL     1     -13.606  12.121  65.292  1.00  0.00     0.000 HD 
HETATM   12  N   UNL     1     -13.151  12.420  64.430  1.00  0.00    -0.811 NA 
BRANCH   6  13
HETATM   13  C   UNL     1      -9.983  16.838  65.728  1.00  0.00    -0.242 A  
HETATM   14  N   UNL     1      -9.493  19.021  66.155  1.00  0.00    -0.455 NA 
HETATM   15  C   UNL     1     -10.461  18.156  65.864  1.00  0.00    -0.283 A  
HETATM   16  C   UNL     1      -8.627  16.942  65.972  1.00  0.00    -0.159 A  
HETATM   17  N   UNL     1      -8.379  18.271  66.198  1.00  0.00    -0.483 NA 
BRANCH  17  18
HETATM   18  C   UNL     1      -7.077  18.896  66.432  1.00  0.00    -0.231 C  
HETATM   19  C   UNL     1      -7.150  20.038  67.455  1.00  0.00    -0.300 C  
HETATM   20  C   UNL     1      -7.235  19.528  68.895  1.00  0.00    -0.362 C  
HETATM   21  N   UNL     1      -6.152  18.595  69.207  1.00  0.00    -0.243 NA 
HETATM   22  C   UNL     1      -6.130  17.449  68.295  1.00  0.00    -0.161 C  
HETATM   23  H   UNL     1      -6.195  18.291  70.180  1.00  0.00     0.000 HD 
HETATM   24  C   UNL     1      -5.999  17.884  66.838  1.00  0.00    -0.176 C  
ENDBRANCH  17  18
ENDBRANCH   6  13
ENDBRANCH   3   4
ENDBRANCH   2   3
BRANCH   2  25
HETATM   25  C   UNL     1     -10.797  11.106  68.710  1.00  0.00    -0.256 A  
HETATM   26 CL   UNL     1      -8.414  11.590  67.370  1.00  0.00    -0.142 Cl 
HETATM   27  C   UNL     1     -11.458  10.497  69.807  1.00  0.00    -0.294 A  
HETATM   28 CL   UNL     1     -13.134  10.768  70.158  1.00  0.00    -0.080 Cl 
HETATM   29  F   UNL     1      -7.453   9.711  69.321  1.00  0.00    -0.070 F  
HETATM   30  C   UNL     1     -10.784   9.649  70.697  1.00  0.00    -0.388 A  
HETATM   31  C   UNL     1      -9.434   9.381  70.518  1.00  0.00    -0.327 A  
HETATM   32  C   UNL     1      -9.414  10.847  68.573  1.00  0.00    -0.185 A  
HETATM   33  C   UNL     1      -8.761   9.979  69.463  1.00  0.00    -0.192 A  
ENDBRANCH   2  25
TORSDOF 5
ENDMDL
MODEL       62
REMARK 921   NORMALIZED FREE ENERGY PREDICTED BY IDOCK:   -6.65 KCAL/MOL
REMARK 922        TOTAL FREE ENERGY PREDICTED BY IDOCK:   -9.27 KCAL/MOL
REMARK 923 INTER-LIGAND FREE ENERGY PREDICTED BY IDOCK:   -8.82 KCAL/MOL
REMARK 924 INTRA-LIGAND FREE ENERGY PREDICTED BY IDOCK:   -0.45 KCAL/MOL
REMARK 927      BINDING AFFINITY PREDICTED BY RF-SCORE:    0.00 PKD
ROOT
HETATM    1  C   UNL     1      -7.072   9.103  67.132  1.00  0.00    -0.082 C  
HETATM    2  C   UNL     1      -8.585   9.314  67.051  1.00  0.00    -0.124 C  
ENDROOT
BRANCH   2   3
HETATM    3  O   UNL     1      -8.846   9.938  65.793  1.00  0.00    -0.138 OA 
BRANCH   3   4
HETATM    4  C   UNL     1      -9.805  10.902  65.677  1.00  0.00    -0.241 A  
HETATM    5  C   UNL     1     -11.788  12.768  65.774  1.00  0.00    -0.434 A  
HETATM    6  C   UNL     1     -11.202  12.393  66.977  1.00  0.00    -0.358 A  
HETATM    7  H1  UNL     1     -10.767  11.110  62.426  1.00  0.00     0.000 HD 
HETATM    8  N   UNL     1     -11.448  12.265  64.564  1.00  0.00    -0.327 NA 
HETATM    9  C   UNL     1     -10.189  11.444  66.911  1.00  0.00    -0.254 A  
HETATM   10  C   UNL     1     -10.484  11.326  64.533  1.00  0.00    -0.334 A  
HETATM   11  H2  UNL     1     -10.400   9.792  63.329  1.00  0.00     0.000 HD 
HETATM   12  N   UNL     1     -10.271  10.801  63.262  1.00  0.00    -0.274 NA 
BRANCH   6  13
HETATM   13  C   UNL     1     -11.675  12.944  68.229  1.00  0.00    -0.390 A  
HETATM   14  N   UNL     1     -12.385  13.118  70.386  1.00  0.00    -0.312 NA 
HETATM   15  C   UNL     1     -11.942  12.288  69.447  1.00  0.00    -0.259 A  
HETATM   16  C   UNL     1     -11.976  14.267  68.484  1.00  0.00    -0.317 A  
HETATM   17  N   UNL     1     -12.420  14.317  69.779  1.00  0.00    -0.287 NA 
BRANCH  17  18
HETATM   18  C   UNL     1     -12.927  15.490  70.492  1.00  0.00    -0.290 C  
HETATM   19  C   UNL     1     -14.196  15.183  71.301  1.00  0.00    -0.527 C  
HETATM   20  C   UNL     1     -13.893  14.443  72.604  1.00  0.00    -0.379 C  
HETATM   21  N   UNL     1     -12.897  15.147  73.413  1.00  0.00    -0.506 NA 
HETATM   22  C   UNL     1     -11.646  15.361  72.684  1.00  0.00    -0.401 C  
HETATM   23  H   UNL     1     -12.732  14.666  74.297  1.00  0.00     0.000 HD 
HETATM   24  C   UNL     1     -11.867  16.140  71.389  1.00  0.00    -0.490 C  
ENDBRANCH  17  18
ENDBRANCH   6  13
ENDBRANCH   3   4
ENDBRANCH   2   3
BRANCH   2  25
HETATM   25  C   UNL     1      -9.324   7.985  67.221  1.00  0.00    -0.177 A  
HETATM   26 CL   UNL     1     -10.720   8.896  69.442  1.00  0.00    -0.222 Cl 
HETATM   27  C   UNL     1      -9.117   6.954  66.270  1.00  0.00    -0.141 A  
HETATM   28 CL   UNL     1      -8.072   7.140  64.899  1.00  0.00    -0.125 Cl 
HETATM   29  F   UNL     1     -11.733   6.208  69.350  1.00  0.00    -0.484 F  
HETATM   30  C   UNL     1      -9.768   5.716  66.370  1.00  0.00    -0.180 A  
HETATM   31  C   UNL     1     -10.641   5.470  67.419  1.00  0.00    -0.274 A  
HETATM   32  C   UNL     1     -10.247   7.722  68.258  1.00  0.00    -0.201 A  
HETATM   33  C   UNL     1     -10.875   6.469  68.352  1.00  0.00    -0.289 A  
ENDBRANCH   2  25
TORSDOF 5
ENDMDL
MODEL       63
REMARK 921   NORMALIZED FREE ENERGY PREDICTED BY IDOCK:   -6.65 KCAL/MOL
REMARK 922        TOTAL FREE ENERGY PREDICTED BY IDOCK:   -9.27 KCAL/MOL
REMARK 923 INTER-LIGAND FREE ENERGY PREDICTED BY IDOCK:   -8.53 KCAL/MOL
REMARK 924 INTRA-LIGAND FREE ENERGY PREDICTED BY IDOCK:   -0.74 KCAL/MOL
REMARK 927      BINDING AFFINITY PREDICTED BY RF-SCORE:    0.00 PKD
ROOT
HETATM    1  C   UNL     1      -9.155  12.646  68.374  1.00  0.00    -0.128 C  
HETATM    2  C   UNL     1     -10.459  11.882  68.142  1.00  0.00    -0.207 C  
ENDROOT
BRANCH   2   3
HETATM    3  O   UNL     1     -11.283  12.119  69.284  1.00  0.00    -0.250 OA 
BRANCH   3   4
HETATM    4  C   UNL     1     -11.636  11.094  70.114  1.00  0.00    -0.323 A  
HETATM    5  C   UNL     1     -12.259   8.842  71.515  1.00  0.00    -0.327 A  
HETATM    6  C   UNL     1     -11.395   8.706  70.435  1.00  0.00    -0.203 A  
HETATM    7  H1  UNL     1     -13.857  12.255  72.408  1.00  0.00     0.000 HD 
HETATM    8  N   UNL     1     -12.816  10.011  71.912  1.00  0.00    -0.423 NA 
HETATM    9  C   UNL     1     -11.084   9.865  69.733  1.00  0.00    -0.294 A  
HETATM   10  C   UNL     1     -12.519  11.111  71.196  1.00  0.00    -0.393 A  
HETATM   11  H2  UNL     1     -13.721  12.601  70.811  1.00  0.00     0.000 HD 
HETATM   12  N   UNL     1     -13.212  12.243  71.618  1.00  0.00    -0.351 NA 
BRANCH   6  13
HETATM   13  C   UNL     1     -10.896   7.403  70.051  1.00  0.00    -0.266 A  
HETATM   14  N   UNL     1     -10.539   5.155  69.987  1.00  0.00    -0.241 NA 
HETATM   15  C   UNL     1     -11.212   6.136  70.580  1.00  0.00    -0.334 A  
HETATM   16  C   UNL     1      -9.972   7.136  69.060  1.00  0.00    -0.174 A  
HETATM   17  N   UNL     1      -9.772   5.781  69.076  1.00  0.00    -0.133 NA 
BRANCH  17  18
HETATM   18  C   UNL     1      -8.828   5.019  68.258  1.00  0.00    -0.102 C  
HETATM   19  C   UNL     1      -9.511   3.893  67.469  1.00  0.00    -0.236 C  
HETATM   20  C   UNL     1     -10.256   4.411  66.238  1.00  0.00    -0.181 C  
HETATM   21  N   UNL     1      -9.393   5.223  65.379  1.00  0.00    -0.317 NA 
HETATM   22  C   UNL     1      -8.811   6.358  66.098  1.00  0.00    -0.150 C  
HETATM   23  H   UNL     1      -9.889   5.531  64.543  1.00  0.00     0.000 HD 
HETATM   24  C   UNL     1      -8.008   5.909  67.317  1.00  0.00    -0.102 C  
ENDBRANCH  17  18
ENDBRANCH   6  13
ENDBRANCH   3   4
ENDBRANCH   2   3
BRANCH   2  25
HETATM   25  C   UNL     1     -11.117  12.324  66.833  1.00  0.00    -0.341 A  
HETATM   26 CL   UNL     1     -10.166  10.110  65.455  1.00  0.00    -0.342 Cl 
HETATM   27  C   UNL     1     -11.923  13.491  66.825  1.00  0.00    -0.404 A  
HETATM   28 CL   UNL     1     -12.219  14.434  68.250  1.00  0.00    -0.247 Cl 
HETATM   29  F   UNL     1     -11.508  11.439  63.288  1.00  0.00    -0.464 F  
HETATM   30  C   UNL     1     -12.555  13.943  65.658  1.00  0.00    -0.553 A  
HETATM   31  C   UNL     1     -12.400  13.250  64.467  1.00  0.00    -0.428 A  
HETATM   32  C   UNL     1     -11.007  11.615  65.615  1.00  0.00    -0.266 A  
HETATM   33  C   UNL     1     -11.632  12.096  64.452  1.00  0.00    -0.350 A  
ENDBRANCH   2  25
TORSDOF 5
ENDMDL
MODEL       64
REMARK 921   NORMALIZED FREE ENERGY PREDICTED BY IDOCK:   -6.63 KCAL/MOL
REMARK 922        TOTAL FREE ENERGY PREDICTED BY IDOCK:   -9.24 KCAL/MOL
REMARK 923 INTER-LIGAND FREE ENERGY PREDICTED BY IDOCK:   -8.47 KCAL/MOL
REMARK 924 INTRA-LIGAND FREE ENERGY PREDICTED BY IDOCK:   -0.77 KCAL/MOL
REMARK 927      BINDING AFFINITY PREDICTED BY RF-SCORE:    0.00 PKD
ROOT
HETATM    1  C   UNL     1     -10.485  14.854  65.201  1.00  0.00    -0.442 C  
HETATM    2  C   UNL     1     -10.313  14.076  66.506  1.00  0.00    -0.285 C  
ENDROOT
BRANCH   2   3
HETATM    3  O   UNL     1     -11.608  13.989  67.105  1.00  0.00    -0.332 OA 
BRANCH   3   4
HETATM    4  C   UNL     1     -11.750  13.998  68.462  1.00  0.00    -0.352 A  
HETATM    5  C   UNL     1     -12.170  13.707  71.139  1.00  0.00    -0.239 A  
HETATM    6  C   UNL     1     -12.112  12.550  70.370  1.00  0.00    -0.380 A  
HETATM    7  H1  UNL     1     -11.915  17.220  69.527  1.00  0.00     0.000 HD 
HETATM    8  N   UNL     1     -12.041  14.963  70.649  1.00  0.00    -0.284 NA 
HETATM    9  C   UNL     1     -11.892  12.715  69.007  1.00  0.00    -0.341 A  
HETATM   10  C   UNL     1     -11.859  15.093  69.321  1.00  0.00    -0.320 A  
HETATM   11  H2  UNL     1     -12.560  16.522  68.191  1.00  0.00     0.000 HD 
HETATM   12  N   UNL     1     -11.834  16.419  68.900  1.00  0.00    -0.098 NA 
BRANCH   6  13
HETATM   13  C   UNL     1     -12.320  11.253  70.976  1.00  0.00    -0.472 A  
HETATM   14  N   UNL     1     -13.186   9.568  72.240  1.00  0.00    -0.435 NA 
HETATM   15  C   UNL     1     -13.321  10.840  71.877  1.00  0.00    -0.340 A  
HETATM   16  C   UNL     1     -11.546  10.124  70.789  1.00  0.00    -0.357 A  
HETATM   17  N   UNL     1     -12.089   9.150  71.585  1.00  0.00    -0.338 NA 
BRANCH  17  18
HETATM   18  C   UNL     1     -11.581   7.794  71.789  1.00  0.00    -0.272 C  
HETATM   19  C   UNL     1     -11.484   7.000  70.479  1.00  0.00    -0.363 C  
HETATM   20  C   UNL     1     -10.266   7.398  69.643  1.00  0.00    -0.210 C  
HETATM   21  N   UNL     1      -9.025   7.316  70.414  1.00  0.00    -0.150 NA 
HETATM   22  C   UNL     1      -9.069   8.146  71.619  1.00  0.00    -0.163 C  
HETATM   23  H   UNL     1      -8.216   7.546  69.837  1.00  0.00     0.000 HD 
HETATM   24  C   UNL     1     -10.238   7.770  72.528  1.00  0.00    -0.320 C  
ENDBRANCH  17  18
ENDBRANCH   6  13
ENDBRANCH   3   4
ENDBRANCH   2   3
BRANCH   2  25
HETATM   25  C   UNL     1      -9.689  12.705  66.238  1.00  0.00    -0.260 A  
HETATM   26 CL   UNL     1     -11.492  12.136  64.206  1.00  0.00    -0.409 Cl 
HETATM   27  C   UNL     1      -8.534  12.319  66.964  1.00  0.00    -0.181 A  
HETATM   28 CL   UNL     1      -7.776  13.348  68.137  1.00  0.00    -0.130 Cl 
HETATM   29  F   UNL     1     -10.015   9.670  64.193  1.00  0.00    -0.171 F  
HETATM   30  C   UNL     1      -7.914  11.078  66.760  1.00  0.00    -0.152 A  
HETATM   31  C   UNL     1      -8.428  10.186  65.830  1.00  0.00    -0.146 A  
HETATM   32  C   UNL     1     -10.169  11.794  65.270  1.00  0.00    -0.267 A  
HETATM   33  C   UNL     1      -9.546  10.548  65.094  1.00  0.00    -0.260 A  
ENDBRANCH   2  25
TORSDOF 5
ENDMDL
MODEL       65
REMARK 921   NORMALIZED FREE ENERGY PREDICTED BY IDOCK:   -6.62 KCAL/MOL
REMARK 922        TOTAL FREE ENERGY PREDICTED BY IDOCK:   -9.23 KCAL/MOL
REMARK 923 INTER-LIGAND FREE ENERGY PREDICTED BY IDOCK:   -8.76 KCAL/MOL
REMARK 924 INTRA-LIGAND FREE ENERGY PREDICTED BY IDOCK:   -0.47 KCAL/MOL
REMARK 927      BINDING AFFINITY PREDICTED BY RF-SCORE:    0.00 PKD
ROOT
HETATM    1  C   UNL     1     -10.735  18.726  67.472  1.00  0.00    -0.474 C  
HETATM    2  C   UNL     1      -9.956  17.410  67.506  1.00  0.00    -0.298 C  
ENDROOT
BRANCH   2   3
HETATM    3  O   UNL     1     -10.034  16.852  66.193  1.00  0.00    -0.302 OA 
BRANCH   3   4
HETATM    4  C   UNL     1     -10.776  15.732  65.954  1.00  0.00    -0.313 A  
HETATM    5  C   UNL     1     -12.052  13.339  65.694  1.00  0.00    -0.441 A  
HETATM    6  C   UNL     1     -11.292  13.538  66.841  1.00  0.00    -0.350 A  
HETATM    7  H1  UNL     1     -12.222  16.006  62.892  1.00  0.00     0.000 HD 
HETATM    8  N   UNL     1     -12.194  14.245  64.699  1.00  0.00    -0.494 NA 
HETATM    9  C   UNL     1     -10.652  14.767  66.961  1.00  0.00    -0.290 A  
HETATM   10  C   UNL     1     -11.538  15.414  64.828  1.00  0.00    -0.286 A  
HETATM   11  H2  UNL     1     -10.723  16.450  63.388  1.00  0.00     0.000 HD 
HETATM   12  N   UNL     1     -11.666  16.239  63.715  1.00  0.00    -0.900 NA 
BRANCH   6  13
HETATM   13  C   UNL     1     -11.152  12.486  67.825  1.00  0.00    -0.291 A  
HETATM   14  N   UNL     1     -11.607  11.028  69.514  1.00  0.00    -0.282 NA 
HETATM   15  C   UNL     1     -12.099  11.995  68.745  1.00  0.00    -0.110 A  
HETATM   16  C   UNL     1     -10.020  11.735  68.069  1.00  0.00    -0.188 A  
HETATM   17  N   UNL     1     -10.333  10.894  69.105  1.00  0.00    -0.217 NA 
BRANCH  17  18
HETATM   18  C   UNL     1      -9.439   9.950  69.775  1.00  0.00    -0.226 C  
HETATM   19  C   UNL     1     -10.139   9.176  70.901  1.00  0.00    -0.356 C  
HETATM   20  C   UNL     1     -11.031   8.052  70.371  1.00  0.00    -0.248 C  
HETATM   21  N   UNL     1     -10.302   7.154  69.474  1.00  0.00    -0.209 NA 
HETATM   22  C   UNL     1      -9.709   7.868  68.342  1.00  0.00    -0.160 C  
HETATM   23  H   UNL     1     -10.895   6.387  69.158  1.00  0.00     0.000 HD 
HETATM   24  C   UNL     1      -8.766   8.978  68.799  1.00  0.00    -0.136 C  
ENDBRANCH  17  18
ENDBRANCH   6  13
ENDBRANCH   3   4
ENDBRANCH   2   3
BRANCH   2  25
HETATM   25  C   UNL     1      -8.516  17.648  67.966  1.00  0.00    -0.244 A  
HETATM   26 CL   UNL     1      -8.518  15.387  69.576  1.00  0.00    -0.254 Cl 
HETATM   27  C   UNL     1      -7.787  18.734  67.417  1.00  0.00    -0.232 A  
HETATM   28 CL   UNL     1      -8.451  19.798  66.220  1.00  0.00    -0.380 Cl 
HETATM   29  F   UNL     1      -5.876  16.351  70.166  1.00  0.00    -0.183 F  
HETATM   30  C   UNL     1      -6.464  19.000  67.795  1.00  0.00    -0.223 A  
HETATM   31  C   UNL     1      -5.831  18.197  68.733  1.00  0.00    -0.194 A  
HETATM   32  C   UNL     1      -7.835  16.823  68.890  1.00  0.00    -0.244 A  
HETATM   33  C   UNL     1      -6.516  17.118  69.271  1.00  0.00    -0.235 A  
ENDBRANCH   2  25
TORSDOF 5
ENDMDL
MODEL       66
REMARK 921   NORMALIZED FREE ENERGY PREDICTED BY IDOCK:   -6.61 KCAL/MOL
REMARK 922        TOTAL FREE ENERGY PREDICTED BY IDOCK:   -9.21 KCAL/MOL
REMARK 923 INTER-LIGAND FREE ENERGY PREDICTED BY IDOCK:   -9.43 KCAL/MOL
REMARK 924 INTRA-LIGAND FREE ENERGY PREDICTED BY IDOCK:    0.22 KCAL/MOL
REMARK 927      BINDING AFFINITY PREDICTED BY RF-SCORE:    0.00 PKD
ROOT
HETATM    1  C   UNL     1      -9.958  15.250  69.788  1.00  0.00    -0.210 C  
HETATM    2  C   UNL     1     -11.406  15.534  70.189  1.00  0.00    -0.326 C  
ENDROOT
BRANCH   2   3
HETATM    3  O   UNL     1     -12.057  16.058  69.030  1.00  0.00    -0.293 OA 
BRANCH   3   4
HETATM    4  C   UNL     1     -11.397  16.146  67.839  1.00  0.00    -0.182 A  
HETATM    5  C   UNL     1     -10.086  15.983  65.456  1.00  0.00    -0.304 A  
HETATM    6  C   UNL     1     -10.851  14.888  65.842  1.00  0.00    -0.336 A  
HETATM    7  H1  UNL     1      -9.690  19.082  67.744  1.00  0.00     0.000 HD 
HETATM    8  N   UNL     1      -9.942  17.116  66.183  1.00  0.00    -0.394 NA 
HETATM    9  C   UNL     1     -11.517  14.989  67.059  1.00  0.00    -0.288 A  
HETATM   10  C   UNL     1     -10.575  17.173  67.370  1.00  0.00    -0.297 A  
HETATM   11  H2  UNL     1      -9.920  18.042  68.990  1.00  0.00     0.000 HD 
HETATM   12  N   UNL     1     -10.291  18.332  68.086  1.00  0.00    -0.378 NA 
BRANCH   6  13
HETATM   13  C   UNL     1     -10.896  13.695  65.024  1.00  0.00    -0.358 A  
HETATM   14  N   UNL     1     -11.525  12.171  63.454  1.00  0.00    -0.430 NA 
HETATM   15  C   UNL     1     -11.768  13.374  63.965  1.00  0.00    -0.416 A  
HETATM   16  C   UNL     1     -10.070  12.594  65.130  1.00  0.00    -0.237 A  
HETATM   17  N   UNL     1     -10.501  11.699  64.186  1.00  0.00    -0.318 NA 
BRANCH  17  18
HETATM   18  C   UNL     1      -9.990  10.348  63.954  1.00  0.00    -0.200 C  
HETATM   19  C   UNL     1      -9.265  10.218  62.607  1.00  0.00    -0.318 C  
HETATM   20  C   UNL     1      -7.857  10.813  62.640  1.00  0.00    -0.072 C  
HETATM   21  N   UNL     1      -7.058  10.262  63.735  1.00  0.00    -0.264 NA 
HETATM   22  C   UNL     1      -7.693  10.466  65.039  1.00  0.00    -0.095 C  
HETATM   23  H   UNL     1      -6.109  10.637  63.725  1.00  0.00     0.000 HD 
HETATM   24  C   UNL     1      -9.091   9.852  65.093  1.00  0.00    -0.257 C  
ENDBRANCH  17  18
ENDBRANCH   6  13
ENDBRANCH   3   4
ENDBRANCH   2   3
BRANCH   2  25
HETATM   25  C   UNL     1     -12.075  14.267  70.724  1.00  0.00    -0.418 A  
HETATM   26 CL   UNL     1     -10.761  12.643  68.896  1.00  0.00    -0.235 Cl 
HETATM   27  C   UNL     1     -12.934  14.362  71.849  1.00  0.00    -0.349 A  
HETATM   28 CL   UNL     1     -13.244  15.860  72.666  1.00  0.00    -0.556 Cl 
HETATM   29  F   UNL     1     -12.347  10.639  70.211  1.00  0.00    -0.325 F  
HETATM   30  C   UNL     1     -13.572  13.236  72.388  1.00  0.00    -0.694 A  
HETATM   31  C   UNL     1     -13.377  11.985  71.821  1.00  0.00    -0.338 A  
HETATM   32  C   UNL     1     -11.863  12.976  70.190  1.00  0.00    -0.252 A  
HETATM   33  C   UNL     1     -12.527  11.863  70.732  1.00  0.00    -0.291 A  
ENDBRANCH   2  25
TORSDOF 5
ENDMDL
MODEL       67
REMARK 921   NORMALIZED FREE ENERGY PREDICTED BY IDOCK:   -6.61 KCAL/MOL
REMARK 922        TOTAL FREE ENERGY PREDICTED BY IDOCK:   -9.21 KCAL/MOL
REMARK 923 INTER-LIGAND FREE ENERGY PREDICTED BY IDOCK:   -8.24 KCAL/MOL
REMARK 924 INTRA-LIGAND FREE ENERGY PREDICTED BY IDOCK:   -0.97 KCAL/MOL
REMARK 927      BINDING AFFINITY PREDICTED BY RF-SCORE:    0.00 PKD
ROOT
HETATM    1  C   UNL     1      -7.649   9.711  70.459  1.00  0.00    -0.151 C  
HETATM    2  C   UNL     1      -9.020   9.897  69.808  1.00  0.00    -0.221 C  
ENDROOT
BRANCH   2   3
HETATM    3  O   UNL     1      -8.788  10.467  68.518  1.00  0.00    -0.130 OA 
BRANCH   3   4
HETATM    4  C   UNL     1      -9.736  11.245  67.919  1.00  0.00    -0.177 A  
HETATM    5  C   UNL     1     -11.575  13.019  66.973  1.00  0.00    -0.360 A  
HETATM    6  C   UNL     1     -10.593  13.508  67.826  1.00  0.00    -0.252 A  
HETATM    7  H1  UNL     1     -11.800   9.252  66.099  1.00  0.00     0.000 HD 
HETATM    8  N   UNL     1     -11.684  11.725  66.588  1.00  0.00    -0.554 NA 
HETATM    9  C   UNL     1      -9.659  12.591  68.297  1.00  0.00    -0.209 A  
HETATM   10  C   UNL     1     -10.784  10.855  67.083  1.00  0.00    -0.270 A  
HETATM   11  H2  UNL     1     -11.118   8.994  67.568  1.00  0.00     0.000 HD 
HETATM   12  N   UNL     1     -11.034   9.537  66.709  1.00  0.00     0.053 NA 
BRANCH   6  13
HETATM   13  C   UNL     1     -10.592  14.898  68.229  1.00  0.00    -0.240 A  
HETATM   14  N   UNL     1     -10.684  16.782  69.505  1.00  0.00    -0.324 NA 
HETATM   15  C   UNL     1     -10.703  15.453  69.519  1.00  0.00    -0.267 A  
HETATM   16  C   UNL     1     -10.489  15.995  67.396  1.00  0.00    -0.308 A  
HETATM   17  N   UNL     1     -10.574  17.099  68.203  1.00  0.00    -0.367 NA 
BRANCH  17  18
HETATM   18  C   UNL     1     -10.586  18.500  67.782  1.00  0.00    -0.385 C  
HETATM   19  C   UNL     1      -9.917  19.428  68.805  1.00  0.00    -0.522 C  
HETATM   20  C   UNL     1      -8.390  19.358  68.746  1.00  0.00    -0.344 C  
HETATM   21  N   UNL     1      -7.886  19.597  67.393  1.00  0.00    -0.260 NA 
HETATM   22  C   UNL     1      -8.445  18.655  66.421  1.00  0.00    -0.272 C  
HETATM   23  H   UNL     1      -6.866  19.587  67.372  1.00  0.00     0.000 HD 
HETATM   24  C   UNL     1      -9.971  18.705  66.393  1.00  0.00    -0.415 C  
ENDBRANCH  17  18
ENDBRANCH   6  13
ENDBRANCH   3   4
ENDBRANCH   2   3
BRANCH   2  25
HETATM   25  C   UNL     1      -9.770   8.565  69.742  1.00  0.00    -0.179 A  
HETATM   26 CL   UNL     1      -7.943   7.473  67.961  1.00  0.00    -0.121 Cl 
HETATM   27  C   UNL     1     -10.913   8.375  70.561  1.00  0.00    -0.242 A  
HETATM   28 CL   UNL     1     -11.489   9.587  71.660  1.00  0.00    -0.459 Cl 
HETATM   29  F   UNL     1      -9.767   5.259  68.140  1.00  0.00    -0.133 F  
HETATM   30  C   UNL     1     -11.639   7.176  70.549  1.00  0.00    -0.331 A  
HETATM   31  C   UNL     1     -11.251   6.134  69.720  1.00  0.00    -0.494 A  
HETATM   32  C   UNL     1      -9.374   7.474  68.936  1.00  0.00    -0.142 A  
HETATM   33  C   UNL     1     -10.126   6.288  68.923  1.00  0.00    -0.168 A  
ENDBRANCH   2  25
TORSDOF 5
ENDMDL
MODEL       68
REMARK 921   NORMALIZED FREE ENERGY PREDICTED BY IDOCK:   -6.60 KCAL/MOL
REMARK 922        TOTAL FREE ENERGY PREDICTED BY IDOCK:   -9.20 KCAL/MOL
REMARK 923 INTER-LIGAND FREE ENERGY PREDICTED BY IDOCK:   -8.30 KCAL/MOL
REMARK 924 INTRA-LIGAND FREE ENERGY PREDICTED BY IDOCK:   -0.90 KCAL/MOL
REMARK 927      BINDING AFFINITY PREDICTED BY RF-SCORE:    0.00 PKD
ROOT
HETATM    1  C   UNL     1     -11.605  12.637  69.181  1.00  0.00    -0.374 C  
HETATM    2  C   UNL     1     -10.531  13.285  68.306  1.00  0.00    -0.250 C  
ENDROOT
BRANCH   2   3
HETATM    3  O   UNL     1      -9.359  12.478  68.430  1.00  0.00    -0.202 OA 
BRANCH   3   4
HETATM    4  C   UNL     1      -8.120  13.011  68.222  1.00  0.00    -0.151 A  
HETATM    5  C   UNL     1      -5.799  14.377  67.807  1.00  0.00    -0.079 A  
HETATM    6  C   UNL     1      -6.864  15.077  68.364  1.00  0.00    -0.110 A  
HETATM    7  H1  UNL     1      -6.156  10.675  66.729  1.00  0.00     0.000 HD 
HETATM    8  N   UNL     1      -5.839  13.072  67.452  1.00  0.00    -0.325 NA 
HETATM    9  C   UNL     1      -8.039  14.364  68.573  1.00  0.00    -0.146 A  
HETATM   10  C   UNL     1      -7.000  12.415  67.639  1.00  0.00    -0.132 A  
HETATM   11  H2  UNL     1      -7.740  11.022  66.489  1.00  0.00     0.000 HD 
HETATM   12  N   UNL     1      -6.974  11.110  67.156  1.00  0.00    -0.103 NA 
BRANCH   6  13
HETATM   13  C   UNL     1      -6.745  16.489  68.657  1.00  0.00    -0.152 A  
HETATM   14  N   UNL     1      -6.138  18.451  69.639  1.00  0.00    -0.259 NA 
HETATM   15  C   UNL     1      -5.986  17.131  69.655  1.00  0.00    -0.239 A  
HETATM   16  C   UNL     1      -7.381  17.522  67.997  1.00  0.00    -0.208 A  
HETATM   17  N   UNL     1      -7.006  18.674  68.637  1.00  0.00    -0.267 NA 
BRANCH  17  18
HETATM   18  C   UNL     1      -7.473  20.032  68.354  1.00  0.00    -0.229 C  
HETATM   19  C   UNL     1      -6.412  20.881  67.640  1.00  0.00    -0.398 C  
HETATM   20  C   UNL     1      -6.296  20.543  66.153  1.00  0.00    -0.220 C  
HETATM   21  N   UNL     1      -7.590  20.618  65.474  1.00  0.00    -0.459 NA 
HETATM   22  C   UNL     1      -8.587  19.738  66.088  1.00  0.00    -0.338 C  
HETATM   23  H   UNL     1      -7.495  20.429  64.477  1.00  0.00     0.000 HD 
HETATM   24  C   UNL     1      -8.789  20.053  67.568  1.00  0.00    -0.426 C  
ENDBRANCH  17  18
ENDBRANCH   6  13
ENDBRANCH   3   4
ENDBRANCH   2   3
BRANCH   2  25
HETATM   25  C   UNL     1     -11.017  13.409  66.860  1.00  0.00    -0.295 A  
HETATM   26 CL   UNL     1     -10.775  16.174  66.878  1.00  0.00    -0.290 Cl 
HETATM   27  C   UNL     1     -11.294  12.230  66.122  1.00  0.00    -0.353 A  
HETATM   28 CL   UNL     1     -11.083  10.640  66.781  1.00  0.00    -0.185 Cl 
HETATM   29  F   UNL     1     -11.816  15.836  64.221  1.00  0.00    -0.451 F  
HETATM   30  C   UNL     1     -11.738  12.279  64.793  1.00  0.00    -0.419 A  
HETATM   31  C   UNL     1     -11.922  13.501  64.163  1.00  0.00    -0.498 A  
HETATM   32  C   UNL     1     -11.176  14.639  66.183  1.00  0.00    -0.341 A  
HETATM   33  C   UNL     1     -11.640  14.668  64.858  1.00  0.00    -0.405 A  
ENDBRANCH   2  25
TORSDOF 5
ENDMDL
MODEL       69
REMARK 921   NORMALIZED FREE ENERGY PREDICTED BY IDOCK:   -6.59 KCAL/MOL
REMARK 922        TOTAL FREE ENERGY PREDICTED BY IDOCK:   -9.19 KCAL/MOL
REMARK 923 INTER-LIGAND FREE ENERGY PREDICTED BY IDOCK:   -8.19 KCAL/MOL
REMARK 924 INTRA-LIGAND FREE ENERGY PREDICTED BY IDOCK:   -1.00 KCAL/MOL
REMARK 927      BINDING AFFINITY PREDICTED BY RF-SCORE:    0.00 PKD
ROOT
HETATM    1  C   UNL     1      -7.782   5.971  69.015  1.00  0.00    -0.092 C  
HETATM    2  C   UNL     1      -8.537   7.255  68.669  1.00  0.00    -0.128 C  
ENDROOT
BRANCH   2   3
HETATM    3  O   UNL     1      -9.209   7.014  67.431  1.00  0.00    -0.124 OA 
BRANCH   3   4
HETATM    4  C   UNL     1      -8.862   7.703  66.304  1.00  0.00    -0.156 A  
HETATM    5  C   UNL     1      -8.478   9.219  64.074  1.00  0.00    -0.193 A  
HETATM    6  C   UNL     1      -9.452   9.638  64.973  1.00  0.00    -0.312 A  
HETATM    7  H1  UNL     1      -6.497   5.937  64.622  1.00  0.00     0.000 HD 
HETATM    8  N   UNL     1      -7.717   8.110  64.226  1.00  0.00    -0.120 NA 
HETATM    9  C   UNL     1      -9.633   8.856  66.108  1.00  0.00    -0.335 A  
HETATM   10  C   UNL     1      -7.935   7.357  65.320  1.00  0.00    -0.127 A  
HETATM   11  H2  UNL     1      -7.826   5.410  65.425  1.00  0.00     0.000 HD 
HETATM   12  N   UNL     1      -7.175   6.190  65.341  1.00  0.00    -0.068 NA 
BRANCH   6  13
HETATM   13  C   UNL     1     -10.258  10.807  64.694  1.00  0.00    -0.419 A  
HETATM   14  N   UNL     1     -11.260  12.534  63.600  1.00  0.00    -0.454 NA 
HETATM   15  C   UNL     1     -10.467  11.475  63.471  1.00  0.00    -0.428 A  
HETATM   16  C   UNL     1     -11.001  11.530  65.607  1.00  0.00    -0.236 A  
HETATM   17  N   UNL     1     -11.562  12.567  64.909  1.00  0.00    -0.328 NA 
BRANCH  17  18
HETATM   18  C   UNL     1     -12.380  13.653  65.450  1.00  0.00    -0.476 C  
HETATM   19  C   UNL     1     -12.103  13.913  66.937  1.00  0.00    -0.467 C  
HETATM   20  C   UNL     1     -10.807  14.694  67.162  1.00  0.00    -0.303 C  
HETATM   21  N   UNL     1     -10.775  15.933  66.384  1.00  0.00    -0.291 NA 
HETATM   22  C   UNL     1     -10.943  15.689  64.950  1.00  0.00    -0.431 C  
HETATM   23  H   UNL     1      -9.925  16.465  66.571  1.00  0.00     0.000 HD 
HETATM   24  C   UNL     1     -12.245  14.952  64.647  1.00  0.00    -0.351 C  
ENDBRANCH  17  18
ENDBRANCH   6  13
ENDBRANCH   3   4
ENDBRANCH   2   3
BRANCH   2  25
HETATM   25  C   UNL     1      -9.494   7.639  69.799  1.00  0.00    -0.156 A  
HETATM   26 CL   UNL     1     -10.671   5.125  69.832  1.00  0.00    -0.212 Cl 
HETATM   27  C   UNL     1      -9.388   8.925  70.387  1.00  0.00    -0.193 A  
HETATM   28 CL   UNL     1      -8.196  10.085  69.893  1.00  0.00    -0.192 Cl 
HETATM   29  F   UNL     1     -12.266   6.390  71.862  1.00  0.00    -0.363 F  
HETATM   30  C   UNL     1     -10.232   9.333  71.429  1.00  0.00    -0.371 A  
HETATM   31  C   UNL     1     -11.208   8.474  71.912  1.00  0.00    -0.397 A  
HETATM   32  C   UNL     1     -10.470   6.770  70.337  1.00  0.00    -0.206 A  
HETATM   33  C   UNL     1     -11.320   7.204  71.367  1.00  0.00    -0.259 A  
ENDBRANCH   2  25
TORSDOF 5
ENDMDL
MODEL       70
REMARK 921   NORMALIZED FREE ENERGY PREDICTED BY IDOCK:   -6.59 KCAL/MOL
REMARK 922        TOTAL FREE ENERGY PREDICTED BY IDOCK:   -9.18 KCAL/MOL
REMARK 923 INTER-LIGAND FREE ENERGY PREDICTED BY IDOCK:   -8.38 KCAL/MOL
REMARK 924 INTRA-LIGAND FREE ENERGY PREDICTED BY IDOCK:   -0.80 KCAL/MOL
REMARK 927      BINDING AFFINITY PREDICTED BY RF-SCORE:    0.00 PKD
ROOT
HETATM    1  C   UNL     1     -11.654   6.489  69.762  1.00  0.00    -0.392 C  
HETATM    2  C   UNL     1     -10.214   7.003  69.804  1.00  0.00    -0.201 C  
ENDROOT
BRANCH   2   3
HETATM    3  O   UNL     1     -10.182   8.057  70.767  1.00  0.00    -0.193 OA 
BRANCH   3   4
HETATM    4  C   UNL     1     -11.079   9.084  70.708  1.00  0.00    -0.272 A  
HETATM    5  C   UNL     1     -12.633  11.303  70.417  1.00  0.00    -0.210 A  
HETATM    6  C   UNL     1     -11.584  11.134  69.522  1.00  0.00    -0.392 A  
HETATM    7  H1  UNL     1     -13.235   8.810  73.319  1.00  0.00     0.000 HD 
HETATM    8  N   UNL     1     -12.930  10.447  71.424  1.00  0.00    -0.412 NA 
HETATM    9  C   UNL     1     -10.803   9.995  69.680  1.00  0.00    -0.292 A  
HETATM   10  C   UNL     1     -12.139   9.368  71.571  1.00  0.00    -0.379 A  
HETATM   11  H2  UNL     1     -11.619   8.536  73.259  1.00  0.00     0.000 HD 
HETATM   12  N   UNL     1     -12.461   8.602  72.688  1.00  0.00    -0.315 NA 
BRANCH   6  13
HETATM   13  C   UNL     1     -11.309  12.135  68.513  1.00  0.00    -0.324 A  
HETATM   14  N   UNL     1     -11.162  14.132  67.429  1.00  0.00    -0.306 NA 
HETATM   15  C   UNL     1     -11.519  13.527  68.558  1.00  0.00    -0.310 A  
HETATM   16  C   UNL     1     -10.774  11.912  67.259  1.00  0.00    -0.236 A  
HETATM   17  N   UNL     1     -10.730  13.134  66.639  1.00  0.00    -0.277 NA 
BRANCH  17  18
HETATM   18  C   UNL     1     -10.307  13.410  65.266  1.00  0.00    -0.319 C  
HETATM   19  C   UNL     1     -10.658  12.268  64.302  1.00  0.00    -0.387 C  
HETATM   20  C   UNL     1     -12.137  12.265  63.913  1.00  0.00    -0.506 C  
HETATM   21  N   UNL     1     -12.566  13.562  63.388  1.00  0.00    -0.855 NA 
HETATM   22  C   UNL     1     -12.324  14.649  64.339  1.00  0.00    -0.398 C  
HETATM   23  H   UNL     1     -13.542  13.537  63.096  1.00  0.00     0.000 HD 
HETATM   24  C   UNL     1     -10.853  14.741  64.736  1.00  0.00    -0.395 C  
ENDBRANCH  17  18
ENDBRANCH   6  13
ENDBRANCH   3   4
ENDBRANCH   2   3
BRANCH   2  25
HETATM   25  C   UNL     1      -9.247   5.865  70.136  1.00  0.00    -0.169 A  
HETATM   26 CL   UNL     1     -10.328   5.508  72.667  1.00  0.00    -0.224 Cl 
HETATM   27  C   UNL     1      -8.338   5.419  69.141  1.00  0.00    -0.097 A  
HETATM   28 CL   UNL     1      -8.291   6.096  67.545  1.00  0.00    -0.109 Cl 
HETATM   29  F   UNL     1      -8.246   3.531  72.790  1.00  0.00    -0.075 F  
HETATM   30  C   UNL     1      -7.431   4.378  69.384  1.00  0.00    -0.055 A  
HETATM   31  C   UNL     1      -7.400   3.754  70.622  1.00  0.00    -0.041 A  
HETATM   32  C   UNL     1      -9.220   5.186  71.375  1.00  0.00    -0.146 A  
HETATM   33  C   UNL     1      -8.290   4.159  71.605  1.00  0.00    -0.091 A  
ENDBRANCH   2  25
TORSDOF 5
ENDMDL
MODEL       71
REMARK 921   NORMALIZED FREE ENERGY PREDICTED BY IDOCK:   -6.53 KCAL/MOL
REMARK 922        TOTAL FREE ENERGY PREDICTED BY IDOCK:   -9.12 KCAL/MOL
REMARK 923 INTER-LIGAND FREE ENERGY PREDICTED BY IDOCK:   -9.50 KCAL/MOL
REMARK 924 INTRA-LIGAND FREE ENERGY PREDICTED BY IDOCK:    0.39 KCAL/MOL
REMARK 927      BINDING AFFINITY PREDICTED BY RF-SCORE:    0.00 PKD
ROOT
HETATM    1  C   UNL     1     -12.647  13.159  65.535  1.00  0.00    -0.468 C  
HETATM    2  C   UNL     1     -11.528  12.903  66.546  1.00  0.00    -0.341 C  
ENDROOT
BRANCH   2   3
HETATM    3  O   UNL     1     -12.105  13.052  67.844  1.00  0.00    -0.321 OA 
BRANCH   3   4
HETATM    4  C   UNL     1     -11.846  14.159  68.600  1.00  0.00    -0.348 A  
HETATM    5  C   UNL     1     -11.106  16.454  69.867  1.00  0.00    -0.310 A  
HETATM    6  C   UNL     1     -10.870  16.373  68.500  1.00  0.00    -0.339 A  
HETATM    7  H1  UNL     1     -12.602  13.477  71.841  1.00  0.00     0.000 HD 
HETATM    8  N   UNL     1     -11.668  15.472  70.610  1.00  0.00    -0.322 NA 
HETATM    9  C   UNL     1     -11.258  15.198  67.867  1.00  0.00    -0.334 A  
HETATM   10  C   UNL     1     -12.006  14.334  69.976  1.00  0.00    -0.334 A  
HETATM   11  H2  UNL     1     -11.899  12.526  70.705  1.00  0.00     0.000 HD 
HETATM   12  N   UNL     1     -12.486  13.350  70.836  1.00  0.00    -0.371 NA 
BRANCH   6  13
HETATM   13  C   UNL     1     -10.209  17.454  67.801  1.00  0.00    -0.345 A  
HETATM   14  N   UNL     1      -9.580  18.910  66.167  1.00  0.00    -0.468 NA 
HETATM   15  C   UNL     1     -10.379  17.893  66.473  1.00  0.00    -0.362 A  
HETATM   16  C   UNL     1      -9.239  18.293  68.314  1.00  0.00    -0.309 A  
HETATM   17  N   UNL     1      -8.876  19.130  67.291  1.00  0.00    -0.286 NA 
BRANCH  17  18
HETATM   18  C   UNL     1      -7.830  20.152  67.318  1.00  0.00    -0.313 C  
HETATM   19  C   UNL     1      -6.871  19.981  68.505  1.00  0.00    -0.336 C  
HETATM   20  C   UNL     1      -5.857  18.859  68.279  1.00  0.00    -0.209 C  
HETATM   21  N   UNL     1      -5.129  19.027  67.020  1.00  0.00    -0.148 NA 
HETATM   22  C   UNL     1      -6.029  19.095  65.868  1.00  0.00    -0.181 C  
HETATM   23  H   UNL     1      -4.429  18.295  66.898  1.00  0.00     0.000 HD 
HETATM   24  C   UNL     1      -7.044  20.229  66.004  1.00  0.00    -0.293 C  
ENDBRANCH  17  18
ENDBRANCH   6  13
ENDBRANCH   3   4
ENDBRANCH   2   3
BRANCH   2  25
HETATM   25  C   UNL     1     -10.909  11.521  66.326  1.00  0.00    -0.333 A  
HETATM   26 CL   UNL     1     -10.038  12.173  63.772  1.00  0.00    -0.406 Cl 
HETATM   27  C   UNL     1     -10.932  10.578  67.385  1.00  0.00    -0.288 A  
HETATM   28 CL   UNL     1     -11.615  10.931  68.940  1.00  0.00    -0.356 Cl 
HETATM   29  F   UNL     1      -9.151   9.441  63.860  1.00  0.00    -0.251 F  
HETATM   30  C   UNL     1     -10.378   9.298  67.246  1.00  0.00    -0.332 A  
HETATM   31  C   UNL     1      -9.789   8.919  66.048  1.00  0.00    -0.277 A  
HETATM   32  C   UNL     1     -10.269  11.123  65.131  1.00  0.00    -0.289 A  
HETATM   33  C   UNL     1      -9.737   9.829  65.004  1.00  0.00    -0.233 A  
ENDBRANCH   2  25
TORSDOF 5
ENDMDL
MODEL       72
REMARK 921   NORMALIZED FREE ENERGY PREDICTED BY IDOCK:   -6.49 KCAL/MOL
REMARK 922        TOTAL FREE ENERGY PREDICTED BY IDOCK:   -9.06 KCAL/MOL
REMARK 923 INTER-LIGAND FREE ENERGY PREDICTED BY IDOCK:   -8.20 KCAL/MOL
REMARK 924 INTRA-LIGAND FREE ENERGY PREDICTED BY IDOCK:   -0.86 KCAL/MOL
REMARK 927      BINDING AFFINITY PREDICTED BY RF-SCORE:    0.00 PKD
ROOT
HETATM    1  C   UNL     1      -9.961   8.408  66.343  1.00  0.00    -0.291 C  
HETATM    2  C   UNL     1      -9.394   9.809  66.576  1.00  0.00    -0.162 C  
ENDROOT
BRANCH   2   3
HETATM    3  O   UNL     1     -10.503  10.710  66.553  1.00  0.00    -0.239 OA 
BRANCH   3   4
HETATM    4  C   UNL     1     -10.438  11.879  65.852  1.00  0.00    -0.258 A  
HETATM    5  C   UNL     1     -10.441  14.360  64.727  1.00  0.00    -0.367 A  
HETATM    6  C   UNL     1     -10.478  14.286  66.114  1.00  0.00    -0.294 A  
HETATM    7  H1  UNL     1     -10.500  11.171  62.530  1.00  0.00     0.000 HD 
HETATM    8  N   UNL     1     -10.411  13.288  63.900  1.00  0.00    -0.246 NA 
HETATM    9  C   UNL     1     -10.471  13.013  66.673  1.00  0.00    -0.271 A  
HETATM   10  C   UNL     1     -10.436  12.068  64.469  1.00  0.00    -0.299 A  
HETATM   11  H2  UNL     1     -11.328  10.480  63.765  1.00  0.00     0.000 HD 
HETATM   12  N   UNL     1     -10.501  11.033  63.540  1.00  0.00    -0.349 NA 
BRANCH   6  13
HETATM   13  C   UNL     1     -10.567  15.489  66.914  1.00  0.00    -0.307 A  
HETATM   14  N   UNL     1     -10.802  16.894  68.690  1.00  0.00    -0.338 NA 
HETATM   15  C   UNL     1     -10.745  15.623  68.305  1.00  0.00    -0.283 A  
HETATM   16  C   UNL     1     -10.503  16.789  66.453  1.00  0.00    -0.269 A  
HETATM   17  N   UNL     1     -10.673  17.594  67.549  1.00  0.00    -0.335 NA 
BRANCH  17  18
HETATM   18  C   UNL     1     -10.753  19.054  67.567  1.00  0.00    -0.446 C  
HETATM   19  C   UNL     1      -9.935  19.674  68.709  1.00  0.00    -0.542 C  
HETATM   20  C   UNL     1      -8.436  19.697  68.408  1.00  0.00    -0.313 C  
HETATM   21  N   UNL     1      -8.146  20.344  67.128  1.00  0.00    -0.385 NA 
HETATM   22  C   UNL     1      -8.846  19.700  66.014  1.00  0.00    -0.246 C  
HETATM   23  H   UNL     1      -7.142  20.388  66.956  1.00  0.00     0.000 HD 
HETATM   24  C   UNL     1     -10.359  19.684  66.226  1.00  0.00    -0.619 C  
ENDBRANCH  17  18
ENDBRANCH   6  13
ENDBRANCH   3   4
ENDBRANCH   2   3
BRANCH   2  25
HETATM   25  C   UNL     1      -8.612   9.862  67.890  1.00  0.00    -0.125 A  
HETATM   26 CL   UNL     1     -10.754   8.880  69.356  1.00  0.00    -0.222 Cl 
HETATM   27  C   UNL     1      -7.250  10.257  67.867  1.00  0.00    -0.085 A  
HETATM   28 CL   UNL     1      -6.417  10.664  66.401  1.00  0.00    -0.107 Cl 
HETATM   29  F   UNL     1      -8.886   9.270  71.505  1.00  0.00    -0.260 F  
HETATM   30  C   UNL     1      -6.480  10.321  69.037  1.00  0.00    -0.045 A  
HETATM   31  C   UNL     1      -7.044   9.996  70.262  1.00  0.00    -0.156 A  
HETATM   32  C   UNL     1      -9.151   9.500  69.145  1.00  0.00    -0.152 A  
HETATM   33  C   UNL     1      -8.369   9.589  70.308  1.00  0.00    -0.195 A  
ENDBRANCH   2  25
TORSDOF 5
ENDMDL
MODEL       73
REMARK 921   NORMALIZED FREE ENERGY PREDICTED BY IDOCK:   -6.48 KCAL/MOL
REMARK 922        TOTAL FREE ENERGY PREDICTED BY IDOCK:   -9.05 KCAL/MOL
REMARK 923 INTER-LIGAND FREE ENERGY PREDICTED BY IDOCK:   -7.88 KCAL/MOL
REMARK 924 INTRA-LIGAND FREE ENERGY PREDICTED BY IDOCK:   -1.17 KCAL/MOL
REMARK 927      BINDING AFFINITY PREDICTED BY RF-SCORE:    0.00 PKD
ROOT
HETATM    1  C   UNL     1     -12.390  13.863  66.491  1.00  0.00    -0.447 C  
HETATM    2  C   UNL     1     -11.388  13.258  67.477  1.00  0.00    -0.296 C  
ENDROOT
BRANCH   2   3
HETATM    3  O   UNL     1     -10.094  13.716  67.079  1.00  0.00    -0.242 OA 
BRANCH   3   4
HETATM    4  C   UNL     1      -8.966  13.084  67.517  1.00  0.00    -0.193 A  
HETATM    5  C   UNL     1      -6.922  11.622  68.568  1.00  0.00    -0.085 A  
HETATM    6  C   UNL     1      -8.181  11.034  68.539  1.00  0.00    -0.146 A  
HETATM    7  H1  UNL     1      -6.361  15.259  67.361  1.00  0.00     0.000 HD 
HETATM    8  N   UNL     1      -6.645  12.869  68.120  1.00  0.00    -0.080 NA 
HETATM    9  C   UNL     1      -9.212  11.791  67.996  1.00  0.00    -0.181 A  
HETATM   10  C   UNL     1      -7.669  13.590  67.626  1.00  0.00    -0.176 A  
HETATM   11  H2  UNL     1      -7.918  15.518  67.801  1.00  0.00     0.000 HD 
HETATM   12  N   UNL     1      -7.308  14.889  67.281  1.00  0.00    -0.188 NA 
BRANCH   6  13
HETATM   13  C   UNL     1      -8.391   9.715  69.097  1.00  0.00    -0.130 A  
HETATM   14  N   UNL     1      -8.436   7.452  69.345  1.00  0.00    -0.132 NA 
HETATM   15  C   UNL     1      -8.076   8.456  68.551  1.00  0.00    -0.123 A  
HETATM   16  C   UNL     1      -8.972   9.421  70.315  1.00  0.00    -0.240 A  
HETATM   17  N   UNL     1      -8.999   8.054  70.407  1.00  0.00    -0.145 NA 
BRANCH  17  18
HETATM   18  C   UNL     1      -9.583   7.255  71.484  1.00  0.00    -0.156 C  
HETATM   19  C   UNL     1     -10.412   8.100  72.460  1.00  0.00    -0.409 C  
HETATM   20  C   UNL     1     -11.787   8.463  71.898  1.00  0.00    -0.336 C  
HETATM   21  N   UNL     1     -12.524   7.279  71.453  1.00  0.00    -0.365 NA 
HETATM   22  C   UNL     1     -11.784   6.514  70.448  1.00  0.00    -0.375 C  
HETATM   23  H   UNL     1     -13.454   7.528  71.116  1.00  0.00     0.000 HD 
HETATM   24  C   UNL     1     -10.413   6.076  70.961  1.00  0.00    -0.285 C  
ENDBRANCH  17  18
ENDBRANCH   6  13
ENDBRANCH   3   4
ENDBRANCH   2   3
BRANCH   2  25
HETATM   25  C   UNL     1     -11.742  13.651  68.913  1.00  0.00    -0.377 A  
HETATM   26 CL   UNL     1     -11.384  16.355  68.401  1.00  0.00    -0.335 Cl 
HETATM   27  C   UNL     1     -12.145  12.642  69.824  1.00  0.00    -0.233 A  
HETATM   28 CL   UNL     1     -12.279  10.972  69.374  1.00  0.00    -0.392 Cl 
HETATM   29  F   UNL     1     -12.026  16.513  71.198  1.00  0.00    -0.377 F  
HETATM   30  C   UNL     1     -12.486  12.939  71.151  1.00  0.00    -0.344 A  
HETATM   31  C   UNL     1     -12.432  14.247  71.609  1.00  0.00    -0.419 A  
HETATM   32  C   UNL     1     -11.733  14.979  69.394  1.00  0.00    -0.326 A  
HETATM   33  C   UNL     1     -12.058  15.255  70.732  1.00  0.00    -0.351 A  
ENDBRANCH   2  25
TORSDOF 5
ENDMDL
MODEL       74
REMARK 921   NORMALIZED FREE ENERGY PREDICTED BY IDOCK:   -6.48 KCAL/MOL
REMARK 922        TOTAL FREE ENERGY PREDICTED BY IDOCK:   -9.04 KCAL/MOL
REMARK 923 INTER-LIGAND FREE ENERGY PREDICTED BY IDOCK:   -8.43 KCAL/MOL
REMARK 924 INTRA-LIGAND FREE ENERGY PREDICTED BY IDOCK:   -0.61 KCAL/MOL
REMARK 927      BINDING AFFINITY PREDICTED BY RF-SCORE:    0.00 PKD
ROOT
HETATM    1  C   UNL     1     -11.025   6.461  67.543  1.00  0.00    -0.454 C  
HETATM    2  C   UNL     1      -9.793   6.408  68.447  1.00  0.00    -0.137 C  
ENDROOT
BRANCH   2   3
HETATM    3  O   UNL     1      -9.038   7.591  68.182  1.00  0.00    -0.130 OA 
BRANCH   3   4
HETATM    4  C   UNL     1      -8.832   8.015  66.901  1.00  0.00    -0.132 A  
HETATM    5  C   UNL     1      -8.718   9.023  64.372  1.00  0.00    -0.118 A  
HETATM    6  C   UNL     1      -9.539   9.675  65.285  1.00  0.00    -0.347 A  
HETATM    7  H1  UNL     1      -6.792   5.801  65.327  1.00  0.00     0.000 HD 
HETATM    8  N   UNL     1      -7.981   7.922  64.651  1.00  0.00    -0.140 NA 
HETATM    9  C   UNL     1      -9.583   9.151  66.572  1.00  0.00    -0.289 A  
HETATM   10  C   UNL     1      -8.066   7.420  65.897  1.00  0.00    -0.128 A  
HETATM   11  H2  UNL     1      -8.010   5.532  66.391  1.00  0.00     0.000 HD 
HETATM   12  N   UNL     1      -7.351   6.237  66.060  1.00  0.00    -0.078 NA 
BRANCH   6  13
HETATM   13  C   UNL     1     -10.337  10.812  64.878  1.00  0.00    -0.369 A  
HETATM   14  N   UNL     1     -11.311  12.425  63.600  1.00  0.00    -0.448 NA 
HETATM   15  C   UNL     1     -10.517  11.359  63.592  1.00  0.00    -0.414 A  
HETATM   16  C   UNL     1     -11.098  11.619  65.700  1.00  0.00    -0.249 A  
HETATM   17  N   UNL     1     -11.641  12.584  64.894  1.00  0.00    -0.328 NA 
BRANCH  17  18
HETATM   18  C   UNL     1     -12.469  13.717  65.310  1.00  0.00    -0.479 C  
HETATM   19  C   UNL     1     -12.263  14.085  66.785  1.00  0.00    -0.439 C  
HETATM   20  C   UNL     1     -10.968  14.865  67.018  1.00  0.00    -0.327 C  
HETATM   21  N   UNL     1     -10.878  16.042  66.153  1.00  0.00    -0.237 NA 
HETATM   22  C   UNL     1     -10.977  15.693  64.734  1.00  0.00    -0.400 C  
HETATM   23  H   UNL     1     -10.030  16.576  66.343  1.00  0.00     0.000 HD 
HETATM   24  C   UNL     1     -12.274  14.950  64.420  1.00  0.00    -0.399 C  
ENDBRANCH  17  18
ENDBRANCH   6  13
ENDBRANCH   3   4
ENDBRANCH   2   3
BRANCH   2  25
HETATM   25  C   UNL     1     -10.206   6.283  69.915  1.00  0.00    -0.232 A  
HETATM   26 CL   UNL     1     -11.174   8.884  69.999  1.00  0.00    -0.176 Cl 
HETATM   27  C   UNL     1     -10.044   5.038  70.575  1.00  0.00    -0.253 A  
HETATM   28 CL   UNL     1      -9.413   3.632  69.779  1.00  0.00    -0.252 Cl 
HETATM   29  F   UNL     1     -11.657   8.141  72.733  1.00  0.00    -0.425 F  
HETATM   30  C   UNL     1     -10.408   4.860  71.917  1.00  0.00    -0.259 A  
HETATM   31  C   UNL     1     -10.941   5.917  72.640  1.00  0.00    -0.305 A  
HETATM   32  C   UNL     1     -10.788   7.331  70.664  1.00  0.00    -0.242 A  
HETATM   33  C   UNL     1     -11.128   7.139  72.013  1.00  0.00    -0.245 A  
ENDBRANCH   2  25
TORSDOF 5
ENDMDL
MODEL       75
REMARK 921   NORMALIZED FREE ENERGY PREDICTED BY IDOCK:   -6.47 KCAL/MOL
REMARK 922        TOTAL FREE ENERGY PREDICTED BY IDOCK:   -9.03 KCAL/MOL
REMARK 923 INTER-LIGAND FREE ENERGY PREDICTED BY IDOCK:   -8.07 KCAL/MOL
REMARK 924 INTRA-LIGAND FREE ENERGY PREDICTED BY IDOCK:   -0.96 KCAL/MOL
REMARK 927      BINDING AFFINITY PREDICTED BY RF-SCORE:    0.00 PKD
ROOT
HETATM    1  C   UNL     1      -9.313   5.334  69.064  1.00  0.00    -0.171 C  
HETATM    2  C   UNL     1      -9.075   6.841  69.167  1.00  0.00    -0.138 C  
ENDROOT
BRANCH   2   3
HETATM    3  O   UNL     1     -10.156   7.475  68.481  1.00  0.00    -0.173 OA 
BRANCH   3   4
HETATM    4  C   UNL     1     -10.143   8.821  68.253  1.00  0.00    -0.188 A  
HETATM    5  C   UNL     1     -10.403  11.519  67.982  1.00  0.00    -0.190 A  
HETATM    6  C   UNL     1     -11.056  10.917  69.051  1.00  0.00    -0.302 A  
HETATM    7  H1  UNL     1      -8.424   9.433  65.388  1.00  0.00     0.000 HD 
HETATM    8  N   UNL     1      -9.656  10.858  67.066  1.00  0.00    -0.172 NA 
HETATM    9  C   UNL     1     -10.910   9.541  69.178  1.00  0.00    -0.194 A  
HETATM   10  C   UNL     1      -9.557   9.522  67.198  1.00  0.00    -0.160 A  
HETATM   11  H2  UNL     1      -9.467   8.219  65.747  1.00  0.00     0.000 HD 
HETATM   12  N   UNL     1      -8.852   8.921  66.159  1.00  0.00    -0.151 NA 
BRANCH   6  13
HETATM   13  C   UNL     1     -11.882  11.701  69.945  1.00  0.00    -0.434 A  
HETATM   14  N   UNL     1     -13.284  12.284  71.641  1.00  0.00    -0.351 NA 
HETATM   15  C   UNL     1     -12.624  11.283  71.067  1.00  0.00    -0.394 A  
HETATM   16  C   UNL     1     -12.119  13.059  69.866  1.00  0.00    -0.277 A  
HETATM   17  N   UNL     1     -12.984  13.356  70.887  1.00  0.00    -0.182 NA 
BRANCH  17  18
HETATM   18  C   UNL     1     -13.589  14.656  71.179  1.00  0.00    -0.344 C  
HETATM   19  C   UNL     1     -13.948  14.818  72.662  1.00  0.00    -0.430 C  
HETATM   20  C   UNL     1     -12.726  15.122  73.529  1.00  0.00    -0.547 C  
HETATM   21  N   UNL     1     -11.976  16.275  73.029  1.00  0.00    -0.518 NA 
HETATM   22  C   UNL     1     -11.544  16.093  71.642  1.00  0.00    -0.425 C  
HETATM   23  H   UNL     1     -11.185  16.493  73.636  1.00  0.00     0.000 HD 
HETATM   24  C   UNL     1     -12.723  15.831  70.708  1.00  0.00    -0.388 C  
ENDBRANCH  17  18
ENDBRANCH   6  13
ENDBRANCH   3   4
ENDBRANCH   2   3
BRANCH   2  25
HETATM   25  C   UNL     1      -8.967   7.270  70.632  1.00  0.00    -0.156 A  
HETATM   26 CL   UNL     1     -11.565   6.469  71.194  1.00  0.00    -0.374 Cl 
HETATM   27  C   UNL     1      -7.731   7.770  71.116  1.00  0.00    -0.084 A  
HETATM   28 CL   UNL     1      -6.317   7.897  70.119  1.00  0.00    -0.033 Cl 
HETATM   29  F   UNL     1     -10.854   7.516  73.774  1.00  0.00    -0.406 F  
HETATM   30  C   UNL     1      -7.569   8.174  72.448  1.00  0.00    -0.153 A  
HETATM   31  C   UNL     1      -8.632   8.096  73.335  1.00  0.00    -0.313 A  
HETATM   32  C   UNL     1     -10.022   7.164  71.566  1.00  0.00    -0.182 A  
HETATM   33  C   UNL     1      -9.846   7.592  72.892  1.00  0.00    -0.242 A  
ENDBRANCH   2  25
TORSDOF 5
ENDMDL
MODEL       76
REMARK 921   NORMALIZED FREE ENERGY PREDICTED BY IDOCK:   -6.45 KCAL/MOL
REMARK 922        TOTAL FREE ENERGY PREDICTED BY IDOCK:   -9.01 KCAL/MOL
REMARK 923 INTER-LIGAND FREE ENERGY PREDICTED BY IDOCK:   -7.80 KCAL/MOL
REMARK 924 INTRA-LIGAND FREE ENERGY PREDICTED BY IDOCK:   -1.21 KCAL/MOL
REMARK 927      BINDING AFFINITY PREDICTED BY RF-SCORE:    0.00 PKD
ROOT
HETATM    1  C   UNL     1      -6.739   8.053  65.802  1.00  0.00    -0.048 C  
HETATM    2  C   UNL     1      -8.235   8.008  66.117  1.00  0.00    -0.116 C  
ENDROOT
BRANCH   2   3
HETATM    3  O   UNL     1      -8.891   8.769  65.101  1.00  0.00    -0.186 OA 
BRANCH   3   4
HETATM    4  C   UNL     1      -9.677   9.836  65.428  1.00  0.00    -0.313 A  
HETATM    5  C   UNL     1     -11.350  11.782  66.342  1.00  0.00    -0.297 A  
HETATM    6  C   UNL     1     -10.935  10.815  67.251  1.00  0.00    -0.359 A  
HETATM    7  H1  UNL     1     -10.312  11.631  62.614  1.00  0.00     0.000 HD 
HETATM    8  N   UNL     1     -10.988  11.817  65.038  1.00  0.00    -0.306 NA 
HETATM    9  C   UNL     1     -10.077   9.832  66.770  1.00  0.00    -0.295 A  
HETATM   10  C   UNL     1     -10.181  10.836  64.594  1.00  0.00    -0.350 A  
HETATM   11  H2  UNL     1     -10.231  10.007  62.826  1.00  0.00     0.000 HD 
HETATM   12  N   UNL     1      -9.943  10.901  63.224  1.00  0.00    -0.345 NA 
BRANCH   6  13
HETATM   13  C   UNL     1     -11.423  10.826  68.613  1.00  0.00    -0.365 A  
HETATM   14  N   UNL     1     -12.325  11.527  70.583  1.00  0.00    -0.373 NA 
HETATM   15  C   UNL     1     -12.019  11.877  69.338  1.00  0.00    -0.289 A  
HETATM   16  C   UNL     1     -11.391   9.773  69.506  1.00  0.00    -0.083 A  
HETATM   17  N   UNL     1     -11.920  10.249  70.678  1.00  0.00    -0.315 NA 
BRANCH  17  18
HETATM   18  C   UNL     1     -12.036   9.531  71.947  1.00  0.00    -0.337 C  
HETATM   19  C   UNL     1     -13.490   9.415  72.426  1.00  0.00    -0.506 C  
HETATM   20  C   UNL     1     -14.270   8.337  71.672  1.00  0.00    -0.447 C  
HETATM   21  N   UNL     1     -13.588   7.043  71.710  1.00  0.00    -0.488 NA 
HETATM   22  C   UNL     1     -12.230   7.119  71.167  1.00  0.00    -0.365 C  
HETATM   23  H   UNL     1     -14.134   6.323  71.239  1.00  0.00     0.000 HD 
HETATM   24  C   UNL     1     -11.377   8.147  71.907  1.00  0.00    -0.356 C  
ENDBRANCH  17  18
ENDBRANCH   6  13
ENDBRANCH   3   4
ENDBRANCH   2   3
BRANCH   2  25
HETATM   25  C   UNL     1      -8.727   6.561  66.187  1.00  0.00    -0.153 A  
HETATM   26 CL   UNL     1      -8.051   6.065  63.541  1.00  0.00    -0.107 Cl 
HETATM   27  C   UNL     1      -9.202   6.052  67.423  1.00  0.00    -0.109 A  
HETATM   28 CL   UNL     1      -9.229   6.998  68.877  1.00  0.00    -0.137 Cl 
HETATM   29  F   UNL     1      -9.190   3.508  64.196  1.00  0.00    -0.114 F  
HETATM   30  C   UNL     1      -9.661   4.734  67.552  1.00  0.00    -0.209 A  
HETATM   31  C   UNL     1      -9.664   3.886  66.454  1.00  0.00    -0.181 A  
HETATM   32  C   UNL     1      -8.704   5.665  65.095  1.00  0.00    -0.093 A  
HETATM   33  C   UNL     1      -9.187   4.354  65.239  1.00  0.00    -0.155 A  
ENDBRANCH   2  25
TORSDOF 5
ENDMDL
MODEL       77
REMARK 921   NORMALIZED FREE ENERGY PREDICTED BY IDOCK:   -6.41 KCAL/MOL
REMARK 922        TOTAL FREE ENERGY PREDICTED BY IDOCK:   -8.96 KCAL/MOL
REMARK 923 INTER-LIGAND FREE ENERGY PREDICTED BY IDOCK:   -8.33 KCAL/MOL
REMARK 924 INTRA-LIGAND FREE ENERGY PREDICTED BY IDOCK:   -0.63 KCAL/MOL
REMARK 927      BINDING AFFINITY PREDICTED BY RF-SCORE:    0.00 PKD
ROOT
HETATM    1  C   UNL     1      -7.014   8.629  67.429  1.00  0.00    -0.078 C  
HETATM    2  C   UNL     1      -8.482   8.902  67.760  1.00  0.00    -0.125 C  
ENDROOT
BRANCH   2   3
HETATM    3  O   UNL     1      -9.149   9.129  66.517  1.00  0.00    -0.142 OA 
BRANCH   3   4
HETATM    4  C   UNL     1      -9.830  10.291  66.293  1.00  0.00    -0.219 A  
HETATM    5  C   UNL     1     -11.319  12.568  66.156  1.00  0.00    -0.343 A  
HETATM    6  C   UNL     1     -11.027  12.069  67.420  1.00  0.00    -0.311 A  
HETATM    7  H1  UNL     1     -10.207  10.713  62.944  1.00  0.00     0.000 HD 
HETATM    8  N   UNL     1     -10.922  11.998  64.994  1.00  0.00    -0.298 NA 
HETATM    9  C   UNL     1     -10.262  10.909  67.473  1.00  0.00    -0.224 A  
HETATM   10  C   UNL     1     -10.208  10.860  65.076  1.00  0.00    -0.303 A  
HETATM   11  H2  UNL     1     -10.297   9.346  63.845  1.00  0.00     0.000 HD 
HETATM   12  N   UNL     1      -9.930  10.298  63.833  1.00  0.00    -0.202 NA 
BRANCH   6  13
HETATM   13  C   UNL     1     -11.546  12.716  68.606  1.00  0.00    -0.356 A  
HETATM   14  N   UNL     1     -12.310  13.065  70.722  1.00  0.00    -0.360 NA 
HETATM   15  C   UNL     1     -11.817  12.167  69.875  1.00  0.00    -0.319 A  
HETATM   16  C   UNL     1     -11.898  14.046  68.729  1.00  0.00    -0.361 A  
HETATM   17  N   UNL     1     -12.373  14.200  70.006  1.00  0.00    -0.346 NA 
BRANCH  17  18
HETATM   18  C   UNL     1     -12.935  15.415  70.596  1.00  0.00    -0.398 C  
HETATM   19  C   UNL     1     -14.247  15.150  71.348  1.00  0.00    -0.597 C  
HETATM   20  C   UNL     1     -14.016  14.515  72.720  1.00  0.00    -0.143 C  
HETATM   21  N   UNL     1     -13.079  15.294  73.531  1.00  0.00    -0.546 NA 
HETATM   22  C   UNL     1     -11.788  15.472  72.864  1.00  0.00    -0.457 C  
HETATM   23  H   UNL     1     -12.963  14.883  74.457  1.00  0.00     0.000 HD 
HETATM   24  C   UNL     1     -11.939  16.148  71.503  1.00  0.00    -0.490 C  
ENDBRANCH  17  18
ENDBRANCH   6  13
ENDBRANCH   3   4
ENDBRANCH   2   3
BRANCH   2  25
HETATM   25  C   UNL     1      -9.081   7.737  68.551  1.00  0.00    -0.132 A  
HETATM   26 CL   UNL     1      -8.672   5.944  66.472  1.00  0.00    -0.122 Cl 
HETATM   27  C   UNL     1      -9.489   7.951  69.893  1.00  0.00    -0.160 A  
HETATM   28 CL   UNL     1      -9.318   9.481  70.691  1.00  0.00    -0.305 Cl 
HETATM   29  F   UNL     1      -9.953   4.174  68.340  1.00  0.00    -0.203 F  
HETATM   30  C   UNL     1     -10.040   6.922  70.670  1.00  0.00    -0.208 A  
HETATM   31  C   UNL     1     -10.203   5.654  70.133  1.00  0.00    -0.318 A  
HETATM   32  C   UNL     1      -9.222   6.426  68.043  1.00  0.00    -0.110 A  
HETATM   33  C   UNL     1      -9.794   5.414  68.830  1.00  0.00    -0.150 A  
ENDBRANCH   2  25
TORSDOF 5
ENDMDL
MODEL       78
REMARK 921   NORMALIZED FREE ENERGY PREDICTED BY IDOCK:   -6.41 KCAL/MOL
REMARK 922        TOTAL FREE ENERGY PREDICTED BY IDOCK:   -8.95 KCAL/MOL
REMARK 923 INTER-LIGAND FREE ENERGY PREDICTED BY IDOCK:   -8.45 KCAL/MOL
REMARK 924 INTRA-LIGAND FREE ENERGY PREDICTED BY IDOCK:   -0.50 KCAL/MOL
REMARK 927      BINDING AFFINITY PREDICTED BY RF-SCORE:    0.00 PKD
ROOT
HETATM    1  C   UNL     1     -11.006  16.639  70.117  1.00  0.00    -0.110 C  
HETATM    2  C   UNL     1     -10.213  15.945  69.008  1.00  0.00    -0.227 C  
ENDROOT
BRANCH   2   3
HETATM    3  O   UNL     1     -11.145  15.634  67.971  1.00  0.00    -0.313 OA 
BRANCH   3   4
HETATM    4  C   UNL     1     -11.426  14.338  67.652  1.00  0.00    -0.346 A  
HETATM    5  C   UNL     1     -11.890  11.672  67.330  1.00  0.00    -0.091 A  
HETATM    6  C   UNL     1     -11.860  12.165  68.630  1.00  0.00    -0.358 A  
HETATM    7  H1  UNL     1     -11.178  13.957  64.285  1.00  0.00     0.000 HD 
HETATM    8  N   UNL     1     -11.698  12.421  66.219  1.00  0.00    -0.472 NA 
HETATM    9  C   UNL     1     -11.626  13.527  68.777  1.00  0.00    -0.362 A  
HETATM   10  C   UNL     1     -11.444  13.732  66.394  1.00  0.00    -0.336 A  
HETATM   11  H2  UNL     1     -10.250  14.835  65.313  1.00  0.00     0.000 HD 
HETATM   12  N   UNL     1     -11.166  14.399  65.204  1.00  0.00    -0.341 NA 
BRANCH   6  13
HETATM   13  C   UNL     1     -12.018  11.274  69.759  1.00  0.00    -0.431 A  
HETATM   14  N   UNL     1     -12.561  10.464  71.816  1.00  0.00    -0.404 NA 
HETATM   15  C   UNL     1     -12.616  11.519  71.011  1.00  0.00    -0.357 A  
HETATM   16  C   UNL     1     -11.591   9.963  69.838  1.00  0.00    -0.127 A  
HETATM   17  N   UNL     1     -11.916   9.529  71.097  1.00  0.00    -0.325 NA 
BRANCH  17  18
HETATM   18  C   UNL     1     -11.607   8.227  71.688  1.00  0.00    -0.284 C  
HETATM   19  C   UNL     1     -11.660   7.088  70.660  1.00  0.00    -0.379 C  
HETATM   20  C   UNL     1     -10.419   7.048  69.767  1.00  0.00    -0.219 C  
HETATM   21  N   UNL     1      -9.184   7.007  70.551  1.00  0.00    -0.159 NA 
HETATM   22  C   UNL     1      -9.075   8.143  71.468  1.00  0.00    -0.158 C  
HETATM   23  H   UNL     1      -8.365   6.942  69.946  1.00  0.00     0.000 HD 
HETATM   24  C   UNL     1     -10.263   8.217  72.426  1.00  0.00    -0.397 C  
ENDBRANCH  17  18
ENDBRANCH   6  13
ENDBRANCH   3   4
ENDBRANCH   2   3
BRANCH   2  25
HETATM   25  C   UNL     1      -9.065  16.836  68.530  1.00  0.00    -0.241 A  
HETATM   26 CL   UNL     1     -10.795  18.633  67.310  1.00  0.00    -0.444 Cl 
HETATM   27  C   UNL     1      -7.736  16.509  68.902  1.00  0.00    -0.236 A  
HETATM   28 CL   UNL     1      -7.352  15.146  69.903  1.00  0.00    -0.146 Cl 
HETATM   29  F   UNL     1      -8.298  19.865  66.596  1.00  0.00    -0.294 F  
HETATM   30  C   UNL     1      -6.643  17.289  68.498  1.00  0.00    -0.174 A  
HETATM   31  C   UNL     1      -6.842  18.414  67.710  1.00  0.00    -0.208 A  
HETATM   32  C   UNL     1      -9.243  18.008  67.760  1.00  0.00    -0.262 A  
HETATM   33  C   UNL     1      -8.134  18.765  67.349  1.00  0.00    -0.251 A  
ENDBRANCH   2  25
TORSDOF 5
ENDMDL
MODEL       79
REMARK 921   NORMALIZED FREE ENERGY PREDICTED BY IDOCK:   -6.37 KCAL/MOL
REMARK 922        TOTAL FREE ENERGY PREDICTED BY IDOCK:   -8.91 KCAL/MOL
REMARK 923 INTER-LIGAND FREE ENERGY PREDICTED BY IDOCK:   -7.97 KCAL/MOL
REMARK 924 INTRA-LIGAND FREE ENERGY PREDICTED BY IDOCK:   -0.94 KCAL/MOL
REMARK 927      BINDING AFFINITY PREDICTED BY RF-SCORE:    0.00 PKD
ROOT
HETATM    1  C   UNL     1     -10.517  17.039  69.059  1.00  0.00    -0.337 C  
HETATM    2  C   UNL     1     -10.000  16.382  67.778  1.00  0.00    -0.248 C  
ENDROOT
BRANCH   2   3
HETATM    3  O   UNL     1     -11.119  16.262  66.898  1.00  0.00    -0.131 OA 
BRANCH   3   4
HETATM    4  C   UNL     1     -11.196  15.234  66.004  1.00  0.00    -0.231 A  
HETATM    5  C   UNL     1     -11.157  13.007  64.435  1.00  0.00    -0.370 A  
HETATM    6  C   UNL     1     -10.880  12.843  65.787  1.00  0.00    -0.292 A  
HETATM    7  H1  UNL     1     -11.797  16.510  62.913  1.00  0.00     0.000 HD 
HETATM    8  N   UNL     1     -11.436  14.193  63.846  1.00  0.00    -0.023 NA 
HETATM    9  C   UNL     1     -10.908  13.988  66.574  1.00  0.00    -0.300 A  
HETATM   10  C   UNL     1     -11.427  15.289  64.628  1.00  0.00    -0.354 A  
HETATM   11  H2  UNL     1     -10.832  17.076  64.112  1.00  0.00     0.000 HD 
HETATM   12  N   UNL     1     -11.629  16.470  63.918  1.00  0.00    -1.071 NA 
BRANCH   6  13
HETATM   13  C   UNL     1     -10.534  11.541  66.315  1.00  0.00    -0.294 A  
HETATM   14  N   UNL     1      -9.997   9.332  66.447  1.00  0.00    -0.277 NA 
HETATM   15  C   UNL     1     -10.260  10.343  65.625  1.00  0.00    -0.238 A  
HETATM   16  C   UNL     1     -10.408  11.201  67.648  1.00  0.00    -0.192 A  
HETATM   17  N   UNL     1     -10.111   9.864  67.676  1.00  0.00    -0.185 NA 
BRANCH  17  18
HETATM   18  C   UNL     1      -9.952   9.021  68.862  1.00  0.00    -0.189 C  
HETATM   19  C   UNL     1      -9.068   7.794  68.597  1.00  0.00    -0.136 C  
HETATM   20  C   UNL     1      -7.579   8.142  68.567  1.00  0.00    -0.104 C  
HETATM   21  N   UNL     1      -7.161   8.855  69.775  1.00  0.00    -0.053 NA 
HETATM   22  C   UNL     1      -7.933  10.080  69.988  1.00  0.00    -0.150 C  
HETATM   23  H   UNL     1      -6.160   9.047  69.763  1.00  0.00     0.000 HD 
HETATM   24  C   UNL     1      -9.432   9.801  70.076  1.00  0.00    -0.278 C  
ENDBRANCH  17  18
ENDBRANCH   6  13
ENDBRANCH   3   4
ENDBRANCH   2   3
BRANCH   2  25
HETATM   25  C   UNL     1      -8.855  17.199  67.177  1.00  0.00    -0.232 A  
HETATM   26 CL   UNL     1      -7.088  15.062  67.306  1.00  0.00    -0.201 Cl 
HETATM   27  C   UNL     1      -9.104  18.531  66.758  1.00  0.00    -0.297 A  
HETATM   28 CL   UNL     1     -10.666  19.274  66.876  1.00  0.00    -0.547 Cl 
HETATM   29  F   UNL     1      -5.304  17.052  66.248  1.00  0.00    -0.198 F  
HETATM   30  C   UNL     1      -8.097  19.328  66.196  1.00  0.00    -0.294 A  
HETATM   31  C   UNL     1      -6.814  18.824  66.039  1.00  0.00    -0.289 A  
HETATM   32  C   UNL     1      -7.550  16.697  66.969  1.00  0.00    -0.202 A  
HETATM   33  C   UNL     1      -6.550  17.518  66.423  1.00  0.00    -0.255 A  
ENDBRANCH   2  25
TORSDOF 5
ENDMDL
MODEL       80
REMARK 921   NORMALIZED FREE ENERGY PREDICTED BY IDOCK:   -6.36 KCAL/MOL
REMARK 922        TOTAL FREE ENERGY PREDICTED BY IDOCK:   -8.90 KCAL/MOL
REMARK 923 INTER-LIGAND FREE ENERGY PREDICTED BY IDOCK:   -8.34 KCAL/MOL
REMARK 924 INTRA-LIGAND FREE ENERGY PREDICTED BY IDOCK:   -0.55 KCAL/MOL
REMARK 927      BINDING AFFINITY PREDICTED BY RF-SCORE:    0.00 PKD
ROOT
HETATM    1  C   UNL     1     -11.135  10.490  68.145  1.00  0.00    -0.346 C  
HETATM    2  C   UNL     1     -10.072   9.798  67.291  1.00  0.00    -0.207 C  
ENDROOT
BRANCH   2   3
HETATM    3  O   UNL     1      -9.192  10.822  66.822  1.00  0.00    -0.155 OA 
BRANCH   3   4
HETATM    4  C   UNL     1      -9.666  11.857  66.069  1.00  0.00    -0.237 A  
HETATM    5  C   UNL     1     -10.695  14.072  64.861  1.00  0.00    -0.418 A  
HETATM    6  C   UNL     1     -10.302  14.191  66.189  1.00  0.00    -0.304 A  
HETATM    7  H1  UNL     1     -10.496  10.687  62.990  1.00  0.00     0.000 HD 
HETATM    8  N   UNL     1     -10.609  12.934  64.133  1.00  0.00    -0.411 NA 
HETATM    9  C   UNL     1      -9.775  13.054  66.790  1.00  0.00    -0.248 A  
HETATM   10  C   UNL     1     -10.122  11.840  64.750  1.00  0.00    -0.263 A  
HETATM   11  H2  UNL     1     -10.697   9.997  64.464  1.00  0.00     0.000 HD 
HETATM   12  N   UNL     1     -10.162  10.699  63.954  1.00  0.00    -0.306 NA 
BRANCH   6  13
HETATM   13  C   UNL     1     -10.487  15.436  66.903  1.00  0.00    -0.295 A  
HETATM   14  N   UNL     1     -10.949  16.937  68.552  1.00  0.00    -0.331 NA 
HETATM   15  C   UNL     1     -10.855  15.646  68.246  1.00  0.00    -0.298 A  
HETATM   16  C   UNL     1     -10.344  16.709  66.387  1.00  0.00    -0.306 A  
HETATM   17  N   UNL     1     -10.655  17.573  67.404  1.00  0.00    -0.340 NA 
BRANCH  17  18
HETATM   18  C   UNL     1     -10.720  19.032  67.333  1.00  0.00    -0.473 C  
HETATM   19  C   UNL     1     -10.153  19.708  68.589  1.00  0.00    -0.547 C  
HETATM   20  C   UNL     1      -8.624  19.714  68.609  1.00  0.00    -0.262 C  
HETATM   21  N   UNL     1      -8.064  20.294  67.388  1.00  0.00    -0.330 NA 
HETATM   22  C   UNL     1      -8.522  19.596  66.185  1.00  0.00    -0.334 C  
HETATM   23  H   UNL     1      -7.045  20.329  67.429  1.00  0.00     0.000 HD 
HETATM   24  C   UNL     1     -10.045  19.593  66.075  1.00  0.00    -0.553 C  
ENDBRANCH  17  18
ENDBRANCH   6  13
ENDBRANCH   3   4
ENDBRANCH   2   3
BRANCH   2  25
HETATM   25  C   UNL     1      -9.350   8.719  68.101  1.00  0.00    -0.148 A  
HETATM   26 CL   UNL     1      -7.844  10.589  69.495  1.00  0.00    -0.155 Cl 
HETATM   27  C   UNL     1      -9.720   7.361  67.926  1.00  0.00    -0.143 A  
HETATM   28 CL   UNL     1     -10.982   6.866  66.844  1.00  0.00    -0.421 Cl 
HETATM   29  F   UNL     1      -6.751   8.192  70.644  1.00  0.00    -0.037 F  
HETATM   30  C   UNL     1      -9.099   6.329  68.643  1.00  0.00    -0.126 A  
HETATM   31  C   UNL     1      -8.090   6.618  69.550  1.00  0.00    -0.126 A  
HETATM   32  C   UNL     1      -8.346   8.989  69.059  1.00  0.00    -0.124 A  
HETATM   33  C   UNL     1      -7.722   7.940  69.752  1.00  0.00    -0.099 A  
ENDBRANCH   2  25
TORSDOF 5
ENDMDL
MODEL       81
REMARK 921   NORMALIZED FREE ENERGY PREDICTED BY IDOCK:   -6.36 KCAL/MOL
REMARK 922        TOTAL FREE ENERGY PREDICTED BY IDOCK:   -8.89 KCAL/MOL
REMARK 923 INTER-LIGAND FREE ENERGY PREDICTED BY IDOCK:   -7.97 KCAL/MOL
REMARK 924 INTRA-LIGAND FREE ENERGY PREDICTED BY IDOCK:   -0.93 KCAL/MOL
REMARK 927      BINDING AFFINITY PREDICTED BY RF-SCORE:    0.00 PKD
ROOT
HETATM    1  C   UNL     1      -8.516   8.733  71.579  1.00  0.00    -0.230 C  
HETATM    2  C   UNL     1      -9.621   9.293  70.682  1.00  0.00    -0.273 C  
ENDROOT
BRANCH   2   3
HETATM    3  O   UNL     1      -9.212   9.061  69.333  1.00  0.00    -0.145 OA 
BRANCH   3   4
HETATM    4  C   UNL     1      -9.665   9.855  68.320  1.00  0.00    -0.144 A  
HETATM    5  C   UNL     1     -10.665  11.658  66.538  1.00  0.00    -0.272 A  
HETATM    6  C   UNL     1     -10.318  12.129  67.799  1.00  0.00    -0.217 A  
HETATM    7  H1  UNL     1     -10.385   7.903  65.634  1.00  0.00     0.000 HD 
HETATM    8  N   UNL     1     -10.549  10.370  66.140  1.00  0.00    -0.144 NA 
HETATM    9  C   UNL     1      -9.805  11.197  68.695  1.00  0.00    -0.207 A  
HETATM   10  C   UNL     1     -10.077   9.485  67.038  1.00  0.00    -0.234 A  
HETATM   11  H2  UNL     1     -10.632   7.623  67.231  1.00  0.00     0.000 HD 
HETATM   12  N   UNL     1     -10.084   8.173  66.570  1.00  0.00    -0.255 NA 
BRANCH   6  13
HETATM   13  C   UNL     1     -10.534  13.515  68.153  1.00  0.00    -0.249 A  
HETATM   14  N   UNL     1     -11.556  15.496  68.616  1.00  0.00    -0.357 NA 
HETATM   15  C   UNL     1     -11.745  14.219  68.299  1.00  0.00    -0.342 A  
HETATM   16  C   UNL     1      -9.559  14.457  68.420  1.00  0.00    -0.219 A  
HETATM   17  N   UNL     1     -10.220  15.632  68.667  1.00  0.00    -0.208 NA 
BRANCH  17  18
HETATM   18  C   UNL     1      -9.621  16.941  68.930  1.00  0.00    -0.251 C  
HETATM   19  C   UNL     1      -8.189  17.052  68.389  1.00  0.00    -0.250 C  
HETATM   20  C   UNL     1      -8.151  17.269  66.875  1.00  0.00    -0.228 C  
HETATM   21  N   UNL     1      -8.970  18.412  66.468  1.00  0.00    -0.294 NA 
HETATM   22  C   UNL     1     -10.363  18.273  66.896  1.00  0.00    -0.385 C  
HETATM   23  H   UNL     1      -8.907  18.571  65.462  1.00  0.00     0.000 HD 
HETATM   24  C   UNL     1     -10.479  18.100  68.409  1.00  0.00    -0.308 C  
ENDBRANCH  17  18
ENDBRANCH   6  13
ENDBRANCH   3   4
ENDBRANCH   2   3
BRANCH   2  25
HETATM   25  C   UNL     1     -10.966   8.644  71.015  1.00  0.00    -0.314 A  
HETATM   26 CL   UNL     1     -12.192  11.098  71.443  1.00  0.00    -0.317 Cl 
HETATM   27  C   UNL     1     -11.096   7.236  70.916  1.00  0.00    -0.261 A  
HETATM   28 CL   UNL     1      -9.794   6.208  70.408  1.00  0.00    -0.204 Cl 
HETATM   29  F   UNL     1     -14.410   9.378  72.062  1.00  0.00    -0.321 F  
HETATM   30  C   UNL     1     -12.303   6.584  71.204  1.00  0.00    -0.196 A  
HETATM   31  C   UNL     1     -13.413   7.314  71.601  1.00  0.00    -0.428 A  
HETATM   32  C   UNL     1     -12.122   9.368  71.384  1.00  0.00    -0.363 A  
HETATM   33  C   UNL     1     -13.317   8.695  71.687  1.00  0.00    -0.350 A  
ENDBRANCH   2  25
TORSDOF 5
ENDMDL
MODEL       82
REMARK 921   NORMALIZED FREE ENERGY PREDICTED BY IDOCK:   -6.33 KCAL/MOL
REMARK 922        TOTAL FREE ENERGY PREDICTED BY IDOCK:   -8.85 KCAL/MOL
REMARK 923 INTER-LIGAND FREE ENERGY PREDICTED BY IDOCK:   -7.91 KCAL/MOL
REMARK 924 INTRA-LIGAND FREE ENERGY PREDICTED BY IDOCK:   -0.94 KCAL/MOL
REMARK 927      BINDING AFFINITY PREDICTED BY RF-SCORE:    0.00 PKD
ROOT
HETATM    1  C   UNL     1     -10.356   7.742  68.314  1.00  0.00    -0.239 C  
HETATM    2  C   UNL     1     -10.649   9.190  68.710  1.00  0.00    -0.181 C  
ENDROOT
BRANCH   2   3
HETATM    3  O   UNL     1     -11.190   9.152  70.031  1.00  0.00    -0.231 OA 
BRANCH   3   4
HETATM    4  C   UNL     1     -11.882  10.217  70.532  1.00  0.00    -0.321 A  
HETATM    5  C   UNL     1     -13.024  12.536  71.391  1.00  0.00    -0.251 A  
HETATM    6  C   UNL     1     -12.153  12.614  70.312  1.00  0.00    -0.372 A  
HETATM    7  H1  UNL     1     -13.684   9.188  73.222  1.00  0.00     0.000 HD 
HETATM    8  N   UNL     1     -13.337  11.394  72.047  1.00  0.00    -0.413 NA 
HETATM    9  C   UNL     1     -11.582  11.421  69.882  1.00  0.00    -0.402 A  
HETATM   10  C   UNL     1     -12.746  10.259  71.628  1.00  0.00    -0.456 A  
HETATM   11  H2  UNL     1     -12.169   8.771  72.752  1.00  0.00     0.000 HD 
HETATM   12  N   UNL     1     -13.053   9.157  72.421  1.00  0.00    -0.429 NA 
BRANCH   6  13
HETATM   13  C   UNL     1     -11.834  13.891  69.712  1.00  0.00    -0.390 A  
HETATM   14  N   UNL     1     -11.661  16.135  69.362  1.00  0.00    -0.300 NA 
HETATM   15  C   UNL     1     -12.076  15.190  70.200  1.00  0.00    -0.343 A  
HETATM   16  C   UNL     1     -11.216  14.097  68.494  1.00  0.00    -0.260 A  
HETATM   17  N   UNL     1     -11.157  15.454  68.318  1.00  0.00    -0.295 NA 
BRANCH  17  18
HETATM   18  C   UNL     1     -10.653  16.170  67.145  1.00  0.00    -0.294 C  
HETATM   19  C   UNL     1     -10.136  17.573  67.491  1.00  0.00    -0.326 C  
HETATM   20  C   UNL     1      -8.754  17.542  68.144  1.00  0.00    -0.262 C  
HETATM   21  N   UNL     1      -7.786  16.796  67.338  1.00  0.00    -0.162 NA 
HETATM   22  C   UNL     1      -8.224  15.423  67.082  1.00  0.00    -0.219 C  
HETATM   23  H   UNL     1      -6.859  16.814  67.763  1.00  0.00     0.000 HD 
HETATM   24  C   UNL     1      -9.582  15.379  66.385  1.00  0.00    -0.319 C  
ENDBRANCH  17  18
ENDBRANCH   6  13
ENDBRANCH   3   4
ENDBRANCH   2   3
BRANCH   2  25
HETATM   25  C   UNL     1      -9.382  10.042  68.610  1.00  0.00    -0.156 A  
HETATM   26 CL   UNL     1      -8.321   8.973  70.942  1.00  0.00    -0.219 Cl 
HETATM   27  C   UNL     1      -9.203  10.883  67.482  1.00  0.00    -0.147 A  
HETATM   28 CL   UNL     1     -10.355  10.973  66.188  1.00  0.00    -0.297 Cl 
HETATM   29  F   UNL     1      -6.232  10.846  70.320  1.00  0.00    -0.096 F  
HETATM   30  C   UNL     1      -8.063  11.684  67.332  1.00  0.00    -0.153 A  
HETATM   31  C   UNL     1      -7.070  11.673  68.301  1.00  0.00    -0.078 A  
HETATM   32  C   UNL     1      -8.339  10.021  69.562  1.00  0.00    -0.172 A  
HETATM   33  C   UNL     1      -7.213  10.845  69.404  1.00  0.00    -0.126 A  
ENDBRANCH   2  25
TORSDOF 5
ENDMDL
MODEL       83
REMARK 921   NORMALIZED FREE ENERGY PREDICTED BY IDOCK:   -6.30 KCAL/MOL
REMARK 922        TOTAL FREE ENERGY PREDICTED BY IDOCK:   -8.81 KCAL/MOL
REMARK 923 INTER-LIGAND FREE ENERGY PREDICTED BY IDOCK:   -7.94 KCAL/MOL
REMARK 924 INTRA-LIGAND FREE ENERGY PREDICTED BY IDOCK:   -0.87 KCAL/MOL
REMARK 927      BINDING AFFINITY PREDICTED BY RF-SCORE:    0.00 PKD
ROOT
HETATM    1  C   UNL     1     -13.063   7.131  71.729  1.00  0.00    -0.363 C  
HETATM    2  C   UNL     1     -11.849   7.455  70.857  1.00  0.00    -0.290 C  
ENDROOT
BRANCH   2   3
HETATM    3  O   UNL     1     -11.089   8.439  71.561  1.00  0.00    -0.242 OA 
BRANCH   3   4
HETATM    4  C   UNL     1     -10.045   9.077  70.957  1.00  0.00    -0.282 A  
HETATM    5  C   UNL     1      -8.150  10.350  69.469  1.00  0.00    -0.136 A  
HETATM    6  C   UNL     1      -9.464  10.406  69.017  1.00  0.00    -0.205 A  
HETATM    7  H1  UNL     1      -7.183   8.327  72.627  1.00  0.00     0.000 HD 
HETATM    8  N   UNL     1      -7.749   9.703  70.588  1.00  0.00    -0.285 NA 
HETATM    9  C   UNL     1     -10.419   9.756  69.790  1.00  0.00    -0.278 A  
HETATM   10  C   UNL     1      -8.692   9.057  71.300  1.00  0.00    -0.171 A  
HETATM   11  H2  UNL     1      -8.466   7.373  72.262  1.00  0.00     0.000 HD 
HETATM   12  N   UNL     1      -8.172   8.342  72.376  1.00  0.00    -0.256 NA 
BRANCH   6  13
HETATM   13  C   UNL     1      -9.787  11.074  67.775  1.00  0.00    -0.190 A  
HETATM   14  N   UNL     1      -9.816  11.654  65.574  1.00  0.00    -0.229 NA 
HETATM   15  C   UNL     1      -9.308  10.819  66.475  1.00  0.00    -0.168 A  
HETATM   16  C   UNL     1     -10.654  12.137  67.615  1.00  0.00    -0.210 A  
HETATM   17  N   UNL     1     -10.619  12.464  66.285  1.00  0.00    -0.245 NA 
BRANCH  17  18
HETATM   18  C   UNL     1     -11.314  13.573  65.631  1.00  0.00    -0.298 C  
HETATM   19  C   UNL     1     -12.233  14.339  66.592  1.00  0.00    -0.411 C  
HETATM   20  C   UNL     1     -11.460  15.284  67.513  1.00  0.00    -0.265 C  
HETATM   21  N   UNL     1     -10.594  16.192  66.759  1.00  0.00    -0.302 NA 
HETATM   22  C   UNL     1      -9.645  15.471  65.908  1.00  0.00    -0.348 C  
HETATM   23  H   UNL     1     -10.113  16.844  67.379  1.00  0.00     0.000 HD 
HETATM   24  C   UNL     1     -10.354  14.540  64.927  1.00  0.00    -0.401 C  
ENDBRANCH  17  18
ENDBRANCH   6  13
ENDBRANCH   3   4
ENDBRANCH   2   3
BRANCH   2  25
HETATM   25  C   UNL     1     -11.048   6.186  70.558  1.00  0.00    -0.405 A  
HETATM   26 CL   UNL     1     -11.039   6.679  67.826  1.00  0.00    -0.357 Cl 
HETATM   27  C   UNL     1     -10.597   5.384  71.637  1.00  0.00    -0.218 A  
HETATM   28 CL   UNL     1     -10.896   5.791  73.296  1.00  0.00    -0.295 Cl 
HETATM   29  F   UNL     1      -9.632   4.173  67.830  1.00  0.00    -0.180 F  
HETATM   30  C   UNL     1      -9.855   4.213  71.427  1.00  0.00    -0.254 A  
HETATM   31  C   UNL     1      -9.544   3.806  70.138  1.00  0.00    -0.258 A  
HETATM   32  C   UNL     1     -10.684   5.770  69.257  1.00  0.00    -0.316 A  
HETATM   33  C   UNL     1      -9.957   4.584  69.066  1.00  0.00    -0.081 A  
ENDBRANCH   2  25
TORSDOF 5
ENDMDL
MODEL       84
REMARK 921   NORMALIZED FREE ENERGY PREDICTED BY IDOCK:   -6.28 KCAL/MOL
REMARK 922        TOTAL FREE ENERGY PREDICTED BY IDOCK:   -8.79 KCAL/MOL
REMARK 923 INTER-LIGAND FREE ENERGY PREDICTED BY IDOCK:   -8.38 KCAL/MOL
REMARK 924 INTRA-LIGAND FREE ENERGY PREDICTED BY IDOCK:   -0.41 KCAL/MOL
REMARK 927      BINDING AFFINITY PREDICTED BY RF-SCORE:    0.00 PKD
ROOT
HETATM    1  C   UNL     1     -11.341   6.336  68.738  1.00  0.00    -0.224 C  
HETATM    2  C   UNL     1      -9.904   6.061  69.184  1.00  0.00    -0.148 C  
ENDROOT
BRANCH   2   3
HETATM    3  O   UNL     1      -9.358   7.312  69.605  1.00  0.00    -0.153 OA 
BRANCH   3   4
HETATM    4  C   UNL     1      -9.751   8.478  69.015  1.00  0.00    -0.170 A  
HETATM    5  C   UNL     1     -10.772  10.824  68.078  1.00  0.00    -0.228 A  
HETATM    6  C   UNL     1     -11.023  10.502  69.407  1.00  0.00    -0.297 A  
HETATM    7  H1  UNL     1      -8.841   8.413  65.742  1.00  0.00     0.000 HD 
HETATM    8  N   UNL     1     -10.065  10.052  67.220  1.00  0.00    -0.197 NA 
HETATM    9  C   UNL     1     -10.491   9.304  69.871  1.00  0.00    -0.247 A  
HETATM   10  C   UNL     1      -9.588   8.884  67.689  1.00  0.00    -0.148 A  
HETATM   11  H2  UNL     1      -9.431   7.213  66.691  1.00  0.00     0.000 HD 
HETATM   12  N   UNL     1      -8.960   8.117  66.711  1.00  0.00    -0.139 NA 
BRANCH   6  13
HETATM   13  C   UNL     1     -11.841  11.364  70.233  1.00  0.00    -0.438 A  
HETATM   14  N   UNL     1     -13.246  12.097  71.867  1.00  0.00    -0.451 NA 
HETATM   15  C   UNL     1     -12.600  11.045  71.376  1.00  0.00    -0.393 A  
HETATM   16  C   UNL     1     -12.053  12.716  70.051  1.00  0.00    -0.269 A  
HETATM   17  N   UNL     1     -12.920  13.105  71.039  1.00  0.00    -0.194 NA 
BRANCH  17  18
HETATM   18  C   UNL     1     -13.503  14.433  71.227  1.00  0.00    -0.335 C  
HETATM   19  C   UNL     1     -13.784  14.748  72.703  1.00  0.00    -0.547 C  
HETATM   20  C   UNL     1     -12.517  15.126  73.471  1.00  0.00    -0.540 C  
HETATM   21  N   UNL     1     -11.789  16.215  72.819  1.00  0.00    -0.499 NA 
HETATM   22  C   UNL     1     -11.430  15.889  71.437  1.00  0.00    -0.417 C  
HETATM   23  H   UNL     1     -10.967  16.486  73.359  1.00  0.00     0.000 HD 
HETATM   24  C   UNL     1     -12.658  15.545  70.596  1.00  0.00    -0.493 C  
ENDBRANCH  17  18
ENDBRANCH   6  13
ENDBRANCH   3   4
ENDBRANCH   2   3
BRANCH   2  25
HETATM   25  C   UNL     1      -9.876   4.999  70.286  1.00  0.00    -0.304 A  
HETATM   26 CL   UNL     1     -11.571   6.466  71.923  1.00  0.00    -0.350 Cl 
HETATM   27  C   UNL     1      -9.164   3.793  70.064  1.00  0.00    -0.150 A  
HETATM   28 CL   UNL     1      -8.336   3.453  68.578  1.00  0.00    -0.089 Cl 
HETATM   29  F   UNL     1     -11.093   4.231  73.666  1.00  0.00    -0.275 F  
HETATM   30  C   UNL     1      -9.106   2.781  71.033  1.00  0.00    -0.181 A  
HETATM   31  C   UNL     1      -9.750   2.943  72.250  1.00  0.00    -0.225 A  
HETATM   32  C   UNL     1     -10.556   5.122  71.518  1.00  0.00    -0.147 A  
HETATM   33  C   UNL     1     -10.469   4.106  72.484  1.00  0.00    -0.133 A  
ENDBRANCH   2  25
TORSDOF 5
ENDMDL
MODEL       85
REMARK 921   NORMALIZED FREE ENERGY PREDICTED BY IDOCK:   -6.28 KCAL/MOL
REMARK 922        TOTAL FREE ENERGY PREDICTED BY IDOCK:   -8.79 KCAL/MOL
REMARK 923 INTER-LIGAND FREE ENERGY PREDICTED BY IDOCK:   -7.84 KCAL/MOL
REMARK 924 INTRA-LIGAND FREE ENERGY PREDICTED BY IDOCK:   -0.95 KCAL/MOL
REMARK 927      BINDING AFFINITY PREDICTED BY RF-SCORE:    0.00 PKD
ROOT
HETATM    1  C   UNL     1     -12.553  12.043  63.544  1.00  0.00    -0.625 C  
HETATM    2  C   UNL     1     -11.301  12.513  64.287  1.00  0.00    -0.361 C  
ENDROOT
BRANCH   2   3
HETATM    3  O   UNL     1     -11.730  13.489  65.237  1.00  0.00    -0.307 OA 
BRANCH   3   4
HETATM    4  C   UNL     1     -11.108  14.701  65.322  1.00  0.00    -0.360 A  
HETATM    5  C   UNL     1      -9.751  17.016  65.792  1.00  0.00    -0.050 A  
HETATM    6  C   UNL     1      -9.349  15.885  66.493  1.00  0.00    -0.306 A  
HETATM    7  H1  UNL     1     -12.785  16.934  63.387  1.00  0.00     0.000 HD 
HETATM    8  N   UNL     1     -10.770  17.047  64.902  1.00  0.00    -0.709 NA 
HETATM    9  C   UNL     1     -10.049  14.711  66.238  1.00  0.00    -0.307 A  
HETATM   10  C   UNL     1     -11.448  15.903  64.698  1.00  0.00    -0.263 A  
HETATM   11  H2  UNL     1     -13.362  15.737  64.348  1.00  0.00     0.000 HD 
HETATM   12  N   UNL     1     -12.536  16.056  63.842  1.00  0.00    -0.612 NA 
BRANCH   6  13
HETATM   13  C   UNL     1      -8.284  15.962  67.470  1.00  0.00    -0.177 A  
HETATM   14  N   UNL     1      -6.890  16.739  69.094  1.00  0.00    -0.218 NA 
HETATM   15  C   UNL     1      -7.954  17.015  68.346  1.00  0.00    -0.239 A  
HETATM   16  C   UNL     1      -7.343  14.988  67.739  1.00  0.00    -0.166 A  
HETATM   17  N   UNL     1      -6.517  15.509  68.700  1.00  0.00    -0.100 NA 
BRANCH  17  18
HETATM   18  C   UNL     1      -5.321  14.885  69.266  1.00  0.00    -0.090 C  
HETATM   19  C   UNL     1      -5.138  15.208  70.755  1.00  0.00    -0.137 C  
HETATM   20  C   UNL     1      -6.067  14.387  71.650  1.00  0.00     0.167 C  
HETATM   21  N   UNL     1      -5.943  12.951  71.393  1.00  0.00    -0.485 NA 
HETATM   22  C   UNL     1      -6.210  12.617  69.993  1.00  0.00    -0.060 C  
HETATM   23  H   UNL     1      -6.538  12.411  72.021  1.00  0.00     0.000 HD 
HETATM   24  C   UNL     1      -5.282  13.369  69.041  1.00  0.00    -0.069 C  
ENDBRANCH  17  18
ENDBRANCH   6  13
ENDBRANCH   3   4
ENDBRANCH   2   3
BRANCH   2  25
HETATM   25  C   UNL     1     -10.583  11.328  64.935  1.00  0.00    -0.364 A  
HETATM   26 CL   UNL     1     -11.748  11.806  67.409  1.00  0.00    -0.348 Cl 
HETATM   27  C   UNL     1      -9.767  10.491  64.130  1.00  0.00    -0.327 A  
HETATM   28 CL   UNL     1      -9.565  10.738  62.426  1.00  0.00    -0.216 Cl 
HETATM   29  F   UNL     1     -10.100   9.561  68.120  1.00  0.00    -0.172 F  
HETATM   30  C   UNL     1      -9.088   9.388  64.666  1.00  0.00    -0.228 A  
HETATM   31  C   UNL     1      -9.197   9.088  66.016  1.00  0.00    -0.284 A  
HETATM   32  C   UNL     1     -10.708  10.978  66.298  1.00  0.00    -0.212 A  
HETATM   33  C   UNL     1     -10.003   9.880  66.820  1.00  0.00    -0.214 A  
ENDBRANCH   2  25
TORSDOF 5
ENDMDL
MODEL       86
REMARK 921   NORMALIZED FREE ENERGY PREDICTED BY IDOCK:   -6.28 KCAL/MOL
REMARK 922        TOTAL FREE ENERGY PREDICTED BY IDOCK:   -8.79 KCAL/MOL
REMARK 923 INTER-LIGAND FREE ENERGY PREDICTED BY IDOCK:   -8.04 KCAL/MOL
REMARK 924 INTRA-LIGAND FREE ENERGY PREDICTED BY IDOCK:   -0.74 KCAL/MOL
REMARK 927      BINDING AFFINITY PREDICTED BY RF-SCORE:    0.00 PKD
ROOT
HETATM    1  C   UNL     1     -11.827  13.201  68.838  1.00  0.00    -0.361 C  
HETATM    2  C   UNL     1     -10.860  12.997  67.671  1.00  0.00    -0.239 C  
ENDROOT
BRANCH   2   3
HETATM    3  O   UNL     1     -11.461  12.033  66.805  1.00  0.00    -0.337 OA 
BRANCH   3   4
HETATM    4  C   UNL     1     -10.785  10.904  66.443  1.00  0.00    -0.194 A  
HETATM    5  C   UNL     1      -9.386   8.599  66.052  1.00  0.00    -0.218 A  
HETATM    6  C   UNL     1      -9.968   8.790  67.299  1.00  0.00    -0.281 A  
HETATM    7  H1  UNL     1      -9.595  11.301  63.286  1.00  0.00     0.000 HD 
HETATM    8  N   UNL     1      -9.460   9.478  65.025  1.00  0.00    -0.253 NA 
HETATM    9  C   UNL     1     -10.682   9.969  67.481  1.00  0.00    -0.339 A  
HETATM   10  C   UNL     1     -10.133  10.624  65.240  1.00  0.00    -0.297 A  
HETATM   11  H2  UNL     1      -9.688  12.382  64.516  1.00  0.00     0.000 HD 
HETATM   12  N   UNL     1     -10.072  11.505  64.164  1.00  0.00    -0.282 NA 
BRANCH   6  13
HETATM   13  C   UNL     1      -9.785   7.818  68.355  1.00  0.00    -0.167 A  
HETATM   14  N   UNL     1      -9.820   5.870  69.533  1.00  0.00    -0.161 NA 
HETATM   15  C   UNL     1     -10.120   6.450  68.375  1.00  0.00    -0.157 A  
HETATM   16  C   UNL     1      -9.233   8.051  69.600  1.00  0.00    -0.152 A  
HETATM   17  N   UNL     1      -9.299   6.861  70.277  1.00  0.00    -0.162 NA 
BRANCH  17  18
HETATM   18  C   UNL     1      -8.903   6.613  71.663  1.00  0.00    -0.134 C  
HETATM   19  C   UNL     1      -9.278   7.771  72.598  1.00  0.00    -0.237 C  
HETATM   20  C   UNL     1     -10.765   7.775  72.956  1.00  0.00    -0.384 C  
HETATM   21  N   UNL     1     -11.199   6.486  73.497  1.00  0.00    -0.424 NA 
HETATM   22  C   UNL     1     -10.934   5.382  72.573  1.00  0.00    -0.256 C  
HETATM   23  H   UNL     1     -12.182   6.512  73.769  1.00  0.00     0.000 HD 
HETATM   24  C   UNL     1      -9.454   5.289  72.207  1.00  0.00    -0.164 C  
ENDBRANCH  17  18
ENDBRANCH   6  13
ENDBRANCH   3   4
ENDBRANCH   2   3
BRANCH   2  25
HETATM   25  C   UNL     1     -10.572  14.327  66.972  1.00  0.00    -0.280 A  
HETATM   26 CL   UNL     1     -12.532  13.893  65.055  1.00  0.00    -0.446 Cl 
HETATM   27  C   UNL     1      -9.606  15.204  67.528  1.00  0.00    -0.207 A  
HETATM   28 CL   UNL     1      -8.746  14.845  68.990  1.00  0.00    -0.193 Cl 
HETATM   29  F   UNL     1     -11.527  16.411  64.101  1.00  0.00    -0.534 F  
HETATM   30  C   UNL     1      -9.302  16.438  66.936  1.00  0.00    -0.244 A  
HETATM   31  C   UNL     1      -9.947  16.832  65.773  1.00  0.00    -0.242 A  
HETATM   32  C   UNL     1     -11.242  14.769  65.809  1.00  0.00    -0.337 A  
HETATM   33  C   UNL     1     -10.910  16.000  65.219  1.00  0.00    -0.362 A  
ENDBRANCH   2  25
TORSDOF 5
ENDMDL
MODEL       87
REMARK 921   NORMALIZED FREE ENERGY PREDICTED BY IDOCK:   -6.28 KCAL/MOL
REMARK 922        TOTAL FREE ENERGY PREDICTED BY IDOCK:   -8.79 KCAL/MOL
REMARK 923 INTER-LIGAND FREE ENERGY PREDICTED BY IDOCK:   -7.89 KCAL/MOL
REMARK 924 INTRA-LIGAND FREE ENERGY PREDICTED BY IDOCK:   -0.90 KCAL/MOL
REMARK 927      BINDING AFFINITY PREDICTED BY RF-SCORE:    0.00 PKD
ROOT
HETATM    1  C   UNL     1     -12.203  13.590  67.022  1.00  0.00    -0.351 C  
HETATM    2  C   UNL     1     -11.438  13.078  68.242  1.00  0.00    -0.312 C  
ENDROOT
BRANCH   2   3
HETATM    3  O   UNL     1     -10.076  12.924  67.838  1.00  0.00    -0.219 OA 
BRANCH   3   4
HETATM    4  C   UNL     1      -9.284  11.968  68.406  1.00  0.00    -0.160 A  
HETATM    5  C   UNL     1      -7.964   9.994  69.741  1.00  0.00    -0.180 A  
HETATM    6  C   UNL     1      -9.354   9.980  69.787  1.00  0.00    -0.233 A  
HETATM    7  H1  UNL     1      -6.029  12.818  67.931  1.00  0.00     0.000 HD 
HETATM    8  N   UNL     1      -7.226  10.922  69.089  1.00  0.00    -0.107 NA 
HETATM    9  C   UNL     1     -10.012  10.992  69.096  1.00  0.00    -0.142 A  
HETATM   10  C   UNL     1      -7.890  11.906  68.454  1.00  0.00    -0.141 A  
HETATM   11  H2  UNL     1      -7.320  13.766  68.285  1.00  0.00     0.000 HD 
HETATM   12  N   UNL     1      -7.047  12.863  67.895  1.00  0.00    -0.110 NA 
BRANCH   6  13
HETATM   13  C   UNL     1     -10.055   8.979  70.561  1.00  0.00    -0.263 A  
HETATM   14  N   UNL     1     -11.323   7.984  72.169  1.00  0.00    -0.302 NA 
HETATM   15  C   UNL     1     -10.850   9.139  71.713  1.00  0.00    -0.345 A  
HETATM   16  C   UNL     1     -10.078   7.620  70.320  1.00  0.00    -0.198 A  
HETATM   17  N   UNL     1     -10.829   7.064  71.323  1.00  0.00    -0.232 NA 
BRANCH  17  18
HETATM   18  C   UNL     1     -11.087   5.642  71.546  1.00  0.00    -0.165 C  
HETATM   19  C   UNL     1      -9.975   4.747  70.981  1.00  0.00    -0.279 C  
HETATM   20  C   UNL     1      -8.733   4.726  71.873  1.00  0.00    -0.123 C  
HETATM   21  N   UNL     1      -9.059   4.370  73.254  1.00  0.00    -0.114 NA 
HETATM   22  C   UNL     1     -10.050   5.276  73.838  1.00  0.00    -0.210 C  
HETATM   23  H   UNL     1      -8.219   4.321  73.831  1.00  0.00     0.000 HD 
HETATM   24  C   UNL     1     -11.340   5.311  73.022  1.00  0.00    -0.376 C  
ENDBRANCH  17  18
ENDBRANCH   6  13
ENDBRANCH   3   4
ENDBRANCH   2   3
BRANCH   2  25
HETATM   25  C   UNL     1     -11.603  14.036  69.423  1.00  0.00    -0.349 A  
HETATM   26 CL   UNL     1     -12.751  12.078  71.021  1.00  0.00    -0.396 Cl 
HETATM   27  C   UNL     1     -11.106  15.360  69.313  1.00  0.00    -0.280 A  
HETATM   28 CL   UNL     1     -10.291  15.939  67.896  1.00  0.00    -0.262 Cl 
HETATM   29  F   UNL     1     -12.903  14.289  72.850  1.00  0.00    -0.456 F  
HETATM   30  C   UNL     1     -11.224  16.283  70.362  1.00  0.00    -0.336 A  
HETATM   31  C   UNL     1     -11.842  15.915  71.548  1.00  0.00    -0.536 A  
HETATM   32  C   UNL     1     -12.194  13.677  70.656  1.00  0.00    -0.360 A  
HETATM   33  C   UNL     1     -12.320  14.621  71.688  1.00  0.00    -0.351 A  
ENDBRANCH   2  25
TORSDOF 5
ENDMDL
MODEL       88
REMARK 921   NORMALIZED FREE ENERGY PREDICTED BY IDOCK:   -6.28 KCAL/MOL
REMARK 922        TOTAL FREE ENERGY PREDICTED BY IDOCK:   -8.78 KCAL/MOL
REMARK 923 INTER-LIGAND FREE ENERGY PREDICTED BY IDOCK:   -8.64 KCAL/MOL
REMARK 924 INTRA-LIGAND FREE ENERGY PREDICTED BY IDOCK:   -0.14 KCAL/MOL
REMARK 927      BINDING AFFINITY PREDICTED BY RF-SCORE:    0.00 PKD
ROOT
HETATM    1  C   UNL     1     -10.771  10.543  69.644  1.00  0.00    -0.302 C  
HETATM    2  C   UNL     1     -11.306  11.885  69.143  1.00  0.00    -0.279 C  
ENDROOT
BRANCH   2   3
HETATM    3  O   UNL     1     -12.107  11.604  67.993  1.00  0.00    -0.597 OA 
BRANCH   3   4
HETATM    4  C   UNL     1     -11.613  11.798  66.735  1.00  0.00    -0.210 A  
HETATM    5  C   UNL     1     -10.389  11.960  64.307  1.00  0.00    -0.321 A  
HETATM    6  C   UNL     1     -10.157  10.819  65.066  1.00  0.00    -0.377 A  
HETATM    7  H1  UNL     1     -12.554  14.876  65.649  1.00  0.00     0.000 HD 
HETATM    8  N   UNL     1     -11.172  12.994  64.693  1.00  0.00    -0.311 NA 
HETATM    9  C   UNL     1     -10.793  10.749  66.301  1.00  0.00    -0.143 A  
HETATM   10  C   UNL     1     -11.750  12.913  65.906  1.00  0.00    -0.399 A  
HETATM   11  H2  UNL     1     -12.069  14.392  67.139  1.00  0.00     0.000 HD 
HETATM   12  N   UNL     1     -12.455  14.062  66.255  1.00  0.00    -0.454 NA 
BRANCH   6  13
HETATM   13  C   UNL     1      -9.256   9.790  64.593  1.00  0.00    -0.312 A  
HETATM   14  N   UNL     1      -7.981   8.492  63.224  1.00  0.00    -0.155 NA 
HETATM   15  C   UNL     1      -8.787   9.547  63.287  1.00  0.00    -0.215 A  
HETATM   16  C   UNL     1      -8.664   8.802  65.356  1.00  0.00    -0.183 A  
HETATM   17  N   UNL     1      -7.930   8.036  64.488  1.00  0.00    -0.147 NA 
BRANCH  17  18
HETATM   18  C   UNL     1      -7.176   6.823  64.805  1.00  0.00    -0.082 C  
HETATM   19  C   UNL     1      -7.712   6.106  66.051  1.00  0.00    -0.092 C  
HETATM   20  C   UNL     1      -8.988   5.313  65.765  1.00  0.00    -0.154 C  
HETATM   21  N   UNL     1      -8.816   4.387  64.645  1.00  0.00    -0.141 NA 
HETATM   22  C   UNL     1      -8.396   5.073  63.422  1.00  0.00    -0.119 C  
HETATM   23  H   UNL     1      -9.659   3.836  64.488  1.00  0.00     0.000 HD 
HETATM   24  C   UNL     1      -7.096   5.850  63.622  1.00  0.00    -0.052 C  
ENDBRANCH  17  18
ENDBRANCH   6  13
ENDBRANCH   3   4
ENDBRANCH   2   3
BRANCH   2  25
HETATM   25  C   UNL     1     -12.084  12.601  70.248  1.00  0.00    -0.372 A  
HETATM   26 CL   UNL     1     -11.212  15.104  69.420  1.00  0.00    -0.271 Cl 
HETATM   27  C   UNL     1     -12.911  11.841  71.114  1.00  0.00    -0.267 A  
HETATM   28 CL   UNL     1     -13.100  10.124  70.960  1.00  0.00    -0.467 Cl 
HETATM   29  F   UNL     1     -12.764  15.906  71.702  1.00  0.00    -0.432 F  
HETATM   30  C   UNL     1     -13.651  12.441  72.143  1.00  0.00    -0.405 A  
HETATM   31  C   UNL     1     -13.586  13.813  72.341  1.00  0.00    -0.690 A  
HETATM   32  C   UNL     1     -12.066  14.000  70.447  1.00  0.00    -0.356 A  
HETATM   33  C   UNL     1     -12.799  14.580  71.495  1.00  0.00    -0.336 A  
ENDBRANCH   2  25
TORSDOF 5
ENDMDL
MODEL       89
REMARK 921   NORMALIZED FREE ENERGY PREDICTED BY IDOCK:   -6.27 KCAL/MOL
REMARK 922        TOTAL FREE ENERGY PREDICTED BY IDOCK:   -8.78 KCAL/MOL
REMARK 923 INTER-LIGAND FREE ENERGY PREDICTED BY IDOCK:   -7.96 KCAL/MOL
REMARK 924 INTRA-LIGAND FREE ENERGY PREDICTED BY IDOCK:   -0.82 KCAL/MOL
REMARK 927      BINDING AFFINITY PREDICTED BY RF-SCORE:    0.00 PKD
ROOT
HETATM    1  C   UNL     1      -9.569   8.732  66.101  1.00  0.00    -0.323 C  
HETATM    2  C   UNL     1      -8.915   9.715  67.072  1.00  0.00    -0.134 C  
ENDROOT
BRANCH   2   3
HETATM    3  O   UNL     1      -8.954  10.999  66.445  1.00  0.00    -0.169 OA 
BRANCH   3   4
HETATM    4  C   UNL     1      -8.195  12.029  66.919  1.00  0.00    -0.146 A  
HETATM    5  C   UNL     1      -6.945  14.287  67.794  1.00  0.00    -0.177 A  
HETATM    6  C   UNL     1      -8.334  14.305  67.738  1.00  0.00    -0.174 A  
HETATM    7  H1  UNL     1      -4.913  11.215  66.598  1.00  0.00     0.000 HD 
HETATM    8  N   UNL     1      -6.175  13.232  67.438  1.00  0.00    -0.312 NA 
HETATM    9  C   UNL     1      -8.957  13.144  67.294  1.00  0.00    -0.216 A  
HETATM   10  C   UNL     1      -6.804  12.132  66.983  1.00  0.00    -0.067 A  
HETATM   11  H2  UNL     1      -6.169  10.929  65.583  1.00  0.00     0.000 HD 
HETATM   12  N   UNL     1      -5.929  11.140  66.552  1.00  0.00    -0.130 NA 
BRANCH   6  13
HETATM   13  C   UNL     1      -9.070  15.501  68.084  1.00  0.00    -0.184 A  
HETATM   14  N   UNL     1     -10.749  16.900  68.722  1.00  0.00    -0.341 NA 
HETATM   15  C   UNL     1     -10.406  15.634  68.513  1.00  0.00    -0.219 A  
HETATM   16  C   UNL     1      -8.594  16.797  68.054  1.00  0.00    -0.210 A  
HETATM   17  N   UNL     1      -9.642  17.600  68.420  1.00  0.00    -0.297 NA 
BRANCH  17  18
HETATM   18  C   UNL     1      -9.657  19.062  68.470  1.00  0.00    -0.386 C  
HETATM   19  C   UNL     1      -8.287  19.675  68.149  1.00  0.00    -0.347 C  
HETATM   20  C   UNL     1      -7.978  19.667  66.652  1.00  0.00    -0.300 C  
HETATM   21  N   UNL     1      -9.044  20.297  65.872  1.00  0.00    -0.565 NA 
HETATM   22  C   UNL     1     -10.343  19.659  66.095  1.00  0.00    -0.530 C  
HETATM   23  H   UNL     1      -8.811  20.321  64.879  1.00  0.00     0.000 HD 
HETATM   24  C   UNL     1     -10.738  19.674  67.570  1.00  0.00    -0.537 C  
ENDBRANCH  17  18
ENDBRANCH   6  13
ENDBRANCH   3   4
ENDBRANCH   2   3
BRANCH   2  25
HETATM   25  C   UNL     1      -9.630   9.692  68.425  1.00  0.00    -0.154 A  
HETATM   26 CL   UNL     1     -11.779  11.162  67.460  1.00  0.00    -0.221 Cl 
HETATM   27  C   UNL     1      -9.056   8.964  69.497  1.00  0.00    -0.146 A  
HETATM   28 CL   UNL     1      -7.578   8.070  69.337  1.00  0.00    -0.100 Cl 
HETATM   29  F   UNL     1     -12.617  10.892  70.196  1.00  0.00    -0.360 F  
HETATM   30  C   UNL     1      -9.666   8.902  70.758  1.00  0.00    -0.281 A  
HETATM   31  C   UNL     1     -10.862   9.565  70.988  1.00  0.00    -0.423 A  
HETATM   32  C   UNL     1     -10.868  10.327  68.674  1.00  0.00    -0.234 A  
HETATM   33  C   UNL     1     -11.454  10.269  69.950  1.00  0.00    -0.273 A  
ENDBRANCH   2  25
TORSDOF 5
ENDMDL
MODEL       90
REMARK 921   NORMALIZED FREE ENERGY PREDICTED BY IDOCK:   -6.27 KCAL/MOL
REMARK 922        TOTAL FREE ENERGY PREDICTED BY IDOCK:   -8.78 KCAL/MOL
REMARK 923 INTER-LIGAND FREE ENERGY PREDICTED BY IDOCK:   -7.84 KCAL/MOL
REMARK 924 INTRA-LIGAND FREE ENERGY PREDICTED BY IDOCK:   -0.94 KCAL/MOL
REMARK 927      BINDING AFFINITY PREDICTED BY RF-SCORE:    0.00 PKD
ROOT
HETATM    1  C   UNL     1      -9.733   4.266  69.743  1.00  0.00    -0.290 C  
HETATM    2  C   UNL     1      -9.319   5.704  69.424  1.00  0.00    -0.125 C  
ENDROOT
BRANCH   2   3
HETATM    3  O   UNL     1     -10.263   6.201  68.474  1.00  0.00    -0.155 OA 
BRANCH   3   4
HETATM    4  C   UNL     1      -9.903   7.156  67.568  1.00  0.00    -0.151 A  
HETATM    5  C   UNL     1      -9.429   9.253  65.894  1.00  0.00    -0.259 A  
HETATM    6  C   UNL     1     -10.089   9.523  67.087  1.00  0.00    -0.290 A  
HETATM    7  H1  UNL     1      -8.445   5.642  64.899  1.00  0.00     0.000 HD 
HETATM    8  N   UNL     1      -9.014   8.025  65.505  1.00  0.00    -0.065 NA 
HETATM    9  C   UNL     1     -10.319   8.443  67.932  1.00  0.00    -0.279 A  
HETATM   10  C   UNL     1      -9.277   6.993  66.330  1.00  0.00    -0.149 A  
HETATM   11  H2  UNL     1      -9.733   5.171  65.797  1.00  0.00     0.000 HD 
HETATM   12  N   UNL     1      -8.901   5.761  65.803  1.00  0.00    -0.151 NA 
BRANCH   6  13
HETATM   13  C   UNL     1     -10.546  10.862  67.390  1.00  0.00    -0.285 A  
HETATM   14  N   UNL     1     -11.000  12.792  68.509  1.00  0.00    -0.247 NA 
HETATM   15  C   UNL     1     -10.444  11.588  68.593  1.00  0.00    -0.202 A  
HETATM   16  C   UNL     1     -11.205  11.719  66.531  1.00  0.00    -0.321 A  
HETATM   17  N   UNL     1     -11.477  12.852  67.253  1.00  0.00    -0.316 NA 
BRANCH  17  18
HETATM   18  C   UNL     1     -12.225  14.026  66.803  1.00  0.00    -0.404 C  
HETATM   19  C   UNL     1     -11.364  15.296  66.774  1.00  0.00    -0.183 C  
HETATM   20  C   UNL     1     -10.435  15.344  65.560  1.00  0.00    -0.380 C  
HETATM   21  N   UNL     1     -11.167  15.162  64.305  1.00  0.00    -0.664 NA 
HETATM   22  C   UNL     1     -11.918  13.906  64.282  1.00  0.00    -0.444 C  
HETATM   23  H   UNL     1     -10.545  15.235  63.501  1.00  0.00     0.000 HD 
HETATM   24  C   UNL     1     -12.903  13.809  65.445  1.00  0.00    -0.455 C  
ENDBRANCH  17  18
ENDBRANCH   6  13
ENDBRANCH   3   4
ENDBRANCH   2   3
BRANCH   2  25
HETATM   25  C   UNL     1      -9.262   6.544  70.702  1.00  0.00    -0.163 A  
HETATM   26 CL   UNL     1     -12.027   6.583  70.955  1.00  0.00    -0.407 Cl 
HETATM   27  C   UNL     1      -7.999   6.876  71.254  1.00  0.00    -0.108 A  
HETATM   28 CL   UNL     1      -6.503   6.349  70.553  1.00  0.00    -0.043 Cl 
HETATM   29  F   UNL     1     -11.349   8.213  73.223  1.00  0.00    -0.390 F  
HETATM   30  C   UNL     1      -7.882   7.639  72.424  1.00  0.00    -0.120 A  
HETATM   31  C   UNL     1      -9.019   8.095  73.076  1.00  0.00    -0.335 A  
HETATM   32  C   UNL     1     -10.404   6.988  71.406  1.00  0.00    -0.197 A  
HETATM   33  C   UNL     1     -10.266   7.768  72.566  1.00  0.00    -0.260 A  
ENDBRANCH   2  25
TORSDOF 5
ENDMDL
MODEL       91
REMARK 921   NORMALIZED FREE ENERGY PREDICTED BY IDOCK:   -6.25 KCAL/MOL
REMARK 922        TOTAL FREE ENERGY PREDICTED BY IDOCK:   -8.74 KCAL/MOL
REMARK 923 INTER-LIGAND FREE ENERGY PREDICTED BY IDOCK:   -8.00 KCAL/MOL
REMARK 924 INTRA-LIGAND FREE ENERGY PREDICTED BY IDOCK:   -0.75 KCAL/MOL
REMARK 927      BINDING AFFINITY PREDICTED BY RF-SCORE:    0.00 PKD
ROOT
HETATM    1  C   UNL     1      -7.669  15.956  69.206  1.00  0.00    -0.222 C  
HETATM    2  C   UNL     1      -8.195  16.149  67.783  1.00  0.00    -0.152 C  
ENDROOT
BRANCH   2   3
HETATM    3  O   UNL     1      -9.567  15.752  67.795  1.00  0.00    -0.213 OA 
BRANCH   3   4
HETATM    4  C   UNL     1     -10.018  14.776  66.954  1.00  0.00    -0.244 A  
HETATM    5  C   UNL     1     -10.742  12.613  65.464  1.00  0.00    -0.274 A  
HETATM    6  C   UNL     1     -10.313  12.380  66.766  1.00  0.00    -0.239 A  
HETATM    7  H1  UNL     1     -10.753  16.176  63.946  1.00  0.00     0.000 HD 
HETATM    8  N   UNL     1     -10.816  13.835  64.886  1.00  0.00    -0.367 NA 
HETATM    9  C   UNL     1      -9.952  13.495  67.514  1.00  0.00    -0.230 A  
HETATM   10  C   UNL     1     -10.432  14.892  65.625  1.00  0.00    -0.349 A  
HETATM   11  H2  UNL     1      -9.514  16.488  64.974  1.00  0.00     0.000 HD 
HETATM   12  N   UNL     1     -10.451  16.091  64.917  1.00  0.00    -0.572 NA 
BRANCH   6  13
HETATM   13  C   UNL     1     -10.211  11.030  67.278  1.00  0.00    -0.234 A  
HETATM   14  N   UNL     1     -10.283   8.759  67.420  1.00  0.00    -0.232 NA 
HETATM   15  C   UNL     1     -10.464   9.808  66.624  1.00  0.00    -0.163 A  
HETATM   16  C   UNL     1      -9.841  10.661  68.556  1.00  0.00    -0.168 A  
HETATM   17  N   UNL     1      -9.923   9.294  68.600  1.00  0.00    -0.173 NA 
BRANCH  17  18
HETATM   18  C   UNL     1      -9.697   8.434  69.762  1.00  0.00    -0.180 C  
HETATM   19  C   UNL     1     -10.310   9.009  71.046  1.00  0.00    -0.348 C  
HETATM   20  C   UNL     1     -11.824   8.808  71.113  1.00  0.00    -0.295 C  
HETATM   21  N   UNL     1     -12.197   7.406  70.921  1.00  0.00    -0.487 NA 
HETATM   22  C   UNL     1     -11.699   6.872  69.652  1.00  0.00    -0.019 C  
HETATM   23  H   UNL     1     -13.205   7.277  71.005  1.00  0.00     0.000 HD 
HETATM   24  C   UNL     1     -10.182   6.997  69.537  1.00  0.00    -0.208 C  
ENDBRANCH  17  18
ENDBRANCH   6  13
ENDBRANCH   3   4
ENDBRANCH   2   3
BRANCH   2  25
HETATM   25  C   UNL     1      -8.000  17.597  67.329  1.00  0.00    -0.222 A  
HETATM   26 CL   UNL     1     -10.511  18.358  68.235  1.00  0.00    -0.365 Cl 
HETATM   27  C   UNL     1      -6.756  17.983  66.768  1.00  0.00    -0.190 A  
HETATM   28 CL   UNL     1      -5.426  16.883  66.594  1.00  0.00    -0.158 Cl 
HETATM   29  F   UNL     1      -9.662  20.867  67.120  1.00  0.00    -0.595 F  
HETATM   30  C   UNL     1      -6.515  19.295  66.338  1.00  0.00    -0.201 A  
HETATM   31  C   UNL     1      -7.506  20.259  66.450  1.00  0.00    -0.284 A  
HETATM   32  C   UNL     1      -8.978  18.607  67.468  1.00  0.00    -0.276 A  
HETATM   33  C   UNL     1      -8.725  19.912  67.013  1.00  0.00    -0.334 A  
ENDBRANCH   2  25
TORSDOF 5
ENDMDL
MODEL       92
REMARK 921   NORMALIZED FREE ENERGY PREDICTED BY IDOCK:   -6.24 KCAL/MOL
REMARK 922        TOTAL FREE ENERGY PREDICTED BY IDOCK:   -8.74 KCAL/MOL
REMARK 923 INTER-LIGAND FREE ENERGY PREDICTED BY IDOCK:   -8.02 KCAL/MOL
REMARK 924 INTRA-LIGAND FREE ENERGY PREDICTED BY IDOCK:   -0.72 KCAL/MOL
REMARK 927      BINDING AFFINITY PREDICTED BY RF-SCORE:    0.00 PKD
ROOT
HETATM    1  C   UNL     1      -9.187  12.583  68.575  1.00  0.00    -0.071 C  
HETATM    2  C   UNL     1     -10.488  11.811  68.355  1.00  0.00    -0.215 C  
ENDROOT
BRANCH   2   3
HETATM    3  O   UNL     1     -11.296  12.027  69.513  1.00  0.00    -0.267 OA 
BRANCH   3   4
HETATM    4  C   UNL     1     -11.686  10.980  70.298  1.00  0.00    -0.355 A  
HETATM    5  C   UNL     1     -12.379   8.692  71.603  1.00  0.00    -0.333 A  
HETATM    6  C   UNL     1     -11.490   8.579  70.540  1.00  0.00    -0.198 A  
HETATM    7  H1  UNL     1     -13.946  12.097  72.574  1.00  0.00     0.000 HD 
HETATM    8  N   UNL     1     -12.927   9.854  72.026  1.00  0.00    -0.426 NA 
HETATM    9  C   UNL     1     -11.143   9.756  69.887  1.00  0.00    -0.293 A  
HETATM   10  C   UNL     1     -12.596  10.974  71.356  1.00  0.00    -0.393 A  
HETATM   11  H2  UNL     1     -13.764  12.496  70.994  1.00  0.00     0.000 HD 
HETATM   12  N   UNL     1     -13.281  12.101  71.801  1.00  0.00    -0.410 NA 
BRANCH   6  13
HETATM   13  C   UNL     1     -11.002   7.282  70.123  1.00  0.00    -0.280 A  
HETATM   14  N   UNL     1     -10.487   5.475  68.836  1.00  0.00    -0.225 NA 
HETATM   15  C   UNL     1     -11.004   6.700  68.840  1.00  0.00    -0.267 A  
HETATM   16  C   UNL     1     -10.425   6.322  70.930  1.00  0.00    -0.223 A  
HETATM   17  N   UNL     1     -10.156   5.250  70.120  1.00  0.00    -0.240 NA 
BRANCH  17  18
HETATM   18  C   UNL     1      -9.607   3.955  70.524  1.00  0.00    -0.193 C  
HETATM   19  C   UNL     1      -8.973   3.194  69.351  1.00  0.00    -0.178 C  
HETATM   20  C   UNL     1      -7.592   3.736  68.981  1.00  0.00    -0.053 C  
HETATM   21  N   UNL     1      -6.696   3.783  70.138  1.00  0.00    -0.033 NA 
HETATM   22  C   UNL     1      -7.248   4.587  71.230  1.00  0.00    -0.044 C  
HETATM   23  H   UNL     1      -5.767   4.108  69.873  1.00  0.00     0.000 HD 
HETATM   24  C   UNL     1      -8.612   4.072  71.684  1.00  0.00    -0.122 C  
ENDBRANCH  17  18
ENDBRANCH   6  13
ENDBRANCH   3   4
ENDBRANCH   2   3
BRANCH   2  25
HETATM   25  C   UNL     1     -11.171  12.262  67.062  1.00  0.00    -0.367 A  
HETATM   26 CL   UNL     1     -10.309  10.020  65.670  1.00  0.00    -0.254 Cl 
HETATM   27  C   UNL     1     -11.949  13.448  67.070  1.00  0.00    -0.379 A  
HETATM   28 CL   UNL     1     -12.185  14.404  68.497  1.00  0.00    -0.253 Cl 
HETATM   29  F   UNL     1     -11.678  11.371  63.534  1.00  0.00    -0.491 F  
HETATM   30  C   UNL     1     -12.602  13.910  65.918  1.00  0.00    -0.498 A  
HETATM   31  C   UNL     1     -12.495  13.208  64.727  1.00  0.00    -0.460 A  
HETATM   32  C   UNL     1     -11.110  11.546  65.845  1.00  0.00    -0.214 A  
HETATM   33  C   UNL     1     -11.755  12.036  64.697  1.00  0.00    -0.287 A  
ENDBRANCH   2  25
TORSDOF 5
ENDMDL
MODEL       93
REMARK 921   NORMALIZED FREE ENERGY PREDICTED BY IDOCK:   -6.22 KCAL/MOL
REMARK 922        TOTAL FREE ENERGY PREDICTED BY IDOCK:   -8.71 KCAL/MOL
REMARK 923 INTER-LIGAND FREE ENERGY PREDICTED BY IDOCK:   -8.28 KCAL/MOL
REMARK 924 INTRA-LIGAND FREE ENERGY PREDICTED BY IDOCK:   -0.43 KCAL/MOL
REMARK 927      BINDING AFFINITY PREDICTED BY RF-SCORE:    0.00 PKD
ROOT
HETATM    1  C   UNL     1      -9.726  13.108  67.999  1.00  0.00    -0.224 C  
HETATM    2  C   UNL     1     -11.185  13.542  67.844  1.00  0.00    -0.274 C  
ENDROOT
BRANCH   2   3
HETATM    3  O   UNL     1     -11.858  12.482  67.161  1.00  0.00    -0.417 OA 
BRANCH   3   4
HETATM    4  C   UNL     1     -11.191  11.692  66.271  1.00  0.00    -0.271 A  
HETATM    5  C   UNL     1      -9.707   9.977  64.762  1.00  0.00    -0.293 A  
HETATM    6  C   UNL     1      -9.903   9.648  66.098  1.00  0.00    -0.334 A  
HETATM    7  H1  UNL     1     -11.070  13.281  63.270  1.00  0.00     0.000 HD 
HETATM    8  N   UNL     1     -10.194  11.089  64.164  1.00  0.00    -0.331 NA 
HETATM    9  C   UNL     1     -10.666  10.532  66.853  1.00  0.00    -0.281 A  
HETATM   10  C   UNL     1     -10.904  11.941  64.927  1.00  0.00    -0.305 A  
HETATM   11  H2  UNL     1     -10.917  13.888  64.785  1.00  0.00     0.000 HD 
HETATM   12  N   UNL     1     -11.280  13.099  64.251  1.00  0.00    -0.371 NA 
BRANCH   6  13
HETATM   13  C   UNL     1      -9.292   8.465  66.664  1.00  0.00    -0.245 A  
HETATM   14  N   UNL     1      -8.429   6.369  66.882  1.00  0.00    -0.109 NA 
HETATM   15  C   UNL     1      -8.965   7.245  66.039  1.00  0.00    -0.116 A  
HETATM   16  C   UNL     1      -8.902   8.288  67.977  1.00  0.00    -0.135 A  
HETATM   17  N   UNL     1      -8.415   7.010  68.064  1.00  0.00    -0.124 NA 
BRANCH  17  18
HETATM   18  C   UNL     1      -7.944   6.327  69.268  1.00  0.00    -0.109 C  
HETATM   19  C   UNL     1      -8.348   7.059  70.555  1.00  0.00    -0.132 C  
HETATM   20  C   UNL     1      -9.815   6.830  70.922  1.00  0.00    -0.186 C  
HETATM   21  N   UNL     1     -10.145   5.406  70.989  1.00  0.00    -0.205 NA 
HETATM   22  C   UNL     1      -9.853   4.713  69.732  1.00  0.00    -0.226 C  
HETATM   23  H   UNL     1     -11.114   5.264  71.272  1.00  0.00     0.000 HD 
HETATM   24  C   UNL     1      -8.388   4.860  69.327  1.00  0.00    -0.085 C  
ENDBRANCH  17  18
ENDBRANCH   6  13
ENDBRANCH   3   4
ENDBRANCH   2   3
BRANCH   2  25
HETATM   25  C   UNL     1     -11.801  13.856  69.209  1.00  0.00    -0.394 A  
HETATM   26 CL   UNL     1     -12.128  11.169  69.825  1.00  0.00    -0.400 Cl 
HETATM   27  C   UNL     1     -11.890  15.207  69.632  1.00  0.00    -0.334 A  
HETATM   28 CL   UNL     1     -11.305  16.529  68.674  1.00  0.00    -0.308 Cl 
HETATM   29  F   UNL     1     -13.289  12.313  72.192  1.00  0.00    -0.574 F  
HETATM   30  C   UNL     1     -12.440  15.557  70.873  1.00  0.00    -0.494 A  
HETATM   31  C   UNL     1     -12.920  14.574  71.726  1.00  0.00    -0.413 A  
HETATM   32  C   UNL     1     -12.262  12.872  70.113  1.00  0.00    -0.266 A  
HETATM   33  C   UNL     1     -12.828  13.244  71.343  1.00  0.00    -0.322 A  
ENDBRANCH   2  25
TORSDOF 5
ENDMDL
MODEL       94
REMARK 921   NORMALIZED FREE ENERGY PREDICTED BY IDOCK:   -6.21 KCAL/MOL
REMARK 922        TOTAL FREE ENERGY PREDICTED BY IDOCK:   -8.70 KCAL/MOL
REMARK 923 INTER-LIGAND FREE ENERGY PREDICTED BY IDOCK:   -8.54 KCAL/MOL
REMARK 924 INTRA-LIGAND FREE ENERGY PREDICTED BY IDOCK:   -0.16 KCAL/MOL
REMARK 927      BINDING AFFINITY PREDICTED BY RF-SCORE:    0.00 PKD
ROOT
HETATM    1  C   UNL     1      -8.708  12.057  67.135  1.00  0.00    -0.183 C  
HETATM    2  C   UNL     1     -10.202  11.735  67.071  1.00  0.00    -0.214 C  
ENDROOT
BRANCH   2   3
HETATM    3  O   UNL     1     -10.579  11.807  65.695  1.00  0.00    -0.252 OA 
BRANCH   3   4
HETATM    4  C   UNL     1     -11.065  12.967  65.164  1.00  0.00    -0.292 A  
HETATM    5  C   UNL     1     -11.897  15.437  64.372  1.00  0.00    -0.256 A  
HETATM    6  C   UNL     1     -10.822  15.375  65.251  1.00  0.00    -0.423 A  
HETATM    7  H1  UNL     1     -13.754  12.240  63.219  1.00  0.00     0.000 HD 
HETATM    8  N   UNL     1     -12.561  14.360  63.892  1.00  0.00    -0.793 NA 
HETATM    9  C   UNL     1     -10.407  14.107  65.642  1.00  0.00    -0.348 A  
HETATM   10  C   UNL     1     -12.156  13.146  64.311  1.00  0.00    -0.414 A  
HETATM   11  H2  UNL     1     -13.296  11.600  64.658  1.00  0.00     0.000 HD 
HETATM   12  N   UNL     1     -12.957  12.109  63.842  1.00  0.00    -0.733 NA 
BRANCH   6  13
HETATM   13  C   UNL     1     -10.212  16.586  65.756  1.00  0.00    -0.350 A  
HETATM   14  N   UNL     1      -9.802  18.782  66.193  1.00  0.00    -0.478 NA 
HETATM   15  C   UNL     1     -10.627  17.923  65.603  1.00  0.00    -0.109 A  
HETATM   16  C   UNL     1      -9.058  16.673  66.509  1.00  0.00    -0.272 A  
HETATM   17  N   UNL     1      -8.840  18.008  66.724  1.00  0.00    -0.256 NA 
BRANCH  17  18
HETATM   18  C   UNL     1      -7.700  18.616  67.412  1.00  0.00    -0.228 C  
HETATM   19  C   UNL     1      -6.410  17.802  67.244  1.00  0.00    -0.177 C  
HETATM   20  C   UNL     1      -5.768  18.002  65.870  1.00  0.00    -0.206 C  
HETATM   21  N   UNL     1      -5.553  19.418  65.569  1.00  0.00    -0.157 NA 
HETATM   22  C   UNL     1      -6.796  20.190  65.633  1.00  0.00    -0.287 C  
HETATM   23  H   UNL     1      -5.090  19.538  64.669  1.00  0.00     0.000 HD 
HETATM   24  C   UNL     1      -7.469  20.074  66.998  1.00  0.00    -0.301 C  
ENDBRANCH  17  18
ENDBRANCH   6  13
ENDBRANCH   3   4
ENDBRANCH   2   3
BRANCH   2  25
HETATM   25  C   UNL     1     -10.485  10.367  67.695  1.00  0.00    -0.277 A  
HETATM   26 CL   UNL     1     -11.508  11.492  70.017  1.00  0.00    -0.342 Cl 
HETATM   27  C   UNL     1     -10.235   9.197  66.934  1.00  0.00    -0.266 A  
HETATM   28 CL   UNL     1      -9.638   9.247  65.307  1.00  0.00    -0.262 Cl 
HETATM   29  F   UNL     1     -11.737   8.717  70.729  1.00  0.00    -0.285 F  
HETATM   30  C   UNL     1     -10.479   7.916  67.449  1.00  0.00    -0.360 A  
HETATM   31  C   UNL     1     -10.975   7.764  68.735  1.00  0.00     0.104 A  
HETATM   32  C   UNL     1     -11.027  10.185  68.987  1.00  0.00    -0.226 A  
HETATM   33  C   UNL     1     -11.246   8.894  69.493  1.00  0.00     0.103 A  
ENDBRANCH   2  25
TORSDOF 5
ENDMDL
MODEL       95
REMARK 921   NORMALIZED FREE ENERGY PREDICTED BY IDOCK:   -6.20 KCAL/MOL
REMARK 922        TOTAL FREE ENERGY PREDICTED BY IDOCK:   -8.69 KCAL/MOL
REMARK 923 INTER-LIGAND FREE ENERGY PREDICTED BY IDOCK:   -8.10 KCAL/MOL
REMARK 924 INTRA-LIGAND FREE ENERGY PREDICTED BY IDOCK:   -0.59 KCAL/MOL
REMARK 927      BINDING AFFINITY PREDICTED BY RF-SCORE:    0.00 PKD
ROOT
HETATM    1  C   UNL     1     -11.242  15.110  66.410  1.00  0.00    -0.277 C  
HETATM    2  C   UNL     1     -11.082  14.918  67.918  1.00  0.00    -0.298 C  
ENDROOT
BRANCH   2   3
HETATM    3  O   UNL     1     -11.671  13.655  68.236  1.00  0.00    -0.321 OA 
BRANCH   3   4
HETATM    4  C   UNL     1     -12.128  13.396  69.495  1.00  0.00    -0.278 A  
HETATM    5  C   UNL     1     -13.073  12.557  71.909  1.00  0.00    -0.368 A  
HETATM    6  C   UNL     1     -12.511  11.599  71.073  1.00  0.00    -0.436 A  
HETATM    7  H1  UNL     1     -13.437  16.248  70.796  1.00  0.00     0.000 HD 
HETATM    8  N   UNL     1     -13.189  13.871  71.604  1.00  0.00    -0.354 NA 
HETATM    9  C   UNL     1     -12.030  12.044  69.847  1.00  0.00    -0.391 A  
HETATM   10  C   UNL     1     -12.741  14.267  70.398  1.00  0.00    -0.295 A  
HETATM   11  H2  UNL     1     -13.525  15.654  69.270  1.00  0.00     0.000 HD 
HETATM   12  N   UNL     1     -12.990  15.612  70.137  1.00  0.00    -0.191 NA 
BRANCH   6  13
HETATM   13  C   UNL     1     -12.485  10.205  71.463  1.00  0.00    -0.526 A  
HETATM   14  N   UNL     1     -13.152   8.125  72.105  1.00  0.00    -0.279 NA 
HETATM   15  C   UNL     1     -13.559   9.344  71.763  1.00  0.00    -0.388 A  
HETATM   16  C   UNL     1     -11.362   9.420  71.631  1.00  0.00    -0.382 A  
HETATM   17  N   UNL     1     -11.811   8.191  72.039  1.00  0.00    -0.316 NA 
BRANCH  17  18
HETATM   18  C   UNL     1     -10.996   7.036  72.416  1.00  0.00    -0.248 C  
HETATM   19  C   UNL     1     -11.347   5.780  71.605  1.00  0.00    -0.216 C  
HETATM   20  C   UNL     1     -10.760   5.813  70.193  1.00  0.00    -0.320 C  
HETATM   21  N   UNL     1      -9.317   6.058  70.208  1.00  0.00    -0.157 NA 
HETATM   22  C   UNL     1      -8.976   7.304  70.896  1.00  0.00    -0.150 C  
HETATM   23  H   UNL     1      -8.929   6.039  69.265  1.00  0.00     0.000 HD 
HETATM   24  C   UNL     1      -9.492   7.321  72.334  1.00  0.00    -0.178 C  
ENDBRANCH  17  18
ENDBRANCH   6  13
ENDBRANCH   3   4
ENDBRANCH   2   3
BRANCH   2  25
HETATM   25  C   UNL     1      -9.608  15.004  68.318  1.00  0.00    -0.210 A  
HETATM   26 CL   UNL     1      -9.125  12.364  67.607  1.00  0.00    -0.178 Cl 
HETATM   27  C   UNL     1      -9.084  16.245  68.763  1.00  0.00    -0.245 A  
HETATM   28 CL   UNL     1     -10.043  17.687  68.853  1.00  0.00    -0.362 Cl 
HETATM   29  F   UNL     1      -6.510  13.047  68.584  1.00  0.00    -0.069 F  
HETATM   30  C   UNL     1      -7.741  16.387  69.139  1.00  0.00    -0.220 A  
HETATM   31  C   UNL     1      -6.883  15.299  69.086  1.00  0.00    -0.138 A  
HETATM   32  C   UNL     1      -8.703  13.922  68.237  1.00  0.00    -0.183 A  
HETATM   33  C   UNL     1      -7.365  14.079  68.636  1.00  0.00    -0.120 A  
ENDBRANCH   2  25
TORSDOF 5
ENDMDL
MODEL       96
REMARK 921   NORMALIZED FREE ENERGY PREDICTED BY IDOCK:   -6.20 KCAL/MOL
REMARK 922        TOTAL FREE ENERGY PREDICTED BY IDOCK:   -8.68 KCAL/MOL
REMARK 923 INTER-LIGAND FREE ENERGY PREDICTED BY IDOCK:   -8.16 KCAL/MOL
REMARK 924 INTRA-LIGAND FREE ENERGY PREDICTED BY IDOCK:   -0.52 KCAL/MOL
REMARK 927      BINDING AFFINITY PREDICTED BY RF-SCORE:    0.00 PKD
ROOT
HETATM    1  C   UNL     1      -7.984  15.182  69.296  1.00  0.00    -0.213 C  
HETATM    2  C   UNL     1      -8.891  15.568  68.126  1.00  0.00    -0.169 C  
ENDROOT
BRANCH   2   3
HETATM    3  O   UNL     1     -10.152  14.939  68.359  1.00  0.00    -0.215 OA 
BRANCH   3   4
HETATM    4  C   UNL     1     -10.569  13.901  67.577  1.00  0.00    -0.256 A  
HETATM    5  C   UNL     1     -11.209  11.632  66.211  1.00  0.00    -0.271 A  
HETATM    6  C   UNL     1     -10.735  11.486  67.510  1.00  0.00    -0.267 A  
HETATM    7  H1  UNL     1     -11.457  15.112  64.529  1.00  0.00     0.000 HD 
HETATM    8  N   UNL     1     -11.366  12.819  65.579  1.00  0.00    -0.301 NA 
HETATM    9  C   UNL     1     -10.418  12.653  68.195  1.00  0.00    -0.239 A  
HETATM   10  C   UNL     1     -11.022  13.930  66.257  1.00  0.00    -0.298 A  
HETATM   11  H2  UNL     1     -10.211  15.540  65.506  1.00  0.00     0.000 HD 
HETATM   12  N   UNL     1     -11.126  15.090  65.494  1.00  0.00    -0.346 NA 
BRANCH   6  13
HETATM   13  C   UNL     1     -10.545  10.170  68.081  1.00  0.00    -0.262 A  
HETATM   14  N   UNL     1     -10.500   7.908  68.336  1.00  0.00    -0.194 NA 
HETATM   15  C   UNL     1     -10.766   8.906  67.500  1.00  0.00    -0.152 A  
HETATM   16  C   UNL     1     -10.102   9.884  69.357  1.00  0.00    -0.212 A  
HETATM   17  N   UNL     1     -10.115   8.518  69.471  1.00  0.00    -0.195 NA 
BRANCH  17  18
HETATM   18  C   UNL     1      -9.798   7.729  70.661  1.00  0.00    -0.182 C  
HETATM   19  C   UNL     1     -10.044   8.505  71.963  1.00  0.00    -0.386 C  
HETATM   20  C   UNL     1     -11.528   8.576  72.329  1.00  0.00    -0.375 C  
HETATM   21  N   UNL     1     -12.144   7.249  72.369  1.00  0.00    -0.491 NA 
HETATM   22  C   UNL     1     -11.999   6.535  71.099  1.00  0.00    -0.306 C  
HETATM   23  H   UNL     1     -13.122   7.305  72.651  1.00  0.00     0.000 HD 
HETATM   24  C   UNL     1     -10.534   6.385  70.694  1.00  0.00    -0.269 C  
ENDBRANCH  17  18
ENDBRANCH   6  13
ENDBRANCH   3   4
ENDBRANCH   2   3
BRANCH   2  25
HETATM   25  C   UNL     1      -8.998  17.090  68.007  1.00  0.00    -0.230 A  
HETATM   26 CL   UNL     1      -7.104  17.196  65.981  1.00  0.00    -0.223 Cl 
HETATM   27  C   UNL     1      -9.949  17.779  68.803  1.00  0.00    -0.367 A  
HETATM   28 CL   UNL     1     -11.021  16.965  69.897  1.00  0.00    -0.086 Cl 
HETATM   29  F   UNL     1      -7.631  20.009  66.246  1.00  0.00    -0.265 F  
HETATM   30  C   UNL     1     -10.098  19.171  68.735  1.00  0.00    -0.445 A  
HETATM   31  C   UNL     1      -9.303  19.917  67.878  1.00  0.00    -0.448 A  
HETATM   32  C   UNL     1      -8.229  17.869  67.114  1.00  0.00    -0.216 A  
HETATM   33  C   UNL     1      -8.378  19.264  67.076  1.00  0.00    -0.278 A  
ENDBRANCH   2  25
TORSDOF 5
ENDMDL
MODEL       97
REMARK 921   NORMALIZED FREE ENERGY PREDICTED BY IDOCK:   -6.18 KCAL/MOL
REMARK 922        TOTAL FREE ENERGY PREDICTED BY IDOCK:   -8.66 KCAL/MOL
REMARK 923 INTER-LIGAND FREE ENERGY PREDICTED BY IDOCK:   -7.51 KCAL/MOL
REMARK 924 INTRA-LIGAND FREE ENERGY PREDICTED BY IDOCK:   -1.14 KCAL/MOL
REMARK 927      BINDING AFFINITY PREDICTED BY RF-SCORE:    0.00 PKD
ROOT
HETATM    1  C   UNL     1      -8.839  18.886  69.530  1.00  0.00     0.415 C  
HETATM    2  C   UNL     1      -8.922  17.895  68.368  1.00  0.00    -0.282 C  
ENDROOT
BRANCH   2   3
HETATM    3  O   UNL     1     -10.259  17.957  67.870  1.00  0.00    -0.334 OA 
BRANCH   3   4
HETATM    4  C   UNL     1     -10.619  17.267  66.749  1.00  0.00    -0.192 A  
HETATM    5  C   UNL     1     -11.175  15.626  64.646  1.00  0.00    -0.369 A  
HETATM    6  C   UNL     1     -10.865  15.027  65.862  1.00  0.00    -0.339 A  
HETATM    7  H1  UNL     1     -11.090  19.473  64.208  1.00  0.00     0.000 HD 
HETATM    8  N   UNL     1     -11.211  16.963  64.435  1.00  0.00    -1.120 NA 
HETATM    9  C   UNL     1     -10.588  15.878  66.926  1.00  0.00    -0.309 A  
HETATM   10  C   UNL     1     -10.909  17.762  65.476  1.00  0.00     0.087 A  
HETATM   11  H2  UNL     1      -9.955  19.463  65.391  1.00  0.00     0.000 HD 
HETATM   12  N   UNL     1     -10.878  19.112  65.138  1.00  0.00    -0.322 NA 
BRANCH   6  13
HETATM   13  C   UNL     1     -10.794  13.586  65.977  1.00  0.00    -0.282 A  
HETATM   14  N   UNL     1     -10.651  11.378  65.443  1.00  0.00    -0.278 NA 
HETATM   15  C   UNL     1     -10.663  12.617  64.963  1.00  0.00    -0.293 A  
HETATM   16  C   UNL     1     -10.852  12.851  67.144  1.00  0.00    -0.256 A  
HETATM   17  N   UNL     1     -10.787  11.534  66.771  1.00  0.00    -0.270 NA 
BRANCH  17  18
HETATM   18  C   UNL     1     -10.883  10.364  67.645  1.00  0.00    -0.306 C  
HETATM   19  C   UNL     1     -10.232   9.117  67.032  1.00  0.00    -0.333 C  
HETATM   20  C   UNL     1      -8.706   9.146  67.132  1.00  0.00    -0.123 C  
HETATM   21  N   UNL     1      -8.254   9.367  68.506  1.00  0.00    -0.112 NA 
HETATM   22  C   UNL     1      -8.792  10.606  69.071  1.00  0.00    -0.148 C  
HETATM   23  H   UNL     1      -7.236   9.346  68.568  1.00  0.00     0.000 HD 
HETATM   24  C   UNL     1     -10.319  10.626  69.046  1.00  0.00    -0.237 C  
ENDBRANCH  17  18
ENDBRANCH   6  13
ENDBRANCH   3   4
ENDBRANCH   2   3
BRANCH   2  25
HETATM   25  C   UNL     1      -7.875  18.226  67.303  1.00  0.00    -0.233 A  
HETATM   26 CL   UNL     1      -8.737  20.856  67.085  1.00  0.00    -0.241 Cl 
HETATM   27  C   UNL     1      -6.930  17.235  66.931  1.00  0.00    -0.194 A  
HETATM   28 CL   UNL     1      -6.894  15.659  67.653  1.00  0.00    -0.181 Cl 
HETATM   29  F   UNL     1      -6.673  20.898  65.086  1.00  0.00    -0.270 F  
HETATM   30  C   UNL     1      -5.945  17.480  65.965  1.00  0.00    -0.180 A  
HETATM   31  C   UNL     1      -5.873  18.716  65.339  1.00  0.00    -0.267 A  
HETATM   32  C   UNL     1      -7.755  19.488  66.679  1.00  0.00    -0.270 A  
HETATM   33  C   UNL     1      -6.773  19.708  65.699  1.00  0.00    -0.276 A  
ENDBRANCH   2  25
TORSDOF 5
ENDMDL
MODEL       98
REMARK 921   NORMALIZED FREE ENERGY PREDICTED BY IDOCK:   -6.11 KCAL/MOL
REMARK 922        TOTAL FREE ENERGY PREDICTED BY IDOCK:   -8.57 KCAL/MOL
REMARK 923 INTER-LIGAND FREE ENERGY PREDICTED BY IDOCK:   -7.66 KCAL/MOL
REMARK 924 INTRA-LIGAND FREE ENERGY PREDICTED BY IDOCK:   -0.91 KCAL/MOL
REMARK 927      BINDING AFFINITY PREDICTED BY RF-SCORE:    0.00 PKD
ROOT
HETATM    1  C   UNL     1      -7.138   7.470  67.099  1.00  0.00    -0.085 C  
HETATM    2  C   UNL     1      -8.251   8.518  67.058  1.00  0.00    -0.107 C  
ENDROOT
BRANCH   2   3
HETATM    3  O   UNL     1      -8.959   8.318  65.834  1.00  0.00    -0.170 OA 
BRANCH   3   4
HETATM    4  C   UNL     1      -9.223   9.366  65.001  1.00  0.00    -0.218 A  
HETATM    5  C   UNL     1      -9.989  11.547  63.559  1.00  0.00    -0.399 A  
HETATM    6  C   UNL     1     -10.304  11.531  64.913  1.00  0.00    -0.340 A  
HETATM    7  H1  UNL     1      -8.239   8.542  61.855  1.00  0.00     0.000 HD 
HETATM    8  N   UNL     1      -9.338  10.554  62.910  1.00  0.00    -0.295 NA 
HETATM    9  C   UNL     1      -9.902  10.413  65.635  1.00  0.00    -0.321 A  
HETATM   10  C   UNL     1      -8.987   9.471  63.629  1.00  0.00    -0.173 A  
HETATM   11  H2  UNL     1      -8.966   7.622  63.002  1.00  0.00     0.000 HD 
HETATM   12  N   UNL     1      -8.411   8.465  62.858  1.00  0.00    -0.157 NA 
BRANCH   6  13
HETATM   13  C   UNL     1     -11.056  12.615  65.507  1.00  0.00    -0.329 A  
HETATM   14  N   UNL     1     -12.734  14.079  65.982  1.00  0.00    -0.434 NA 
HETATM   15  C   UNL     1     -12.383  13.021  65.259  1.00  0.00    -0.486 A  
HETATM   16  C   UNL     1     -10.603  13.504  66.462  1.00  0.00    -0.281 A  
HETATM   17  N   UNL     1     -11.634  14.375  66.696  1.00  0.00    -0.371 NA 
BRANCH  17  18
HETATM   18  C   UNL     1     -11.619  15.543  67.577  1.00  0.00    -0.106 C  
HETATM   19  C   UNL     1     -12.273  15.262  68.937  1.00  0.00    -0.132 C  
HETATM   20  C   UNL     1     -11.360  14.467  69.871  1.00  0.00    -0.222 C  
HETATM   21  N   UNL     1     -10.051  15.102  70.026  1.00  0.00    -0.493 NA 
HETATM   22  C   UNL     1      -9.373  15.289  68.741  1.00  0.00    -0.210 C  
HETATM   23  H   UNL     1      -9.464  14.585  70.680  1.00  0.00     0.000 HD 
HETATM   24  C   UNL     1     -10.211  16.119  67.771  1.00  0.00    -0.267 C  
ENDBRANCH  17  18
ENDBRANCH   6  13
ENDBRANCH   3   4
ENDBRANCH   2   3
BRANCH   2  25
HETATM   25  C   UNL     1      -9.149   8.399  68.291  1.00  0.00    -0.139 A  
HETATM   26 CL   UNL     1     -10.352   6.080  67.352  1.00  0.00    -0.225 Cl 
HETATM   27  C   UNL     1      -9.000   9.334  69.347  1.00  0.00    -0.147 A  
HETATM   28 CL   UNL     1      -7.820  10.605  69.313  1.00  0.00    -0.146 Cl 
HETATM   29  F   UNL     1     -11.834   6.392  69.795  1.00  0.00    -0.478 F  
HETATM   30  C   UNL     1      -9.790   9.274  70.504  1.00  0.00    -0.310 A  
HETATM   31  C   UNL     1     -10.752   8.284  70.641  1.00  0.00    -0.240 A  
HETATM   32  C   UNL     1     -10.109   7.378  68.474  1.00  0.00    -0.175 A  
HETATM   33  C   UNL     1     -10.904   7.346  69.631  1.00  0.00    -0.210 A  
ENDBRANCH   2  25
TORSDOF 5
ENDMDL
MODEL       99
REMARK 921   NORMALIZED FREE ENERGY PREDICTED BY IDOCK:   -6.11 KCAL/MOL
REMARK 922        TOTAL FREE ENERGY PREDICTED BY IDOCK:   -8.57 KCAL/MOL
REMARK 923 INTER-LIGAND FREE ENERGY PREDICTED BY IDOCK:   -7.78 KCAL/MOL
REMARK 924 INTRA-LIGAND FREE ENERGY PREDICTED BY IDOCK:   -0.79 KCAL/MOL
REMARK 927      BINDING AFFINITY PREDICTED BY RF-SCORE:    0.00 PKD
ROOT
HETATM    1  C   UNL     1     -12.121  13.932  66.501  1.00  0.00    -0.484 C  
HETATM    2  C   UNL     1     -11.228  13.365  67.606  1.00  0.00    -0.276 C  
ENDROOT
BRANCH   2   3
HETATM    3  O   UNL     1      -9.904  13.832  67.344  1.00  0.00    -0.230 OA 
BRANCH   3   4
HETATM    4  C   UNL     1      -8.857  12.959  67.275  1.00  0.00    -0.206 A  
HETATM    5  C   UNL     1      -6.993  10.973  67.207  1.00  0.00    -0.096 A  
HETATM    6  C   UNL     1      -8.321  10.612  67.013  1.00  0.00    -0.126 A  
HETATM    7  H1  UNL     1      -5.985  14.632  67.982  1.00  0.00     0.000 HD 
HETATM    8  N   UNL     1      -6.565  12.238  67.434  1.00  0.00    -0.142 NA 
HETATM    9  C   UNL     1      -9.259  11.637  67.046  1.00  0.00    -0.185 A  
HETATM   10  C   UNL     1      -7.499  13.205  67.491  1.00  0.00    -0.160 A  
HETATM   11  H2  UNL     1      -7.474  14.773  68.654  1.00  0.00     0.000 HD 
HETATM   12  N   UNL     1      -6.977  14.452  67.824  1.00  0.00    -0.163 NA 
BRANCH   6  13
HETATM   13  C   UNL     1      -8.688   9.224  66.835  1.00  0.00    -0.136 A  
HETATM   14  N   UNL     1      -8.679   7.054  66.143  1.00  0.00    -0.142 NA 
HETATM   15  C   UNL     1      -8.037   8.217  66.094  1.00  0.00    -0.111 A  
HETATM   16  C   UNL     1      -9.793   8.591  67.369  1.00  0.00    -0.187 A  
HETATM   17  N   UNL     1      -9.758   7.301  66.906  1.00  0.00    -0.182 NA 
BRANCH  17  18
HETATM   18  C   UNL     1     -10.754   6.255  67.136  1.00  0.00    -0.359 C  
HETATM   19  C   UNL     1     -10.317   4.895  66.574  1.00  0.00    -0.311 C  
HETATM   20  C   UNL     1      -9.288   4.198  67.465  1.00  0.00    -0.171 C  
HETATM   21  N   UNL     1      -9.751   4.084  68.849  1.00  0.00    -0.134 NA 
HETATM   22  C   UNL     1     -10.080   5.388  69.429  1.00  0.00    -0.234 C  
HETATM   23  H   UNL     1      -9.075   3.584  69.425  1.00  0.00     0.000 HD 
HETATM   24  C   UNL     1     -11.142   6.122  68.613  1.00  0.00    -0.378 C  
ENDBRANCH  17  18
ENDBRANCH   6  13
ENDBRANCH   3   4
ENDBRANCH   2   3
BRANCH   2  25
HETATM   25  C   UNL     1     -11.744  13.783  68.984  1.00  0.00    -0.372 A  
HETATM   26 CL   UNL     1     -12.156  11.154  69.773  1.00  0.00    -0.400 Cl 
HETATM   27  C   UNL     1     -11.745  15.158  69.332  1.00  0.00    -0.332 A  
HETATM   28 CL   UNL     1     -11.160  16.395  68.266  1.00  0.00    -0.352 Cl 
HETATM   29  F   UNL     1     -13.115  12.482  72.134  1.00  0.00    -0.513 F  
HETATM   30  C   UNL     1     -12.201  15.603  70.581  1.00  0.00    -0.446 A  
HETATM   31  C   UNL     1     -12.673  14.693  71.516  1.00  0.00    -0.408 A  
HETATM   32  C   UNL     1     -12.193  12.875  69.969  1.00  0.00    -0.222 A  
HETATM   33  C   UNL     1     -12.665  13.341  71.207  1.00  0.00    -0.323 A  
ENDBRANCH   2  25
TORSDOF 5
ENDMDL
MODEL      100
REMARK 921   NORMALIZED FREE ENERGY PREDICTED BY IDOCK:   -6.11 KCAL/MOL
REMARK 922        TOTAL FREE ENERGY PREDICTED BY IDOCK:   -8.57 KCAL/MOL
REMARK 923 INTER-LIGAND FREE ENERGY PREDICTED BY IDOCK:   -7.95 KCAL/MOL
REMARK 924 INTRA-LIGAND FREE ENERGY PREDICTED BY IDOCK:   -0.61 KCAL/MOL
REMARK 927      BINDING AFFINITY PREDICTED BY RF-SCORE:    0.00 PKD
ROOT
HETATM    1  C   UNL     1     -11.076  10.368  67.543  1.00  0.00    -0.336 C  
HETATM    2  C   UNL     1      -9.921   9.657  68.250  1.00  0.00    -0.155 C  
ENDROOT
BRANCH   2   3
HETATM    3  O   UNL     1      -9.281  10.633  69.074  1.00  0.00    -0.175 OA 
BRANCH   3   4
HETATM    4  C   UNL     1      -8.592  11.671  68.518  1.00  0.00    -0.134 A  
HETATM    5  C   UNL     1      -7.509  13.913  67.411  1.00  0.00    -0.128 A  
HETATM    6  C   UNL     1      -8.694  14.058  68.122  1.00  0.00    -0.180 A  
HETATM    7  H1  UNL     1      -5.887  10.437  66.874  1.00  0.00     0.000 HD 
HETATM    8  N   UNL     1      -6.863  12.738  67.225  1.00  0.00    -0.128 NA 
HETATM    9  C   UNL     1      -9.232  12.906  68.685  1.00  0.00     0.036 A  
HETATM   10  C   UNL     1      -7.423  11.634  67.756  1.00  0.00    -0.111 A  
HETATM   11  H2  UNL     1      -7.411   9.842  66.981  1.00  0.00     0.000 HD 
HETATM   12  N   UNL     1      -6.741  10.464  67.432  1.00  0.00    -0.071 NA 
BRANCH   6  13
HETATM   13  C   UNL     1      -9.343  15.349  68.217  1.00  0.00    -0.193 A  
HETATM   14  N   UNL     1     -10.934  16.977  68.201  1.00  0.00    -0.333 NA 
HETATM   15  C   UNL     1     -10.705  15.675  68.063  1.00  0.00    -0.287 A  
HETATM   16  C   UNL     1      -8.731  16.559  68.478  1.00  0.00    -0.228 A  
HETATM   17  N   UNL     1      -9.720  17.506  68.433  1.00  0.00    -0.301 NA 
BRANCH  17  18
HETATM   18  C   UNL     1      -9.562  18.953  68.576  1.00  0.00    -0.380 C  
HETATM   19  C   UNL     1      -8.167  19.436  68.154  1.00  0.00    -0.359 C  
HETATM   20  C   UNL     1      -8.008  19.505  66.634  1.00  0.00    -0.293 C  
HETATM   21  N   UNL     1      -9.065  20.303  66.011  1.00  0.00    -0.601 NA 
HETATM   22  C   UNL     1     -10.400  19.794  66.328  1.00  0.00    -0.519 C  
HETATM   23  H   UNL     1      -8.927  20.375  65.003  1.00  0.00     0.000 HD 
HETATM   24  C   UNL     1     -10.647  19.743  67.834  1.00  0.00    -0.468 C  
ENDBRANCH  17  18
ENDBRANCH   6  13
ENDBRANCH   3   4
ENDBRANCH   2   3
BRANCH   2  25
HETATM   25  C   UNL     1     -10.435   8.453  69.043  1.00  0.00    -0.216 A  
HETATM   26 CL   UNL     1     -11.407  10.054  71.093  1.00  0.00    -0.431 Cl 
HETATM   27  C   UNL     1     -10.317   7.156  68.482  1.00  0.00    -0.183 A  
HETATM   28 CL   UNL     1      -9.633   6.872  66.915  1.00  0.00    -0.192 Cl 
HETATM   29  F   UNL     1     -12.076   7.480  72.182  1.00  0.00    -0.293 F  
HETATM   30  C   UNL     1     -10.773   6.016  69.158  1.00  0.00    -0.399 A  
HETATM   31  C   UNL     1     -11.355   6.134  70.412  1.00  0.00    -0.399 A  
HETATM   32  C   UNL     1     -11.067   8.549  70.303  1.00  0.00    -0.214 A  
HETATM   33  C   UNL     1     -11.499   7.394  70.974  1.00  0.00    -0.282 A  
ENDBRANCH   2  25
TORSDOF 5
ENDMDL
MODEL      101
REMARK 921   NORMALIZED FREE ENERGY PREDICTED BY IDOCK:   -6.09 KCAL/MOL
REMARK 922        TOTAL FREE ENERGY PREDICTED BY IDOCK:   -8.54 KCAL/MOL
REMARK 923 INTER-LIGAND FREE ENERGY PREDICTED BY IDOCK:   -8.74 KCAL/MOL
REMARK 924 INTRA-LIGAND FREE ENERGY PREDICTED BY IDOCK:    0.20 KCAL/MOL
REMARK 927      BINDING AFFINITY PREDICTED BY RF-SCORE:    0.00 PKD
ROOT
HETATM    1  C   UNL     1      -9.660  10.077  69.808  1.00  0.00    -0.249 C  
HETATM    2  C   UNL     1     -10.875   9.250  69.384  1.00  0.00    -0.169 C  
ENDROOT
BRANCH   2   3
HETATM    3  O   UNL     1     -11.846  10.172  68.886  1.00  0.00    -0.002 OA 
BRANCH   3   4
HETATM    4  C   UNL     1     -12.111  11.334  69.553  1.00  0.00    -0.317 A  
HETATM    5  C   UNL     1     -12.403  13.794  70.686  1.00  0.00    -0.375 A  
HETATM    6  C   UNL     1     -11.840  13.737  69.416  1.00  0.00    -0.392 A  
HETATM    7  H1  UNL     1     -13.368  10.578  72.617  1.00  0.00     0.000 HD 
HETATM    8  N   UNL     1     -12.807  12.715  71.398  1.00  0.00    -0.328 NA 
HETATM    9  C   UNL     1     -11.702  12.474  68.850  1.00  0.00    -0.367 A  
HETATM   10  C   UNL     1     -12.633  11.504  70.836  1.00  0.00    -0.341 A  
HETATM   11  H2  UNL     1     -12.169   9.852  71.767  1.00  0.00     0.000 HD 
HETATM   12  N   UNL     1     -12.987  10.454  71.679  1.00  0.00    -0.442 NA 
BRANCH   6  13
HETATM   13  C   UNL     1     -11.384  14.942  68.757  1.00  0.00    -0.304 A  
HETATM   14  N   UNL     1     -10.612  16.380  67.171  1.00  0.00    -0.302 NA 
HETATM   15  C   UNL     1     -10.994  15.131  67.417  1.00  0.00    -0.314 A  
HETATM   16  C   UNL     1     -11.228  16.186  69.336  1.00  0.00    -0.335 A  
HETATM   17  N   UNL     1     -10.740  17.007  68.353  1.00  0.00    -0.367 NA 
BRANCH  17  18
HETATM   18  C   UNL     1     -10.344  18.409  68.492  1.00  0.00    -0.294 C  
HETATM   19  C   UNL     1      -8.820  18.587  68.534  1.00  0.00    -0.351 C  
HETATM   20  C   UNL     1      -8.180  18.478  67.150  1.00  0.00    -0.252 C  
HETATM   21  N   UNL     1      -8.802  19.390  66.188  1.00  0.00    -0.422 NA 
HETATM   22  C   UNL     1     -10.243  19.165  66.067  1.00  0.00    -0.424 C  
HETATM   23  H   UNL     1      -8.342  19.337  65.279  1.00  0.00     0.000 HD 
HETATM   24  C   UNL     1     -10.956  19.306  67.410  1.00  0.00    -0.445 C  
ENDBRANCH  17  18
ENDBRANCH   6  13
ENDBRANCH   3   4
ENDBRANCH   2   3
BRANCH   2  25
HETATM   25  C   UNL     1     -10.473   8.194  68.352  1.00  0.00    -0.205 A  
HETATM   26 CL   UNL     1     -11.288   6.101  69.983  1.00  0.00    -0.475 Cl 
HETATM   27  C   UNL     1      -9.981   8.615  67.090  1.00  0.00    -0.231 A  
HETATM   28 CL   UNL     1      -9.834  10.287  66.652  1.00  0.00    -0.244 Cl 
HETATM   29  F   UNL     1     -10.288   4.573  67.764  1.00  0.00    -0.153 F  
HETATM   30  C   UNL     1      -9.601   7.696  66.102  1.00  0.00    -0.077 A  
HETATM   31  C   UNL     1      -9.698   6.333  66.343  1.00  0.00    -0.146 A  
HETATM   32  C   UNL     1     -10.598   6.802  68.557  1.00  0.00    -0.225 A  
HETATM   33  C   UNL     1     -10.194   5.896  67.562  1.00  0.00    -0.190 A  
ENDBRANCH   2  25
TORSDOF 5
ENDMDL
MODEL      102
REMARK 921   NORMALIZED FREE ENERGY PREDICTED BY IDOCK:   -6.08 KCAL/MOL
REMARK 922        TOTAL FREE ENERGY PREDICTED BY IDOCK:   -8.53 KCAL/MOL
REMARK 923 INTER-LIGAND FREE ENERGY PREDICTED BY IDOCK:   -8.83 KCAL/MOL
REMARK 924 INTRA-LIGAND FREE ENERGY PREDICTED BY IDOCK:    0.29 KCAL/MOL
REMARK 927      BINDING AFFINITY PREDICTED BY RF-SCORE:    0.00 PKD
ROOT
HETATM    1  C   UNL     1     -12.616  12.050  64.452  1.00  0.00    -0.292 C  
HETATM    2  C   UNL     1     -11.171  12.437  64.772  1.00  0.00    -0.310 C  
ENDROOT
BRANCH   2   3
HETATM    3  O   UNL     1     -11.229  13.423  65.805  1.00  0.00    -0.289 OA 
BRANCH   3   4
HETATM    4  C   UNL     1     -11.008  14.740  65.524  1.00  0.00    -0.346 A  
HETATM    5  C   UNL     1     -10.453  17.396  65.281  1.00  0.00     0.138 A  
HETATM    6  C   UNL     1      -9.793  16.693  66.282  1.00  0.00    -0.329 A  
HETATM    7  H1  UNL     1     -13.106  15.697  63.028  1.00  0.00     0.000 HD 
HETATM    8  N   UNL     1     -11.355  16.856  64.428  1.00  0.00    -1.090 NA 
HETATM    9  C   UNL     1     -10.084  15.338  66.390  1.00  0.00    -0.287 A  
HETATM   10  C   UNL     1     -11.639  15.548  64.576  1.00  0.00    -0.283 A  
HETATM   11  H2  UNL     1     -13.377  14.703  64.303  1.00  0.00     0.000 HD 
HETATM   12  N   UNL     1     -12.645  15.107  63.721  1.00  0.00    -0.586 NA 
BRANCH   6  13
HETATM   13  C   UNL     1      -8.888  17.371  67.185  1.00  0.00    -0.242 A  
HETATM   14  N   UNL     1      -8.086  18.693  68.856  1.00  0.00    -0.261 NA 
HETATM   15  C   UNL     1      -9.181  18.238  68.256  1.00  0.00    -0.309 A  
HETATM   16  C   UNL     1      -7.508  17.307  67.168  1.00  0.00    -0.179 A  
HETATM   17  N   UNL     1      -7.074  18.134  68.171  1.00  0.00    -0.228 NA 
BRANCH  17  18
HETATM   18  C   UNL     1      -5.687  18.458  68.507  1.00  0.00    -0.181 C  
HETATM   19  C   UNL     1      -5.140  19.629  67.678  1.00  0.00    -0.173 C  
HETATM   20  C   UNL     1      -5.644  20.984  68.177  1.00  0.00    -0.329 C  
HETATM   21  N   UNL     1      -5.386  21.170  69.605  1.00  0.00    -0.434 NA 
HETATM   22  C   UNL     1      -5.986  20.109  70.417  1.00  0.00    -0.354 C  
HETATM   23  H   UNL     1      -5.691  22.091  69.919  1.00  0.00     0.000 HD 
HETATM   24  C   UNL     1      -5.489  18.726  70.003  1.00  0.00    -0.237 C  
ENDBRANCH  17  18
ENDBRANCH   6  13
ENDBRANCH   3   4
ENDBRANCH   2   3
BRANCH   2  25
HETATM   25  C   UNL     1     -10.360  11.203  65.174  1.00  0.00    -0.354 A  
HETATM   26 CL   UNL     1      -8.922  11.215  62.799  1.00  0.00    -0.324 Cl 
HETATM   27  C   UNL     1     -10.553  10.638  66.460  1.00  0.00    -0.193 A  
HETATM   28 CL   UNL     1     -11.661  11.302  67.618  1.00  0.00    -0.331 Cl 
HETATM   29  F   UNL     1      -7.779   8.867  63.999  1.00  0.00    -0.107 F  
HETATM   30  C   UNL     1      -9.836   9.511  66.887  1.00  0.00    -0.262 A  
HETATM   31  C   UNL     1      -8.910   8.913  66.045  1.00  0.00    -0.206 A  
HETATM   32  C   UNL     1      -9.383  10.599  64.351  1.00  0.00    -0.251 A  
HETATM   33  C   UNL     1      -8.689   9.458  64.789  1.00  0.00    -0.197 A  
ENDBRANCH   2  25
TORSDOF 5
ENDMDL
MODEL      103
REMARK 921   NORMALIZED FREE ENERGY PREDICTED BY IDOCK:   -6.08 KCAL/MOL
REMARK 922        TOTAL FREE ENERGY PREDICTED BY IDOCK:   -8.52 KCAL/MOL
REMARK 923 INTER-LIGAND FREE ENERGY PREDICTED BY IDOCK:   -7.88 KCAL/MOL
REMARK 924 INTRA-LIGAND FREE ENERGY PREDICTED BY IDOCK:   -0.65 KCAL/MOL
REMARK 927      BINDING AFFINITY PREDICTED BY RF-SCORE:    0.00 PKD
ROOT
HETATM    1  C   UNL     1      -7.313   8.580  66.973  1.00  0.00    -0.084 C  
HETATM    2  C   UNL     1      -8.788   8.983  66.959  1.00  0.00    -0.119 C  
ENDROOT
BRANCH   2   3
HETATM    3  O   UNL     1      -9.205   8.970  65.593  1.00  0.00    -0.216 OA 
BRANCH   3   4
HETATM    4  C   UNL     1      -9.481  10.135  64.937  1.00  0.00    -0.289 A  
HETATM    5  C   UNL     1     -10.191  12.557  63.911  1.00  0.00    -0.360 A  
HETATM    6  C   UNL     1     -10.157  12.432  65.295  1.00  0.00    -0.285 A  
HETATM    7  H1  UNL     1      -9.468   9.540  61.592  1.00  0.00     0.000 HD 
HETATM    8  N   UNL     1      -9.904  11.559  63.042  1.00  0.00    -0.376 NA 
HETATM    9  C   UNL     1      -9.789  11.192  65.802  1.00  0.00    -0.279 A  
HETATM   10  C   UNL     1      -9.579  10.360  63.563  1.00  0.00    -0.310 A  
HETATM   11  H2  UNL     1     -10.035   8.613  62.820  1.00  0.00     0.000 HD 
HETATM   12  N   UNL     1      -9.396   9.375  62.596  1.00  0.00     0.007 NA 
BRANCH   6  13
HETATM   13  C   UNL     1     -10.539  13.541  66.143  1.00  0.00    -0.290 A  
HETATM   14  N   UNL     1     -11.778  14.967  67.414  1.00  0.00    -0.339 NA 
HETATM   15  C   UNL     1     -11.798  13.849  66.695  1.00  0.00    -0.420 A  
HETATM   16  C   UNL     1      -9.715  14.557  66.588  1.00  0.00    -0.273 A  
HETATM   17  N   UNL     1     -10.508  15.398  67.324  1.00  0.00    -0.276 NA 
BRANCH  17  18
HETATM   18  C   UNL     1     -10.112  16.661  67.947  1.00  0.00    -0.270 C  
HETATM   19  C   UNL     1      -8.596  16.892  67.895  1.00  0.00    -0.208 C  
HETATM   20  C   UNL     1      -8.122  17.352  66.516  1.00  0.00    -0.277 C  
HETATM   21  N   UNL     1      -8.861  18.526  66.048  1.00  0.00    -0.489 NA 
HETATM   22  C   UNL     1     -10.304  18.286  66.002  1.00  0.00    -0.363 C  
HETATM   23  H   UNL     1      -8.511  18.848  65.146  1.00  0.00     0.000 HD 
HETATM   24  C   UNL     1     -10.856  17.868  67.363  1.00  0.00    -0.218 C  
ENDBRANCH  17  18
ENDBRANCH   6  13
ENDBRANCH   3   4
ENDBRANCH   2   3
BRANCH   2  25
HETATM   25  C   UNL     1      -9.611   8.041  67.841  1.00  0.00    -0.178 A  
HETATM   26 CL   UNL     1     -10.325  10.083  69.581  1.00  0.00    -0.252 Cl 
HETATM   27  C   UNL     1      -9.755   6.684  67.455  1.00  0.00    -0.128 A  
HETATM   28 CL   UNL     1      -9.053   6.043  66.004  1.00  0.00    -0.159 Cl 
HETATM   29  F   UNL     1     -11.630   7.892  70.907  1.00  0.00    -0.275 F  
HETATM   30  C   UNL     1     -10.500   5.775  68.218  1.00  0.00    -0.281 A  
HETATM   31  C   UNL     1     -11.120   6.189  69.388  1.00  0.00    -0.479 A  
HETATM   32  C   UNL     1     -10.285   8.446  69.015  1.00  0.00    -0.207 A  
HETATM   33  C   UNL     1     -11.010   7.516  69.777  1.00  0.00    -0.184 A  
ENDBRANCH   2  25
TORSDOF 5
ENDMDL
MODEL      104
REMARK 921   NORMALIZED FREE ENERGY PREDICTED BY IDOCK:   -6.06 KCAL/MOL
REMARK 922        TOTAL FREE ENERGY PREDICTED BY IDOCK:   -8.51 KCAL/MOL
REMARK 923 INTER-LIGAND FREE ENERGY PREDICTED BY IDOCK:   -8.12 KCAL/MOL
REMARK 924 INTRA-LIGAND FREE ENERGY PREDICTED BY IDOCK:   -0.38 KCAL/MOL
REMARK 927      BINDING AFFINITY PREDICTED BY RF-SCORE:    0.00 PKD
ROOT
HETATM    1  C   UNL     1      -6.796   7.146  70.665  1.00  0.00    -0.053 C  
HETATM    2  C   UNL     1      -8.323   7.145  70.575  1.00  0.00    -0.131 C  
ENDROOT
BRANCH   2   3
HETATM    3  O   UNL     1      -8.786   8.182  71.442  1.00  0.00    -0.131 OA 
BRANCH   3   4
HETATM    4  C   UNL     1     -10.104   8.536  71.463  1.00  0.00    -0.245 A  
HETATM    5  C   UNL     1     -12.627   9.563  71.469  1.00  0.00    -0.373 A  
HETATM    6  C   UNL     1     -11.624  10.332  70.890  1.00  0.00    -0.454 A  
HETATM    7  H1  UNL     1     -11.850   6.166  73.159  1.00  0.00     0.000 HD 
HETATM    8  N   UNL     1     -12.435   8.348  72.034  1.00  0.00    -0.339 NA 
HETATM    9  C   UNL     1     -10.343   9.792  70.892  1.00  0.00    -0.245 A  
HETATM   10  C   UNL     1     -11.179   7.864  72.047  1.00  0.00    -0.287 A  
HETATM   11  H2  UNL     1     -10.366   6.793  73.462  1.00  0.00     0.000 HD 
HETATM   12  N   UNL     1     -11.065   6.657  72.732  1.00  0.00    -0.257 NA 
BRANCH   6  13
HETATM   13  C   UNL     1     -11.916  11.648  70.363  1.00  0.00    -0.448 A  
HETATM   14  N   UNL     1     -12.107  13.416  68.941  1.00  0.00    -0.309 NA 
HETATM   15  C   UNL     1     -11.747  12.141  69.054  1.00  0.00    -0.322 A  
HETATM   16  C   UNL     1     -12.428  12.720  71.067  1.00  0.00    -0.277 A  
HETATM   17  N   UNL     1     -12.501  13.762  70.179  1.00  0.00    -0.303 NA 
BRANCH  17  18
HETATM   18  C   UNL     1     -12.914  15.136  70.464  1.00  0.00    -0.321 C  
HETATM   19  C   UNL     1     -14.071  15.205  71.471  1.00  0.00    -0.636 C  
HETATM   20  C   UNL     1     -13.607  14.979  72.910  1.00  0.00    -0.426 C  
HETATM   21  N   UNL     1     -12.517  15.884  73.281  1.00  0.00    -0.467 NA 
HETATM   22  C   UNL     1     -11.367  15.759  72.383  1.00  0.00    -0.103 C  
HETATM   23  H   UNL     1     -12.242  15.751  74.253  1.00  0.00     0.000 HD 
HETATM   24  C   UNL     1     -11.750  16.019  70.928  1.00  0.00    -0.438 C  
ENDBRANCH  17  18
ENDBRANCH   6  13
ENDBRANCH   3   4
ENDBRANCH   2   3
BRANCH   2  25
HETATM   25  C   UNL     1      -8.776   7.336  69.126  1.00  0.00    -0.136 A  
HETATM   26 CL   UNL     1     -10.670   5.314  69.315  1.00  0.00    -0.200 Cl 
HETATM   27  C   UNL     1      -8.203   8.379  68.355  1.00  0.00    -0.124 A  
HETATM   28 CL   UNL     1      -7.019   9.473  68.993  1.00  0.00    -0.057 Cl 
HETATM   29  F   UNL     1     -11.054   6.027  66.557  1.00  0.00    -0.357 F  
HETATM   30  C   UNL     1      -8.581   8.606  67.024  1.00  0.00    -0.120 A  
HETATM   31  C   UNL     1      -9.536   7.800  66.422  1.00  0.00    -0.245 A  
HETATM   32  C   UNL     1      -9.774   6.554  68.501  1.00  0.00    -0.129 A  
HETATM   33  C   UNL     1     -10.124   6.784  67.161  1.00  0.00    -0.190 A  
ENDBRANCH   2  25
TORSDOF 5
ENDMDL
MODEL      105
REMARK 921   NORMALIZED FREE ENERGY PREDICTED BY IDOCK:   -6.05 KCAL/MOL
REMARK 922        TOTAL FREE ENERGY PREDICTED BY IDOCK:   -8.49 KCAL/MOL
REMARK 923 INTER-LIGAND FREE ENERGY PREDICTED BY IDOCK:   -7.21 KCAL/MOL
REMARK 924 INTRA-LIGAND FREE ENERGY PREDICTED BY IDOCK:   -1.28 KCAL/MOL
REMARK 927      BINDING AFFINITY PREDICTED BY RF-SCORE:    0.00 PKD
ROOT
HETATM    1  C   UNL     1     -11.870  13.483  66.393  1.00  0.00    -0.435 C  
HETATM    2  C   UNL     1     -10.932  12.893  67.448  1.00  0.00    -0.260 C  
ENDROOT
BRANCH   2   3
HETATM    3  O   UNL     1      -9.732  13.669  67.410  1.00  0.00    -0.220 OA 
BRANCH   3   4
HETATM    4  C   UNL     1      -8.516  13.066  67.268  1.00  0.00    -0.199 A  
HETATM    5  C   UNL     1      -6.245  11.574  67.073  1.00  0.00    -0.134 A  
HETATM    6  C   UNL     1      -7.460  10.904  66.988  1.00  0.00    -0.122 A  
HETATM    7  H1  UNL     1      -6.080  15.388  67.727  1.00  0.00     0.000 HD 
HETATM    8  N   UNL     1      -6.114  12.910  67.252  1.00  0.00    -0.308 NA 
HETATM    9  C   UNL     1      -8.609  11.680  67.085  1.00  0.00    -0.164 A  
HETATM   10  C   UNL     1      -7.244  13.631  67.372  1.00  0.00    -0.091 A  
HETATM   11  H2  UNL     1      -7.505  15.193  68.514  1.00  0.00     0.000 HD 
HETATM   12  N   UNL     1      -7.009  14.975  67.650  1.00  0.00    -0.169 NA 
BRANCH   6  13
HETATM   13  C   UNL     1      -7.499   9.464  66.855  1.00  0.00    -0.091 A  
HETATM   14  N   UNL     1      -7.167   7.354  66.066  1.00  0.00    -0.069 NA 
HETATM   15  C   UNL     1      -6.894   8.642  65.883  1.00  0.00    -0.068 A  
HETATM   16  C   UNL     1      -8.169   8.580  67.677  1.00  0.00    -0.118 A  
HETATM   17  N   UNL     1      -7.961   7.332  67.150  1.00  0.00    -0.109 NA 
BRANCH  17  18
HETATM   18  C   UNL     1      -8.526   6.069  67.626  1.00  0.00    -0.107 C  
HETATM   19  C   UNL     1      -9.942   6.236  68.193  1.00  0.00    -0.149 C  
HETATM   20  C   UNL     1     -11.000   6.368  67.096  1.00  0.00    -0.399 C  
HETATM   21  N   UNL     1     -10.931   5.265  66.137  1.00  0.00    -0.756 NA 
HETATM   22  C   UNL     1      -9.610   5.156  65.516  1.00  0.00    -0.043 C  
HETATM   23  H   UNL     1     -11.665   5.342  65.432  1.00  0.00     0.000 HD 
HETATM   24  C   UNL     1      -8.506   4.972  66.555  1.00  0.00    -0.110 C  
ENDBRANCH  17  18
ENDBRANCH   6  13
ENDBRANCH   3   4
ENDBRANCH   2   3
BRANCH   2  25
HETATM   25  C   UNL     1     -11.600  12.898  68.825  1.00  0.00    -0.351 A  
HETATM   26 CL   UNL     1     -11.849  15.663  68.839  1.00  0.00    -0.390 Cl 
HETATM   27  C   UNL     1     -11.881  11.661  69.460  1.00  0.00    -0.348 A  
HETATM   28 CL   UNL     1     -11.520  10.130  68.730  1.00  0.00    -0.173 Cl 
HETATM   29  F   UNL     1     -12.954  15.103  71.433  1.00  0.00    -0.335 F  
HETATM   30  C   UNL     1     -12.495  11.601  70.718  1.00  0.00    -0.425 A  
HETATM   31  C   UNL     1     -12.843  12.768  71.382  1.00  0.00    -0.371 A  
HETATM   32  C   UNL     1     -12.000  14.070  69.505  1.00  0.00    -0.339 A  
HETATM   33  C   UNL     1     -12.596  13.990  70.774  1.00  0.00    -0.360 A  
ENDBRANCH   2  25
TORSDOF 5
ENDMDL
MODEL      106
REMARK 921   NORMALIZED FREE ENERGY PREDICTED BY IDOCK:   -6.04 KCAL/MOL
REMARK 922        TOTAL FREE ENERGY PREDICTED BY IDOCK:   -8.48 KCAL/MOL
REMARK 923 INTER-LIGAND FREE ENERGY PREDICTED BY IDOCK:   -7.35 KCAL/MOL
REMARK 924 INTRA-LIGAND FREE ENERGY PREDICTED BY IDOCK:   -1.12 KCAL/MOL
REMARK 927      BINDING AFFINITY PREDICTED BY RF-SCORE:    0.00 PKD
ROOT
HETATM    1  C   UNL     1      -8.717   6.343  70.798  1.00  0.00    -0.140 C  
HETATM    2  C   UNL     1      -9.512   7.353  69.969  1.00  0.00    -0.161 C  
ENDROOT
BRANCH   2   3
HETATM    3  O   UNL     1      -9.542   8.568  70.720  1.00  0.00    -0.166 OA 
BRANCH   3   4
HETATM    4  C   UNL     1     -10.658   9.353  70.732  1.00  0.00    -0.303 A  
HETATM    5  C   UNL     1     -12.694  11.159  70.611  1.00  0.00    -0.263 A  
HETATM    6  C   UNL     1     -11.625  11.341  69.742  1.00  0.00    -0.408 A  
HETATM    7  H1  UNL     1     -12.715   8.299  73.222  1.00  0.00     0.000 HD 
HETATM    8  N   UNL     1     -12.789  10.156  71.514  1.00  0.00    -0.405 NA 
HETATM    9  C   UNL     1     -10.596  10.409  69.813  1.00  0.00    -0.302 A  
HETATM   10  C   UNL     1     -11.765   9.285  71.581  1.00  0.00    -0.392 A  
HETATM   11  H2  UNL     1     -11.080   8.423  73.193  1.00  0.00     0.000 HD 
HETATM   12  N   UNL     1     -11.907   8.348  72.601  1.00  0.00    -0.366 NA 
BRANCH   6  13
HETATM   13  C   UNL     1     -11.585  12.481  68.851  1.00  0.00    -0.364 A  
HETATM   14  N   UNL     1     -11.651  13.757  66.967  1.00  0.00    -0.345 NA 
HETATM   15  C   UNL     1     -11.785  12.529  67.457  1.00  0.00    -0.374 A  
HETATM   16  C   UNL     1     -11.325  13.791  69.202  1.00  0.00    -0.281 A  
HETATM   17  N   UNL     1     -11.350  14.512  68.038  1.00  0.00    -0.291 NA 
BRANCH  17  18
HETATM   18  C   UNL     1     -11.063  15.938  67.878  1.00  0.00    -0.317 C  
HETATM   19  C   UNL     1     -10.267  16.513  69.058  1.00  0.00    -0.285 C  
HETATM   20  C   UNL     1      -8.785  16.143  68.999  1.00  0.00    -0.254 C  
HETATM   21  N   UNL     1      -8.182  16.507  67.716  1.00  0.00    -0.163 NA 
HETATM   22  C   UNL     1      -8.874  15.887  66.585  1.00  0.00    -0.281 C  
HETATM   23  H   UNL     1      -7.185  16.292  67.701  1.00  0.00     0.000 HD 
HETATM   24  C   UNL     1     -10.357  16.254  66.554  1.00  0.00    -0.310 C  
ENDBRANCH  17  18
ENDBRANCH   6  13
ENDBRANCH   3   4
ENDBRANCH   2   3
BRANCH   2  25
HETATM   25  C   UNL     1      -8.885   7.525  68.584  1.00  0.00    -0.127 A  
HETATM   26 CL   UNL     1      -6.586   8.681  69.625  1.00  0.00    -0.039 Cl 
HETATM   27  C   UNL     1      -9.573   7.028  67.448  1.00  0.00    -0.135 A  
HETATM   28 CL   UNL     1     -11.096   6.205  67.560  1.00  0.00    -0.395 Cl 
HETATM   29  F   UNL     1      -5.939   8.844  66.830  1.00  0.00    -0.049 F  
HETATM   30  C   UNL     1      -9.048   7.152  66.154  1.00  0.00    -0.155 A  
HETATM   31  C   UNL     1      -7.826   7.777  65.954  1.00  0.00    -0.102 A  
HETATM   32  C   UNL     1      -7.625   8.122  68.356  1.00  0.00    -0.105 A  
HETATM   33  C   UNL     1      -7.124   8.255  67.051  1.00  0.00    -0.079 A  
ENDBRANCH   2  25
TORSDOF 5
ENDMDL
MODEL      107
REMARK 921   NORMALIZED FREE ENERGY PREDICTED BY IDOCK:   -6.01 KCAL/MOL
REMARK 922        TOTAL FREE ENERGY PREDICTED BY IDOCK:   -8.44 KCAL/MOL
REMARK 923 INTER-LIGAND FREE ENERGY PREDICTED BY IDOCK:   -7.93 KCAL/MOL
REMARK 924 INTRA-LIGAND FREE ENERGY PREDICTED BY IDOCK:   -0.51 KCAL/MOL
REMARK 927      BINDING AFFINITY PREDICTED BY RF-SCORE:    0.00 PKD
ROOT
HETATM    1  C   UNL     1      -9.933   4.783  69.345  1.00  0.00    -0.269 C  
HETATM    2  C   UNL     1      -9.334   6.175  69.141  1.00  0.00    -0.126 C  
ENDROOT
BRANCH   2   3
HETATM    3  O   UNL     1     -10.011   6.753  68.023  1.00  0.00    -0.137 OA 
BRANCH   3   4
HETATM    4  C   UNL     1      -9.312   7.211  66.945  1.00  0.00    -0.155 A  
HETATM    5  C   UNL     1      -8.178   8.333  64.736  1.00  0.00    -0.144 A  
HETATM    6  C   UNL     1      -9.167   9.061  65.388  1.00  0.00    -0.241 A  
HETATM    7  H1  UNL     1      -7.182   4.778  65.904  1.00  0.00     0.000 HD 
HETATM    8  N   UNL     1      -7.747   7.108  65.117  1.00  0.00    -0.108 NA 
HETATM    9  C   UNL     1      -9.732   8.476  66.515  1.00  0.00    -0.330 A  
HETATM   10  C   UNL     1      -8.334   6.554  66.195  1.00  0.00    -0.129 A  
HETATM   11  H2  UNL     1      -8.721   4.658  66.458  1.00  0.00     0.000 HD 
HETATM   12  N   UNL     1      -7.896   5.258  66.452  1.00  0.00    -0.103 NA 
BRANCH   6  13
HETATM   13  C   UNL     1      -9.602  10.340  64.870  1.00  0.00    -0.365 A  
HETATM   14  N   UNL     1     -10.263  11.985  63.441  1.00  0.00    -0.445 NA 
HETATM   15  C   UNL     1      -9.915  10.706  63.546  1.00  0.00    -0.285 A  
HETATM   16  C   UNL     1      -9.795  11.498  65.597  1.00  0.00    -0.236 A  
HETATM   17  N   UNL     1     -10.166  12.460  64.694  1.00  0.00    -0.296 NA 
BRANCH  17  18
HETATM   18  C   UNL     1     -10.414  13.876  64.967  1.00  0.00    -0.410 C  
HETATM   19  C   UNL     1     -11.845  14.302  64.608  1.00  0.00    -0.459 C  
HETATM   20  C   UNL     1     -12.867  13.856  65.654  1.00  0.00    -0.424 C  
HETATM   21  N   UNL     1     -12.498  14.296  67.000  1.00  0.00    -0.543 NA 
HETATM   22  C   UNL     1     -11.172  13.815  67.393  1.00  0.00    -0.310 C  
HETATM   23  H   UNL     1     -13.205  14.027  67.684  1.00  0.00     0.000 HD 
HETATM   24  C   UNL     1     -10.089  14.265  66.414  1.00  0.00    -0.295 C  
ENDBRANCH  17  18
ENDBRANCH   6  13
ENDBRANCH   3   4
ENDBRANCH   2   3
BRANCH   2  25
HETATM   25  C   UNL     1      -9.467   7.011  70.415  1.00  0.00    -0.162 A  
HETATM   26 CL   UNL     1     -12.222   6.682  70.499  1.00  0.00    -0.343 Cl 
HETATM   27  C   UNL     1      -8.295   7.507  71.041  1.00  0.00    -0.113 A  
HETATM   28 CL   UNL     1      -6.702   7.186  70.435  1.00  0.00    -0.051 Cl 
HETATM   29  F   UNL     1     -11.907   8.380  72.796  1.00  0.00    -0.452 F  
HETATM   30  C   UNL     1      -8.352   8.275  72.213  1.00  0.00    -0.229 A  
HETATM   31  C   UNL     1      -9.577   8.574  72.791  1.00  0.00    -0.243 A  
HETATM   32  C   UNL     1     -10.698   7.298  71.047  1.00  0.00    -0.231 A  
HETATM   33  C   UNL     1     -10.737   8.085  72.209  1.00  0.00    -0.296 A  
ENDBRANCH   2  25
TORSDOF 5
ENDMDL
MODEL      108
REMARK 921   NORMALIZED FREE ENERGY PREDICTED BY IDOCK:   -6.00 KCAL/MOL
REMARK 922        TOTAL FREE ENERGY PREDICTED BY IDOCK:   -8.42 KCAL/MOL
REMARK 923 INTER-LIGAND FREE ENERGY PREDICTED BY IDOCK:   -8.11 KCAL/MOL
REMARK 924 INTRA-LIGAND FREE ENERGY PREDICTED BY IDOCK:   -0.31 KCAL/MOL
REMARK 927      BINDING AFFINITY PREDICTED BY RF-SCORE:    0.00 PKD
ROOT
HETATM    1  C   UNL     1     -10.692  10.946  69.318  1.00  0.00    -0.271 C  
HETATM    2  C   UNL     1     -10.867  12.151  68.393  1.00  0.00    -0.224 C  
ENDROOT
BRANCH   2   3
HETATM    3  O   UNL     1     -11.820  11.770  67.398  1.00  0.00    -0.590 OA 
BRANCH   3   4
HETATM    4  C   UNL     1     -11.563  11.972  66.073  1.00  0.00    -0.305 A  
HETATM    5  C   UNL     1     -10.756  12.220  63.483  1.00  0.00    -0.451 A  
HETATM    6  C   UNL     1     -10.155  11.227  64.249  1.00  0.00    -0.366 A  
HETATM    7  H1  UNL     1     -13.356  14.653  65.005  1.00  0.00     0.000 HD 
HETATM    8  N   UNL     1     -11.704  13.072  63.936  1.00  0.00    -0.437 NA 
HETATM    9  C   UNL     1     -10.581  11.111  65.567  1.00  0.00    -0.289 A  
HETATM   10  C   UNL     1     -12.076  12.956  65.225  1.00  0.00    -0.453 A  
HETATM   11  H2  UNL     1     -12.570  14.415  66.424  1.00  0.00     0.000 HD 
HETATM   12  N   UNL     1     -12.982  13.934  65.624  1.00  0.00    -0.619 NA 
BRANCH   6  13
HETATM   13  C   UNL     1      -9.106  10.401  63.692  1.00  0.00    -0.277 A  
HETATM   14  N   UNL     1      -7.359   9.689  62.418  1.00  0.00    -0.108 NA 
HETATM   15  C   UNL     1      -8.165  10.710  62.690  1.00  0.00    -0.170 A  
HETATM   16  C   UNL     1      -8.815   9.096  64.040  1.00  0.00    -0.076 A  
HETATM   17  N   UNL     1      -7.779   8.706  63.233  1.00  0.00    -0.127 NA 
BRANCH  17  18
HETATM   18  C   UNL     1      -7.160   7.382  63.172  1.00  0.00    -0.070 C  
HETATM   19  C   UNL     1      -5.634   7.438  63.321  1.00  0.00    -0.045 C  
HETATM   20  C   UNL     1      -5.196   7.645  64.772  1.00  0.00    -0.029 C  
HETATM   21  N   UNL     1      -5.787   6.649  65.667  1.00  0.00    -0.029 NA 
HETATM   22  C   UNL     1      -7.250   6.650  65.605  1.00  0.00    -0.070 C  
HETATM   23  H   UNL     1      -5.458   6.772  66.625  1.00  0.00     0.000 HD 
HETATM   24  C   UNL     1      -7.760   6.401  64.187  1.00  0.00    -0.105 C  
ENDBRANCH  17  18
ENDBRANCH   6  13
ENDBRANCH   3   4
ENDBRANCH   2   3
BRANCH   2  25
HETATM   25  C   UNL     1     -11.300  13.383  69.190  1.00  0.00    -0.333 A  
HETATM   26 CL   UNL     1     -10.028  15.124  67.441  1.00  0.00    -0.226 Cl 
HETATM   27  C   UNL     1     -12.141  13.214  70.319  1.00  0.00    -0.328 A  
HETATM   28 CL   UNL     1     -12.724  11.663  70.829  1.00  0.00    -0.336 Cl 
HETATM   29  F   UNL     1     -11.020  17.044  69.336  1.00  0.00    -0.292 F  
HETATM   30  C   UNL     1     -12.575  14.305  71.087  1.00  0.00    -0.432 A  
HETATM   31  C   UNL     1     -12.182  15.592  70.753  1.00  0.00    -0.463 A  
HETATM   32  C   UNL     1     -10.947  14.709  68.850  1.00  0.00    -0.253 A  
HETATM   33  C   UNL     1     -11.375  15.786  69.642  1.00  0.00    -0.334 A  
ENDBRANCH   2  25
TORSDOF 5
ENDMDL
MODEL      109
REMARK 921   NORMALIZED FREE ENERGY PREDICTED BY IDOCK:   -5.99 KCAL/MOL
REMARK 922        TOTAL FREE ENERGY PREDICTED BY IDOCK:   -8.41 KCAL/MOL
REMARK 923 INTER-LIGAND FREE ENERGY PREDICTED BY IDOCK:   -8.20 KCAL/MOL
REMARK 924 INTRA-LIGAND FREE ENERGY PREDICTED BY IDOCK:   -0.21 KCAL/MOL
REMARK 927      BINDING AFFINITY PREDICTED BY RF-SCORE:    0.00 PKD
ROOT
HETATM    1  C   UNL     1     -10.100  16.132  65.651  1.00  0.00    -0.366 C  
HETATM    2  C   UNL     1      -9.922  16.496  67.125  1.00  0.00    -0.266 C  
ENDROOT
BRANCH   2   3
HETATM    3  O   UNL     1      -9.505  15.305  67.795  1.00  0.00    -0.196 OA 
BRANCH   3   4
HETATM    4  C   UNL     1     -10.400  14.546  68.490  1.00  0.00    -0.242 A  
HETATM    5  C   UNL     1     -12.083  12.769  69.688  1.00  0.00    -0.222 A  
HETATM    6  C   UNL     1     -10.968  12.255  69.036  1.00  0.00    -0.250 A  
HETATM    7  H1  UNL     1     -12.868  16.561  69.669  1.00  0.00     0.000 HD 
HETATM    8  N   UNL     1     -12.392  14.085  69.762  1.00  0.00    -0.331 NA 
HETATM    9  C   UNL     1     -10.117  13.175  68.434  1.00  0.00    -0.231 A  
HETATM   10  C   UNL     1     -11.566  14.950  69.144  1.00  0.00    -0.307 A  
HETATM   11  H2  UNL     1     -12.085  16.594  68.229  1.00  0.00     0.000 HD 
HETATM   12  N   UNL     1     -12.016  16.266  69.192  1.00  0.00    -0.110 NA 
BRANCH   6  13
HETATM   13  C   UNL     1     -10.752  10.826  68.960  1.00  0.00    -0.265 A  
HETATM   14  N   UNL     1     -10.567   8.706  68.152  1.00  0.00    -0.177 NA 
HETATM   15  C   UNL     1     -10.801   9.976  67.838  1.00  0.00    -0.271 A  
HETATM   16  C   UNL     1     -10.454   9.983  70.013  1.00  0.00    -0.287 A  
HETATM   17  N   UNL     1     -10.378   8.721  69.483  1.00  0.00    -0.209 NA 
BRANCH  17  18
HETATM   18  C   UNL     1     -10.154   7.472  70.211  1.00  0.00    -0.194 C  
HETATM   19  C   UNL     1      -9.904   7.701  71.708  1.00  0.00    -0.200 C  
HETATM   20  C   UNL     1     -11.192   7.993  72.479  1.00  0.00    -0.388 C  
HETATM   21  N   UNL     1     -12.207   6.963  72.255  1.00  0.00    -0.505 NA 
HETATM   22  C   UNL     1     -12.526   6.801  70.835  1.00  0.00    -0.213 C  
HETATM   23  H   UNL     1     -13.047   7.146  72.803  1.00  0.00     0.000 HD 
HETATM   24  C   UNL     1     -11.288   6.459  70.009  1.00  0.00    -0.496 C  
ENDBRANCH  17  18
ENDBRANCH   6  13
ENDBRANCH   3   4
ENDBRANCH   2   3
BRANCH   2  25
HETATM   25  C   UNL     1      -8.925  17.646  67.279  1.00  0.00    -0.242 A  
HETATM   26 CL   UNL     1      -6.744  15.928  67.276  1.00  0.00    -0.229 Cl 
HETATM   27  C   UNL     1      -9.405  18.981  67.283  1.00  0.00    -0.304 A  
HETATM   28 CL   UNL     1     -11.084  19.373  67.096  1.00  0.00    -0.449 Cl 
HETATM   29  F   UNL     1      -5.352  18.414  67.655  1.00  0.00    -0.148 F  
HETATM   30  C   UNL     1      -8.540  20.076  67.416  1.00  0.00    -0.403 A  
HETATM   31  C   UNL     1      -7.174  19.874  67.553  1.00  0.00    -0.304 A  
HETATM   32  C   UNL     1      -7.526  17.470  67.381  1.00  0.00    -0.195 A  
HETATM   33  C   UNL     1      -6.678  18.579  67.533  1.00  0.00    -0.202 A  
ENDBRANCH   2  25
TORSDOF 5
ENDMDL
MODEL      110
REMARK 921   NORMALIZED FREE ENERGY PREDICTED BY IDOCK:   -5.98 KCAL/MOL
REMARK 922        TOTAL FREE ENERGY PREDICTED BY IDOCK:   -8.40 KCAL/MOL
REMARK 923 INTER-LIGAND FREE ENERGY PREDICTED BY IDOCK:   -7.36 KCAL/MOL
REMARK 924 INTRA-LIGAND FREE ENERGY PREDICTED BY IDOCK:   -1.04 KCAL/MOL
REMARK 927      BINDING AFFINITY PREDICTED BY RF-SCORE:    0.00 PKD
ROOT
HETATM    1  C   UNL     1      -6.850   6.523  71.874  1.00  0.00    -0.068 C  
HETATM    2  C   UNL     1      -8.348   6.665  71.600  1.00  0.00    -0.115 C  
ENDROOT
BRANCH   2   3
HETATM    3  O   UNL     1      -8.652   8.057  71.694  1.00  0.00    -0.112 OA 
BRANCH   3   4
HETATM    4  C   UNL     1      -9.941   8.497  71.607  1.00  0.00    -0.259 A  
HETATM    5  C   UNL     1     -12.390   9.645  71.274  1.00  0.00    -0.360 A  
HETATM    6  C   UNL     1     -11.370  10.052  70.422  1.00  0.00    -0.392 A  
HETATM    7  H1  UNL     1     -11.748   7.101  74.123  1.00  0.00     0.000 HD 
HETATM    8  N   UNL     1     -12.248   8.727  72.259  1.00  0.00    -0.370 NA 
HETATM    9  C   UNL     1     -10.128   9.454  70.602  1.00  0.00    -0.356 A  
HETATM   10  C   UNL     1     -11.027   8.186  72.429  1.00  0.00    -0.345 A  
HETATM   11  H2  UNL     1     -10.212   7.676  74.128  1.00  0.00     0.000 HD 
HETATM   12  N   UNL     1     -10.955   7.328  73.523  1.00  0.00    -0.272 NA 
BRANCH   6  13
HETATM   13  C   UNL     1     -11.603  11.085  69.436  1.00  0.00    -0.383 A  
HETATM   14  N   UNL     1     -11.918  12.145  67.445  1.00  0.00    -0.570 NA 
HETATM   15  C   UNL     1     -11.727  10.971  68.037  1.00  0.00    -0.179 A  
HETATM   16  C   UNL     1     -11.746  12.437  69.679  1.00  0.00    -0.307 A  
HETATM   17  N   UNL     1     -11.907  13.032  68.455  1.00  0.00    -0.330 NA 
BRANCH  17  18
HETATM   18  C   UNL     1     -12.027  14.464  68.181  1.00  0.00    -0.285 C  
HETATM   19  C   UNL     1     -11.645  15.329  69.390  1.00  0.00    -0.347 C  
HETATM   20  C   UNL     1     -10.131  15.428  69.583  1.00  0.00    -0.269 C  
HETATM   21  N   UNL     1      -9.455  15.878  68.365  1.00  0.00    -0.197 NA 
HETATM   22  C   UNL     1      -9.735  15.005  67.224  1.00  0.00    -0.220 C  
HETATM   23  H   UNL     1      -8.451  15.978  68.516  1.00  0.00     0.000 HD 
HETATM   24  C   UNL     1     -11.232  14.897  66.943  1.00  0.00    -0.343 C  
ENDBRANCH  17  18
ENDBRANCH   6  13
ENDBRANCH   3   4
ENDBRANCH   2   3
BRANCH   2  25
HETATM   25  C   UNL     1      -8.703   6.069  70.236  1.00  0.00    -0.143 A  
HETATM   26 CL   UNL     1      -7.245   7.996  68.868  1.00  0.00    -0.074 Cl 
HETATM   27  C   UNL     1      -9.469   4.876  70.182  1.00  0.00    -0.172 A  
HETATM   28 CL   UNL     1     -10.004   4.042  71.605  1.00  0.00    -0.252 Cl 
HETATM   29  F   UNL     1      -8.285   6.543  66.617  1.00  0.00    -0.105 F  
HETATM   30  C   UNL     1      -9.822   4.281  68.963  1.00  0.00    -0.148 A  
HETATM   31  C   UNL     1      -9.428   4.857  67.764  1.00  0.00    -0.168 A  
HETATM   32  C   UNL     1      -8.282   6.614  69.002  1.00  0.00    -0.117 A  
HETATM   33  C   UNL     1      -8.663   6.014  67.791  1.00  0.00    -0.104 A  
ENDBRANCH   2  25
TORSDOF 5
ENDMDL
MODEL      111
REMARK 921   NORMALIZED FREE ENERGY PREDICTED BY IDOCK:   -5.96 KCAL/MOL
REMARK 922        TOTAL FREE ENERGY PREDICTED BY IDOCK:   -8.37 KCAL/MOL
REMARK 923 INTER-LIGAND FREE ENERGY PREDICTED BY IDOCK:   -8.45 KCAL/MOL
REMARK 924 INTRA-LIGAND FREE ENERGY PREDICTED BY IDOCK:    0.08 KCAL/MOL
REMARK 927      BINDING AFFINITY PREDICTED BY RF-SCORE:    0.00 PKD
ROOT
HETATM    1  C   UNL     1      -9.704   8.559  71.733  1.00  0.00    -0.337 C  
HETATM    2  C   UNL     1     -10.928   7.673  71.497  1.00  0.00    -0.233 C  
ENDROOT
BRANCH   2   3
HETATM    3  O   UNL     1     -11.763   8.365  70.567  1.00  0.00    -0.208 OA 
BRANCH   3   4
HETATM    4  C   UNL     1     -12.206   9.628  70.834  1.00  0.00    -0.285 A  
HETATM    5  C   UNL     1     -12.830  12.258  71.179  1.00  0.00    -0.207 A  
HETATM    6  C   UNL     1     -12.043  11.925  70.083  1.00  0.00    -0.382 A  
HETATM    7  H1  UNL     1     -13.961   9.584  73.743  1.00  0.00     0.000 HD 
HETATM    8  N   UNL     1     -13.299  11.370  72.087  1.00  0.00    -0.364 NA 
HETATM    9  C   UNL     1     -11.737  10.579  69.919  1.00  0.00    -0.372 A  
HETATM   10  C   UNL     1     -12.963  10.077  71.919  1.00  0.00    -0.447 A  
HETATM   11  H2  UNL     1     -12.590   8.784  73.333  1.00  0.00     0.000 HD 
HETATM   12  N   UNL     1     -13.409   9.256  72.951  1.00  0.00    -0.192 NA 
BRANCH   6  13
HETATM   13  C   UNL     1     -11.539  12.954  69.199  1.00  0.00    -0.375 A  
HETATM   14  N   UNL     1     -11.332  14.907  68.049  1.00  0.00    -0.311 NA 
HETATM   15  C   UNL     1     -12.053  14.240  68.943  1.00  0.00    -0.279 A  
HETATM   16  C   UNL     1     -10.418  12.871  68.396  1.00  0.00    -0.251 A  
HETATM   17  N   UNL     1     -10.350  14.054  67.709  1.00  0.00    -0.234 NA 
BRANCH  17  18
HETATM   18  C   UNL     1      -9.377  14.421  66.680  1.00  0.00    -0.278 C  
HETATM   19  C   UNL     1     -10.045  14.868  65.372  1.00  0.00    -0.400 C  
HETATM   20  C   UNL     1     -10.592  16.294  65.453  1.00  0.00    -0.352 C  
HETATM   21  N   UNL     1      -9.569  17.247  65.886  1.00  0.00    -0.527 NA 
HETATM   22  C   UNL     1      -8.990  16.883  67.181  1.00  0.00    -0.206 C  
HETATM   23  H   UNL     1      -9.933  18.199  65.899  1.00  0.00     0.000 HD 
HETATM   24  C   UNL     1      -8.381  15.483  67.160  1.00  0.00    -0.243 C  
ENDBRANCH  17  18
ENDBRANCH   6  13
ENDBRANCH   3   4
ENDBRANCH   2   3
BRANCH   2  25
HETATM   25  C   UNL     1     -10.504   6.289  70.999  1.00  0.00    -0.274 A  
HETATM   26 CL   UNL     1     -10.658   7.057  68.336  1.00  0.00    -0.234 Cl 
HETATM   27  C   UNL     1     -10.157   5.292  71.946  1.00  0.00    -0.197 A  
HETATM   28 CL   UNL     1     -10.171   5.578  73.656  1.00  0.00    -0.211 Cl 
HETATM   29  F   UNL     1      -9.926   4.302  67.964  1.00  0.00    -0.204 F  
HETATM   30  C   UNL     1      -9.757   4.007  71.552  1.00  0.00    -0.246 A  
HETATM   31  C   UNL     1      -9.693   3.679  70.205  1.00  0.00    -0.193 A  
HETATM   32  C   UNL     1     -10.393   5.941  69.635  1.00  0.00    -0.247 A  
HETATM   33  C   UNL     1     -10.008   4.643  69.260  1.00  0.00    -0.161 A  
ENDBRANCH   2  25
TORSDOF 5
ENDMDL
MODEL      112
REMARK 921   NORMALIZED FREE ENERGY PREDICTED BY IDOCK:   -5.95 KCAL/MOL
REMARK 922        TOTAL FREE ENERGY PREDICTED BY IDOCK:   -8.36 KCAL/MOL
REMARK 923 INTER-LIGAND FREE ENERGY PREDICTED BY IDOCK:   -7.63 KCAL/MOL
REMARK 924 INTRA-LIGAND FREE ENERGY PREDICTED BY IDOCK:   -0.72 KCAL/MOL
REMARK 927      BINDING AFFINITY PREDICTED BY RF-SCORE:    0.00 PKD
ROOT
HETATM    1  C   UNL     1      -9.488  11.373  63.033  1.00  0.00    -0.380 C  
HETATM    2  C   UNL     1     -10.045  10.887  64.372  1.00  0.00    -0.339 C  
ENDROOT
BRANCH   2   3
HETATM    3  O   UNL     1      -8.952  10.305  65.085  1.00  0.00    -0.167 OA 
BRANCH   3   4
HETATM    4  C   UNL     1      -8.836   8.950  65.198  1.00  0.00    -0.166 A  
HETATM    5  C   UNL     1      -8.671   6.288  65.755  1.00  0.00    -0.139 A  
HETATM    6  C   UNL     1      -9.379   7.085  66.646  1.00  0.00    -0.203 A  
HETATM    7  H1  UNL     1      -6.857   7.803  62.687  1.00  0.00     0.000 HD 
HETATM    8  N   UNL     1      -8.054   6.742  64.639  1.00  0.00    -0.116 NA 
HETATM    9  C   UNL     1      -9.458   8.440  66.345  1.00  0.00    -0.293 A  
HETATM   10  C   UNL     1      -8.122   8.064  64.390  1.00  0.00    -0.123 A  
HETATM   11  H2  UNL     1      -6.723   9.165  63.590  1.00  0.00     0.000 HD 
HETATM   12  N   UNL     1      -7.379   8.450  63.278  1.00  0.00    -0.100 NA 
BRANCH   6  13
HETATM   13  C   UNL     1      -9.956   6.517  67.845  1.00  0.00    -0.148 A  
HETATM   14  N   UNL     1     -10.507   5.048  69.495  1.00  0.00    -0.168 NA 
HETATM   15  C   UNL     1      -9.805   5.222  68.380  1.00  0.00    -0.153 A  
HETATM   16  C   UNL     1     -10.806   7.152  68.730  1.00  0.00    -0.120 A  
HETATM   17  N   UNL     1     -11.127   6.225  69.686  1.00  0.00    -0.378 NA 
BRANCH  17  18
HETATM   18  C   UNL     1     -12.057   6.396  70.803  1.00  0.00    -0.094 C  
HETATM   19  C   UNL     1     -11.492   5.859  72.125  1.00  0.00    -0.333 C  
HETATM   20  C   UNL     1     -10.467   6.806  72.751  1.00  0.00    -0.220 C  
HETATM   21  N   UNL     1     -10.999   8.161  72.904  1.00  0.00    -0.327 NA 
HETATM   22  C   UNL     1     -11.454   8.723  71.631  1.00  0.00    -0.316 C  
HETATM   23  H   UNL     1     -10.322   8.775  73.358  1.00  0.00     0.000 HD 
HETATM   24  C   UNL     1     -12.518   7.849  70.970  1.00  0.00    -0.143 C  
ENDBRANCH  17  18
ENDBRANCH   6  13
ENDBRANCH   3   4
ENDBRANCH   2   3
BRANCH   2  25
HETATM   25  C   UNL     1     -10.704  12.040  65.132  1.00  0.00    -0.332 A  
HETATM   26 CL   UNL     1      -8.464  12.445  66.721  1.00  0.00    -0.143 Cl 
HETATM   27  C   UNL     1     -11.999  12.471  64.746  1.00  0.00    -0.409 A  
HETATM   28 CL   UNL     1     -12.868  11.759  63.425  1.00  0.00    -0.539 Cl 
HETATM   29  F   UNL     1     -10.186  14.442  67.863  1.00  0.00    -0.223 F  
HETATM   30  C   UNL     1     -12.652  13.525  65.401  1.00  0.00    -0.531 A  
HETATM   31  C   UNL     1     -12.037  14.176  66.459  1.00  0.00    -0.481 A  
HETATM   32  C   UNL     1     -10.084  12.746  66.188  1.00  0.00    -0.266 A  
HETATM   33  C   UNL     1     -10.762  13.786  66.844  1.00  0.00    -0.280 A  
ENDBRANCH   2  25
TORSDOF 5
ENDMDL
MODEL      113
REMARK 921   NORMALIZED FREE ENERGY PREDICTED BY IDOCK:   -5.93 KCAL/MOL
REMARK 922        TOTAL FREE ENERGY PREDICTED BY IDOCK:   -8.33 KCAL/MOL
REMARK 923 INTER-LIGAND FREE ENERGY PREDICTED BY IDOCK:   -7.82 KCAL/MOL
REMARK 924 INTRA-LIGAND FREE ENERGY PREDICTED BY IDOCK:   -0.51 KCAL/MOL
REMARK 927      BINDING AFFINITY PREDICTED BY RF-SCORE:    0.00 PKD
ROOT
HETATM    1  C   UNL     1     -11.844  12.728  69.905  1.00  0.00    -0.371 C  
HETATM    2  C   UNL     1     -11.140  12.972  68.570  1.00  0.00    -0.266 C  
ENDROOT
BRANCH   2   3
HETATM    3  O   UNL     1     -12.126  12.810  67.549  1.00  0.00    -0.359 OA 
BRANCH   3   4
HETATM    4  C   UNL     1     -11.778  12.364  66.307  1.00  0.00    -0.395 A  
HETATM    5  C   UNL     1     -10.817  11.328  63.978  1.00  0.00    -0.344 A  
HETATM    6  C   UNL     1     -10.409  10.727  65.162  1.00  0.00    -0.341 A  
HETATM    7  H1  UNL     1     -13.097  14.459  63.981  1.00  0.00     0.000 HD 
HETATM    8  N   UNL     1     -11.649  12.394  63.903  1.00  0.00    -0.400 NA 
HETATM    9  C   UNL     1     -10.912  11.264  66.342  1.00  0.00    -0.285 A  
HETATM   10  C   UNL     1     -12.096  12.911  65.063  1.00  0.00    -0.435 A  
HETATM   11  H2  UNL     1     -12.426  14.799  65.438  1.00  0.00     0.000 HD 
HETATM   12  N   UNL     1     -12.864  14.059  64.890  1.00  0.00    -0.716 NA 
BRANCH   6  13
HETATM   13  C   UNL     1      -9.469   9.627  65.144  1.00  0.00    -0.332 A  
HETATM   14  N   UNL     1      -7.835   8.187  64.479  1.00  0.00    -0.131 NA 
HETATM   15  C   UNL     1      -8.517   9.284  64.164  1.00  0.00    -0.192 A  
HETATM   16  C   UNL     1      -9.321   8.656  66.115  1.00  0.00    -0.226 A  
HETATM   17  N   UNL     1      -8.349   7.804  65.660  1.00  0.00    -0.134 NA 
BRANCH  17  18
HETATM   18  C   UNL     1      -7.884   6.574  66.302  1.00  0.00    -0.105 C  
HETATM   19  C   UNL     1      -8.796   6.132  67.455  1.00  0.00    -0.106 C  
HETATM   20  C   UNL     1     -10.080   5.463  66.961  1.00  0.00    -0.203 C  
HETATM   21  N   UNL     1      -9.800   4.358  66.042  1.00  0.00    -0.210 NA 
HETATM   22  C   UNL     1      -9.010   4.788  64.887  1.00  0.00    -0.151 C  
HETATM   23  H   UNL     1     -10.660   3.895  65.750  1.00  0.00     0.000 HD 
HETATM   24  C   UNL     1      -7.687   5.425  65.307  1.00  0.00    -0.089 C  
ENDBRANCH  17  18
ENDBRANCH   6  13
ENDBRANCH   3   4
ENDBRANCH   2   3
BRANCH   2  25
HETATM   25  C   UNL     1     -10.486  14.355  68.551  1.00  0.00    -0.254 A  
HETATM   26 CL   UNL     1     -12.445  15.447  70.187  1.00  0.00    -0.394 Cl 
HETATM   27  C   UNL     1      -9.254  14.527  67.871  1.00  0.00    -0.196 A  
HETATM   28 CL   UNL     1      -8.434  13.224  67.073  1.00  0.00    -0.177 Cl 
HETATM   29  F   UNL     1     -10.875  17.811  69.736  1.00  0.00     0.004 F  
HETATM   30  C   UNL     1      -8.605  15.769  67.822  1.00  0.00    -0.164 A  
HETATM   31  C   UNL     1      -9.165  16.874  68.445  1.00  0.00    -0.253 A  
HETATM   32  C   UNL     1     -11.016  15.488  69.210  1.00  0.00    -0.268 A  
HETATM   33  C   UNL     1     -10.361  16.728  69.133  1.00  0.00    -0.326 A  
ENDBRANCH   2  25
TORSDOF 5
ENDMDL
MODEL      114
REMARK 921   NORMALIZED FREE ENERGY PREDICTED BY IDOCK:   -5.91 KCAL/MOL
REMARK 922        TOTAL FREE ENERGY PREDICTED BY IDOCK:   -8.31 KCAL/MOL
REMARK 923 INTER-LIGAND FREE ENERGY PREDICTED BY IDOCK:   -8.90 KCAL/MOL
REMARK 924 INTRA-LIGAND FREE ENERGY PREDICTED BY IDOCK:    0.59 KCAL/MOL
REMARK 927      BINDING AFFINITY PREDICTED BY RF-SCORE:    0.00 PKD
ROOT
HETATM    1  C   UNL     1     -11.883  12.761  69.739  1.00  0.00    -0.380 C  
HETATM    2  C   UNL     1     -11.379  11.503  69.031  1.00  0.00    -0.276 C  
ENDROOT
BRANCH   2   3
HETATM    3  O   UNL     1     -10.329  11.919  68.154  1.00  0.00    -0.187 OA 
BRANCH   3   4
HETATM    4  C   UNL     1     -10.459  13.047  67.397  1.00  0.00    -0.234 A  
HETATM    5  C   UNL     1     -10.563  15.461  66.138  1.00  0.00    -0.316 A  
HETATM    6  C   UNL     1      -9.610  15.300  67.137  1.00  0.00    -0.223 A  
HETATM    7  H1  UNL     1     -13.090  12.653  65.284  1.00  0.00     0.000 HD 
HETATM    8  N   UNL     1     -11.445  14.508  65.756  1.00  0.00    -0.340 NA 
HETATM    9  C   UNL     1      -9.566  14.061  67.766  1.00  0.00    -0.216 A  
HETATM   10  C   UNL     1     -11.399  13.328  66.404  1.00  0.00    -0.312 A  
HETATM   11  H2  UNL     1     -12.923  12.191  66.849  1.00  0.00     0.000 HD 
HETATM   12  N   UNL     1     -12.403  12.448  66.010  1.00  0.00    -0.551 NA 
BRANCH   6  13
HETATM   13  C   UNL     1      -8.748  16.399  67.517  1.00  0.00    -0.188 A  
HETATM   14  N   UNL     1      -7.927  18.236  68.581  1.00  0.00    -0.305 NA 
HETATM   15  C   UNL     1      -8.921  17.356  68.536  1.00  0.00    -0.276 A  
HETATM   16  C   UNL     1      -7.547  16.744  66.928  1.00  0.00    -0.217 A  
HETATM   17  N   UNL     1      -7.107  17.864  67.583  1.00  0.00    -0.193 NA 
BRANCH  17  18
HETATM   18  C   UNL     1      -5.911  18.650  67.278  1.00  0.00    -0.165 C  
HETATM   19  C   UNL     1      -5.798  18.993  65.787  1.00  0.00    -0.206 C  
HETATM   20  C   UNL     1      -6.730  20.134  65.377  1.00  0.00    -0.298 C  
HETATM   21  N   UNL     1      -6.544  21.319  66.216  1.00  0.00    -0.560 NA 
HETATM   22  C   UNL     1      -6.744  21.025  67.637  1.00  0.00    -0.341 C  
HETATM   23  H   UNL     1      -7.142  22.086  65.910  1.00  0.00     0.000 HD 
HETATM   24  C   UNL     1      -5.808  19.923  68.128  1.00  0.00    -0.257 C  
ENDBRANCH  17  18
ENDBRANCH   6  13
ENDBRANCH   3   4
ENDBRANCH   2   3
BRANCH   2  25
HETATM   25  C   UNL     1     -10.922  10.458  70.050  1.00  0.00    -0.370 A  
HETATM   26 CL   UNL     1     -13.385  10.441  71.331  1.00  0.00    -0.411 Cl 
HETATM   27  C   UNL     1      -9.623   9.900  69.933  1.00  0.00    -0.227 A  
HETATM   28 CL   UNL     1      -8.528  10.337  68.661  1.00  0.00    -0.120 Cl 
HETATM   29  F   UNL     1     -11.996   8.570  73.013  1.00  0.00    -0.393 F  
HETATM   30  C   UNL     1      -9.150   8.935  70.833  1.00  0.00    -0.283 A  
HETATM   31  C   UNL     1      -9.955   8.501  71.876  1.00  0.00    -0.365 A  
HETATM   32  C   UNL     1     -11.735   9.969  71.098  1.00  0.00    -0.387 A  
HETATM   33  C   UNL     1     -11.236   9.017  72.002  1.00  0.00    -0.309 A  
ENDBRANCH   2  25
TORSDOF 5
ENDMDL
MODEL      115
REMARK 921   NORMALIZED FREE ENERGY PREDICTED BY IDOCK:   -5.89 KCAL/MOL
REMARK 922        TOTAL FREE ENERGY PREDICTED BY IDOCK:   -8.29 KCAL/MOL
REMARK 923 INTER-LIGAND FREE ENERGY PREDICTED BY IDOCK:   -7.19 KCAL/MOL
REMARK 924 INTRA-LIGAND FREE ENERGY PREDICTED BY IDOCK:   -1.09 KCAL/MOL
REMARK 927      BINDING AFFINITY PREDICTED BY RF-SCORE:    0.00 PKD
ROOT
HETATM    1  C   UNL     1     -10.035   8.889  66.593  1.00  0.00    -0.346 C  
HETATM    2  C   UNL     1     -10.052   9.407  68.032  1.00  0.00    -0.191 C  
ENDROOT
BRANCH   2   3
HETATM    3  O   UNL     1     -11.425   9.541  68.404  1.00  0.00     0.141 OA 
BRANCH   3   4
HETATM    4  C   UNL     1     -11.826  10.542  69.241  1.00  0.00    -0.170 A  
HETATM    5  C   UNL     1     -12.415  12.740  70.739  1.00  0.00    -0.271 A  
HETATM    6  C   UNL     1     -11.877  12.952  69.475  1.00  0.00    -0.383 A  
HETATM    7  H1  UNL     1     -12.907   9.169  72.154  1.00  0.00     0.000 HD 
HETATM    8  N   UNL     1     -12.658  11.522  71.277  1.00  0.00    -0.377 NA 
HETATM    9  C   UNL     1     -11.586  11.820  68.721  1.00  0.00    -0.367 A  
HETATM   10  C   UNL     1     -12.338  10.444  70.536  1.00  0.00    -0.322 A  
HETATM   11  H2  UNL     1     -11.641   8.746  71.201  1.00  0.00     0.000 HD 
HETATM   12  N   UNL     1     -12.533   9.240  71.208  1.00  0.00    -0.318 NA 
BRANCH   6  13
HETATM   13  C   UNL     1     -11.598  14.293  69.008  1.00  0.00    -0.342 A  
HETATM   14  N   UNL     1     -11.446  16.563  68.912  1.00  0.00    -0.214 NA 
HETATM   15  C   UNL     1     -11.805  15.525  69.660  1.00  0.00    -0.366 A  
HETATM   16  C   UNL     1     -11.062  14.643  67.784  1.00  0.00    -0.298 A  
HETATM   17  N   UNL     1     -11.013  16.012  67.764  1.00  0.00    -0.326 NA 
BRANCH  17  18
HETATM   18  C   UNL     1     -10.588  16.863  66.652  1.00  0.00    -0.189 C  
HETATM   19  C   UNL     1     -10.219  18.282  67.106  1.00  0.00    -0.387 C  
HETATM   20  C   UNL     1      -8.841  18.345  67.764  1.00  0.00    -0.278 C  
HETATM   21  N   UNL     1      -7.802  17.767  66.911  1.00  0.00    -0.214 NA 
HETATM   22  C   UNL     1      -8.094  16.379  66.549  1.00  0.00    -0.310 C  
HETATM   23  H   UNL     1      -6.881  17.849  67.343  1.00  0.00     0.000 HD 
HETATM   24  C   UNL     1      -9.441  16.247  65.842  1.00  0.00    -0.318 C  
ENDBRANCH  17  18
ENDBRANCH   6  13
ENDBRANCH   3   4
ENDBRANCH   2   3
BRANCH   2  25
HETATM   25  C   UNL     1      -9.276   8.462  68.953  1.00  0.00    -0.147 A  
HETATM   26 CL   UNL     1     -11.023   6.357  68.483  1.00  0.00    -0.378 Cl 
HETATM   27  C   UNL     1      -8.076   8.918  69.556  1.00  0.00    -0.101 A  
HETATM   28 CL   UNL     1      -7.430  10.503  69.276  1.00  0.00    -0.110 Cl 
HETATM   29  F   UNL     1      -9.271   5.070  70.363  1.00  0.00    -0.150 F  
HETATM   30  C   UNL     1      -7.319   8.099  70.405  1.00  0.00    -0.062 A  
HETATM   31  C   UNL     1      -7.737   6.805  70.681  1.00  0.00    -0.097 A  
HETATM   32  C   UNL     1      -9.658   7.128  69.219  1.00  0.00    -0.155 A  
HETATM   33  C   UNL     1      -8.897   6.329  70.088  1.00  0.00    -0.149 A  
ENDBRANCH   2  25
TORSDOF 5
ENDMDL
MODEL      116
REMARK 921   NORMALIZED FREE ENERGY PREDICTED BY IDOCK:   -5.89 KCAL/MOL
REMARK 922        TOTAL FREE ENERGY PREDICTED BY IDOCK:   -8.28 KCAL/MOL
REMARK 923 INTER-LIGAND FREE ENERGY PREDICTED BY IDOCK:   -7.43 KCAL/MOL
REMARK 924 INTRA-LIGAND FREE ENERGY PREDICTED BY IDOCK:   -0.85 KCAL/MOL
REMARK 927      BINDING AFFINITY PREDICTED BY RF-SCORE:    0.00 PKD
ROOT
HETATM    1  C   UNL     1      -9.134  12.515  68.051  1.00  0.00    -0.200 C  
HETATM    2  C   UNL     1     -10.259  11.601  67.564  1.00  0.00    -0.195 C  
ENDROOT
BRANCH   2   3
HETATM    3  O   UNL     1     -11.262  11.606  68.582  1.00  0.00    -0.209 OA 
BRANCH   3   4
HETATM    4  C   UNL     1     -11.219  10.706  69.608  1.00  0.00    -0.289 A  
HETATM    5  C   UNL     1     -11.017   8.689  71.428  1.00  0.00    -0.271 A  
HETATM    6  C   UNL     1     -10.248   8.590  70.274  1.00  0.00    -0.206 A  
HETATM    7  H1  UNL     1     -13.480  11.628  71.970  1.00  0.00     0.000 HD 
HETATM    8  N   UNL     1     -11.861   9.710  71.704  1.00  0.00    -0.396 NA 
HETATM    9  C   UNL     1     -10.359   9.630  69.358  1.00  0.00    -0.226 A  
HETATM   10  C   UNL     1     -11.971  10.688  70.784  1.00  0.00    -0.374 A  
HETATM   11  H2  UNL     1     -13.592  11.679  70.335  1.00  0.00     0.000 HD 
HETATM   12  N   UNL     1     -12.931  11.641  71.111  1.00  0.00    -0.285 NA 
BRANCH   6  13
HETATM   13  C   UNL     1      -9.417   7.429  70.040  1.00  0.00    -0.161 A  
HETATM   14  N   UNL     1      -8.260   5.495  70.364  1.00  0.00    -0.102 NA 
HETATM   15  C   UNL     1      -9.064   6.392  70.926  1.00  0.00    -0.151 A  
HETATM   16  C   UNL     1      -8.775   7.101  68.861  1.00  0.00    -0.128 A  
HETATM   17  N   UNL     1      -8.077   5.950  69.112  1.00  0.00    -0.105 NA 
BRANCH  17  18
HETATM   18  C   UNL     1      -7.181   5.245  68.195  1.00  0.00    -0.071 C  
HETATM   19  C   UNL     1      -6.881   3.810  68.653  1.00  0.00    -0.046 C  
HETATM   20  C   UNL     1      -8.036   2.851  68.362  1.00  0.00    -0.060 C  
HETATM   21  N   UNL     1      -8.440   2.894  66.955  1.00  0.00    -0.093 NA 
HETATM   22  C   UNL     1      -8.820   4.242  66.531  1.00  0.00    -0.116 C  
HETATM   23  H   UNL     1      -9.183   2.223  66.764  1.00  0.00     0.000 HD 
HETATM   24  C   UNL     1      -7.692   5.248  66.750  1.00  0.00    -0.096 C  
ENDBRANCH  17  18
ENDBRANCH   6  13
ENDBRANCH   3   4
ENDBRANCH   2   3
BRANCH   2  25
HETATM   25  C   UNL     1     -10.787  12.071  66.207  1.00  0.00    -0.316 A  
HETATM   26 CL   UNL     1     -11.662  14.495  67.241  1.00  0.00    -0.415 Cl 
HETATM   27  C   UNL     1     -10.590  11.250  65.068  1.00  0.00    -0.289 A  
HETATM   28 CL   UNL     1      -9.750   9.735  65.139  1.00  0.00    -0.369 Cl 
HETATM   29  F   UNL     1     -12.542  14.826  64.526  1.00  0.00    -0.459 F  
HETATM   30  C   UNL     1     -11.047  11.629  63.797  1.00  0.00    -0.499 A  
HETATM   31  C   UNL     1     -11.715  12.833  63.626  1.00  0.00    -0.587 A  
HETATM   32  C   UNL     1     -11.436  13.309  65.998  1.00  0.00    -0.330 A  
HETATM   33  C   UNL     1     -11.903  13.662  64.722  1.00  0.00    -0.387 A  
ENDBRANCH   2  25
TORSDOF 5
ENDMDL
MODEL      117
REMARK 921   NORMALIZED FREE ENERGY PREDICTED BY IDOCK:   -5.88 KCAL/MOL
REMARK 922        TOTAL FREE ENERGY PREDICTED BY IDOCK:   -8.28 KCAL/MOL
REMARK 923 INTER-LIGAND FREE ENERGY PREDICTED BY IDOCK:   -7.36 KCAL/MOL
REMARK 924 INTRA-LIGAND FREE ENERGY PREDICTED BY IDOCK:   -0.92 KCAL/MOL
REMARK 927      BINDING AFFINITY PREDICTED BY RF-SCORE:    0.00 PKD
ROOT
HETATM    1  C   UNL     1      -8.785   6.649  68.585  1.00  0.00    -0.124 C  
HETATM    2  C   UNL     1      -9.566   7.907  68.967  1.00  0.00    -0.155 C  
ENDROOT
BRANCH   2   3
HETATM    3  O   UNL     1     -10.048   7.703  70.297  1.00  0.00    -0.195 OA 
BRANCH   3   4
HETATM    4  C   UNL     1     -11.196   8.304  70.723  1.00  0.00    -0.264 A  
HETATM    5  C   UNL     1     -13.314   9.794  71.571  1.00  0.00    -0.385 A  
HETATM    6  C   UNL     1     -12.286  10.459  70.913  1.00  0.00    -0.484 A  
HETATM    7  H1  UNL     1     -13.113   6.001  72.324  1.00  0.00     0.000 HD 
HETATM    8  N   UNL     1     -13.331   8.465  71.825  1.00  0.00    -0.347 NA 
HETATM    9  C   UNL     1     -11.215   9.684  70.483  1.00  0.00    -0.359 A  
HETATM   10  C   UNL     1     -12.267   7.744  71.423  1.00  0.00    -0.319 A  
HETATM   11  H2  UNL     1     -11.487   6.214  72.351  1.00  0.00     0.000 HD 
HETATM   12  N   UNL     1     -12.331   6.409  71.813  1.00  0.00    -0.288 NA 
BRANCH   6  13
HETATM   13  C   UNL     1     -12.329  11.895  70.740  1.00  0.00    -0.416 A  
HETATM   14  N   UNL     1     -12.744  14.106  71.093  1.00  0.00    -0.341 NA 
HETATM   15  C   UNL     1     -12.866  12.880  71.592  1.00  0.00    -0.268 A  
HETATM   16  C   UNL     1     -11.842  12.608  69.662  1.00  0.00    -0.311 A  
HETATM   17  N   UNL     1     -12.136  13.924  69.908  1.00  0.00    -0.328 NA 
BRANCH  17  18
HETATM   18  C   UNL     1     -11.886  15.063  69.025  1.00  0.00    -0.300 C  
HETATM   19  C   UNL     1     -11.071  16.169  69.708  1.00  0.00    -0.350 C  
HETATM   20  C   UNL     1      -9.582  15.829  69.795  1.00  0.00    -0.144 C  
HETATM   21  N   UNL     1      -9.025  15.481  68.487  1.00  0.00    -0.184 NA 
HETATM   22  C   UNL     1      -9.735  14.362  67.865  1.00  0.00    -0.223 C  
HETATM   23  H   UNL     1      -8.024  15.294  68.550  1.00  0.00     0.000 HD 
HETATM   24  C   UNL     1     -11.225  14.652  67.703  1.00  0.00    -0.332 C  
ENDBRANCH  17  18
ENDBRANCH   6  13
ENDBRANCH   3   4
ENDBRANCH   2   3
BRANCH   2  25
HETATM   25  C   UNL     1      -8.683   9.150  68.839  1.00  0.00    -0.132 A  
HETATM   26 CL   UNL     1      -7.457   8.691  71.287  1.00  0.00    -0.101 Cl 
HETATM   27  C   UNL     1      -8.747   9.922  67.651  1.00  0.00    -0.121 A  
HETATM   28 CL   UNL     1      -9.773   9.504  66.316  1.00  0.00    -0.286 Cl 
HETATM   29  F   UNL     1      -6.137  11.145  70.581  1.00  0.00    -0.141 F  
HETATM   30  C   UNL     1      -7.960  11.068  67.473  1.00  0.00    -0.116 A  
HETATM   31  C   UNL     1      -7.090  11.479  68.472  1.00  0.00    -0.087 A  
HETATM   32  C   UNL     1      -7.761   9.569  69.824  1.00  0.00    -0.123 A  
HETATM   33  C   UNL     1      -6.995  10.731  69.635  1.00  0.00    -0.134 A  
ENDBRANCH   2  25
TORSDOF 5
ENDMDL
MODEL      118
REMARK 921   NORMALIZED FREE ENERGY PREDICTED BY IDOCK:   -5.88 KCAL/MOL
REMARK 922        TOTAL FREE ENERGY PREDICTED BY IDOCK:   -8.27 KCAL/MOL
REMARK 923 INTER-LIGAND FREE ENERGY PREDICTED BY IDOCK:   -7.94 KCAL/MOL
REMARK 924 INTRA-LIGAND FREE ENERGY PREDICTED BY IDOCK:   -0.32 KCAL/MOL
REMARK 927      BINDING AFFINITY PREDICTED BY RF-SCORE:    0.00 PKD
ROOT
HETATM    1  C   UNL     1     -10.741   9.322  67.984  1.00  0.00    -0.231 C  
HETATM    2  C   UNL     1     -10.272  10.734  67.633  1.00  0.00    -0.189 C  
ENDROOT
BRANCH   2   3
HETATM    3  O   UNL     1      -8.893  10.812  68.001  1.00  0.00    -0.127 OA 
BRANCH   3   4
HETATM    4  C   UNL     1      -8.256  12.017  68.066  1.00  0.00    -0.156 A  
HETATM    5  C   UNL     1      -7.200  14.526  67.958  1.00  0.00    -0.142 A  
HETATM    6  C   UNL     1      -8.502  14.359  67.501  1.00  0.00    -0.202 A  
HETATM    7  H1  UNL     1      -5.086  11.522  69.185  1.00  0.00     0.000 HD 
HETATM    8  N   UNL     1      -6.422  13.531  68.444  1.00  0.00    -0.084 NA 
HETATM    9  C   UNL     1      -9.028  13.073  67.567  1.00  0.00    -0.193 A  
HETATM   10  C   UNL     1      -6.947  12.291  68.468  1.00  0.00    -0.092 A  
HETATM   11  H2  UNL     1      -5.987  10.621  68.153  1.00  0.00     0.000 HD 
HETATM   12  N   UNL     1      -6.042  11.322  68.892  1.00  0.00    -0.044 NA 
BRANCH   6  13
HETATM   13  C   UNL     1      -9.236  15.474  66.943  1.00  0.00    -0.257 A  
HETATM   14  N   UNL     1     -10.454  16.768  65.519  1.00  0.00    -0.587 NA 
HETATM   15  C   UNL     1      -9.900  15.574  65.704  1.00  0.00    -0.342 A  
HETATM   16  C   UNL     1      -9.430  16.708  67.533  1.00  0.00    -0.229 A  
HETATM   17  N   UNL     1     -10.143  17.456  66.632  1.00  0.00    -0.305 NA 
BRANCH  17  18
HETATM   18  C   UNL     1     -10.535  18.859  66.766  1.00  0.00    -0.428 C  
HETATM   19  C   UNL     1     -10.142  19.451  68.126  1.00  0.00    -0.526 C  
HETATM   20  C   UNL     1      -8.654  19.794  68.207  1.00  0.00    -0.272 C  
HETATM   21  N   UNL     1      -8.232  20.657  67.103  1.00  0.00    -0.518 NA 
HETATM   22  C   UNL     1      -8.515  20.060  65.797  1.00  0.00     0.007 C  
HETATM   23  H   UNL     1      -7.248  20.911  67.188  1.00  0.00     0.000 HD 
HETATM   24  C   UNL     1      -9.997  19.734  65.628  1.00  0.00    -0.203 C  
ENDBRANCH  17  18
ENDBRANCH   6  13
ENDBRANCH   3   4
ENDBRANCH   2   3
BRANCH   2  25
HETATM   25  C   UNL     1     -10.508  11.027  66.150  1.00  0.00    -0.301 A  
HETATM   26 CL   UNL     1      -8.843   8.958  65.342  1.00  0.00    -0.228 Cl 
HETATM   27  C   UNL     1     -11.423  12.047  65.785  1.00  0.00    -0.320 A  
HETATM   28 CL   UNL     1     -12.312  12.970  66.953  1.00  0.00    -0.216 Cl 
HETATM   29  F   UNL     1      -9.556   9.991  62.756  1.00  0.00    -0.310 F  
HETATM   30  C   UNL     1     -11.685  12.358  64.443  1.00  0.00    -0.435 A  
HETATM   31  C   UNL     1     -11.041  11.666  63.428  1.00  0.00    -0.422 A  
HETATM   32  C   UNL     1      -9.895  10.312  65.096  1.00  0.00    -0.321 A  
HETATM   33  C   UNL     1     -10.156  10.652  63.758  1.00  0.00    -0.270 A  
ENDBRANCH   2  25
TORSDOF 5
ENDMDL
MODEL      119
REMARK 921   NORMALIZED FREE ENERGY PREDICTED BY IDOCK:   -5.87 KCAL/MOL
REMARK 922        TOTAL FREE ENERGY PREDICTED BY IDOCK:   -8.26 KCAL/MOL
REMARK 923 INTER-LIGAND FREE ENERGY PREDICTED BY IDOCK:   -8.94 KCAL/MOL
REMARK 924 INTRA-LIGAND FREE ENERGY PREDICTED BY IDOCK:    0.68 KCAL/MOL
REMARK 927      BINDING AFFINITY PREDICTED BY RF-SCORE:    0.00 PKD
ROOT
HETATM    1  C   UNL     1     -10.170  10.852  66.343  1.00  0.00    -0.289 C  
HETATM    2  C   UNL     1     -10.698  12.257  66.048  1.00  0.00    -0.261 C  
ENDROOT
BRANCH   2   3
HETATM    3  O   UNL     1     -11.945  12.380  66.734  1.00  0.00    -0.559 OA 
BRANCH   3   4
HETATM    4  C   UNL     1     -11.983  12.569  68.085  1.00  0.00    -0.219 A  
HETATM    5  C   UNL     1     -12.182  12.634  70.801  1.00  0.00    -0.240 A  
HETATM    6  C   UNL     1     -12.137  11.385  70.192  1.00  0.00    -0.439 A  
HETATM    7  H1  UNL     1     -12.195  15.900  68.720  1.00  0.00     0.000 HD 
HETATM    8  N   UNL     1     -12.142  13.814  70.140  1.00  0.00    -0.340 NA 
HETATM    9  C   UNL     1     -12.030  11.370  68.806  1.00  0.00    -0.353 A  
HETATM   10  C   UNL     1     -12.069  13.768  68.796  1.00  0.00    -0.309 A  
HETATM   11  H2  UNL     1     -12.913  15.008  67.547  1.00  0.00     0.000 HD 
HETATM   12  N   UNL     1     -12.131  15.025  68.201  1.00  0.00    -0.150 NA 
BRANCH   6  13
HETATM   13  C   UNL     1     -12.245  10.177  70.980  1.00  0.00    -0.474 A  
HETATM   14  N   UNL     1     -13.114   8.416  72.133  1.00  0.00    -0.340 NA 
HETATM   15  C   UNL     1     -13.400   9.486  71.399  1.00  0.00    -0.361 A  
HETATM   16  C   UNL     1     -11.201   9.440  71.504  1.00  0.00    -0.386 A  
HETATM   17  N   UNL     1     -11.771   8.411  72.206  1.00  0.00    -0.369 NA 
BRANCH  17  18
HETATM   18  C   UNL     1     -11.079   7.397  73.002  1.00  0.00    -0.343 C  
HETATM   19  C   UNL     1     -11.261   5.981  72.437  1.00  0.00    -0.338 C  
HETATM   20  C   UNL     1     -10.374   5.721  71.218  1.00  0.00    -0.223 C  
HETATM   21  N   UNL     1      -8.967   6.012  71.496  1.00  0.00    -0.143 NA 
HETATM   22  C   UNL     1      -8.767   7.392  71.945  1.00  0.00    -0.114 C  
HETATM   23  H   UNL     1      -8.380   5.798  70.690  1.00  0.00     0.000 HD 
HETATM   24  C   UNL     1      -9.590   7.709  73.192  1.00  0.00    -0.314 C  
ENDBRANCH  17  18
ENDBRANCH   6  13
ENDBRANCH   3   4
ENDBRANCH   2   3
BRANCH   2  25
HETATM   25  C   UNL     1      -9.678  13.315  66.474  1.00  0.00    -0.273 A  
HETATM   26 CL   UNL     1     -10.888  15.287  64.940  1.00  0.00    -0.449 Cl 
HETATM   27  C   UNL     1      -8.683  12.972  67.424  1.00  0.00    -0.205 A  
HETATM   28 CL   UNL     1      -8.582  11.399  68.148  1.00  0.00    -0.147 Cl 
HETATM   29  F   UNL     1      -8.689  16.819  65.979  1.00  0.00    -0.312 F  
HETATM   30  C   UNL     1      -7.724  13.899  67.857  1.00  0.00    -0.161 A  
HETATM   31  C   UNL     1      -7.728  15.192  67.355  1.00  0.00    -0.225 A  
HETATM   32  C   UNL     1      -9.683  14.650  66.009  1.00  0.00    -0.312 A  
HETATM   33  C   UNL     1      -8.703  15.558  66.439  1.00  0.00    -0.298 A  
ENDBRANCH   2  25
TORSDOF 5
ENDMDL
MODEL      120
REMARK 921   NORMALIZED FREE ENERGY PREDICTED BY IDOCK:   -5.87 KCAL/MOL
REMARK 922        TOTAL FREE ENERGY PREDICTED BY IDOCK:   -8.25 KCAL/MOL
REMARK 923 INTER-LIGAND FREE ENERGY PREDICTED BY IDOCK:   -7.23 KCAL/MOL
REMARK 924 INTRA-LIGAND FREE ENERGY PREDICTED BY IDOCK:   -1.03 KCAL/MOL
REMARK 927      BINDING AFFINITY PREDICTED BY RF-SCORE:    0.00 PKD
ROOT
HETATM    1  C   UNL     1      -6.260   6.179  71.093  1.00  0.00    -0.039 C  
HETATM    2  C   UNL     1      -7.559   6.721  70.493  1.00  0.00    -0.091 C  
ENDROOT
BRANCH   2   3
HETATM    3  O   UNL     1      -7.664   6.171  69.178  1.00  0.00    -0.096 OA 
BRANCH   3   4
HETATM    4  C   UNL     1      -8.707   6.505  68.365  1.00  0.00    -0.121 A  
HETATM    5  C   UNL     1     -10.754   7.486  66.858  1.00  0.00    -0.229 A  
HETATM    6  C   UNL     1      -9.805   8.392  67.316  1.00  0.00    -0.264 A  
HETATM    7  H1  UNL     1     -10.599   3.737  67.817  1.00  0.00     0.000 HD 
HETATM    8  N   UNL     1     -10.735   6.157  67.114  1.00  0.00    -0.309 NA 
HETATM    9  C   UNL     1      -8.765   7.875  68.080  1.00  0.00    -0.125 A  
HETATM   10  C   UNL     1      -9.732   5.689  67.881  1.00  0.00    -0.125 A  
HETATM   11  H2  UNL     1      -9.850   4.241  69.185  1.00  0.00     0.000 HD 
HETATM   12  N   UNL     1      -9.850   4.332  68.169  1.00  0.00    -0.091 NA 
BRANCH   6  13
HETATM   13  C   UNL     1      -9.942   9.806  67.039  1.00  0.00    -0.259 A  
HETATM   14  N   UNL     1     -10.276  12.041  67.311  1.00  0.00    -0.203 NA 
HETATM   15  C   UNL     1     -10.193  10.868  67.930  1.00  0.00    -0.179 A  
HETATM   16  C   UNL     1      -9.860  10.413  65.802  1.00  0.00    -0.239 A  
HETATM   17  N   UNL     1     -10.091  11.747  66.013  1.00  0.00    -0.223 NA 
BRANCH  17  18
HETATM   18  C   UNL     1     -10.179  12.797  64.998  1.00  0.00    -0.272 C  
HETATM   19  C   UNL     1     -10.464  12.239  63.597  1.00  0.00    -0.483 C  
HETATM   20  C   UNL     1     -11.931  11.849  63.411  1.00  0.00    -0.425 C  
HETATM   21  N   UNL     1     -12.835  12.951  63.744  1.00  0.00    -0.659 NA 
HETATM   22  C   UNL     1     -12.638  13.430  65.114  1.00  0.00    -0.440 C  
HETATM   23  H   UNL     1     -13.808  12.693  63.580  1.00  0.00     0.000 HD 
HETATM   24  C   UNL     1     -11.200  13.883  65.358  1.00  0.00    -0.306 C  
ENDBRANCH  17  18
ENDBRANCH   6  13
ENDBRANCH   3   4
ENDBRANCH   2   3
BRANCH   2  25
HETATM   25  C   UNL     1      -8.752   6.366  71.383  1.00  0.00    -0.131 A  
HETATM   26 CL   UNL     1      -9.623   8.999  71.489  1.00  0.00    -0.358 Cl 
HETATM   27  C   UNL     1      -8.988   5.006  71.711  1.00  0.00    -0.133 A  
HETATM   28 CL   UNL     1      -7.990   3.714  71.125  1.00  0.00    -0.059 Cl 
HETATM   29  F   UNL     1     -11.605   7.806  73.194  1.00  0.00    -0.402 F  
HETATM   30  C   UNL     1     -10.067   4.618  72.518  1.00  0.00    -0.229 A  
HETATM   31  C   UNL     1     -10.938   5.572  73.023  1.00  0.00    -0.336 A  
HETATM   32  C   UNL     1      -9.677   7.312  71.878  1.00  0.00    -0.155 A  
HETATM   33  C   UNL     1     -10.740   6.906  72.701  1.00  0.00    -0.244 A  
ENDBRANCH   2  25
TORSDOF 5
ENDMDL
MODEL      121
REMARK 921   NORMALIZED FREE ENERGY PREDICTED BY IDOCK:   -5.86 KCAL/MOL
REMARK 922        TOTAL FREE ENERGY PREDICTED BY IDOCK:   -8.25 KCAL/MOL
REMARK 923 INTER-LIGAND FREE ENERGY PREDICTED BY IDOCK:   -7.92 KCAL/MOL
REMARK 924 INTRA-LIGAND FREE ENERGY PREDICTED BY IDOCK:   -0.33 KCAL/MOL
REMARK 927      BINDING AFFINITY PREDICTED BY RF-SCORE:    0.00 PKD
ROOT
HETATM    1  C   UNL     1     -12.264  13.632  66.803  1.00  0.00    -0.416 C  
HETATM    2  C   UNL     1     -11.886  12.758  68.000  1.00  0.00    -0.336 C  
ENDROOT
BRANCH   2   3
HETATM    3  O   UNL     1     -10.590  12.224  67.725  1.00  0.00    -0.211 OA 
BRANCH   3   4
HETATM    4  C   UNL     1     -10.438  10.922  67.345  1.00  0.00    -0.224 A  
HETATM    5  C   UNL     1     -10.080   8.256  66.913  1.00  0.00    -0.296 A  
HETATM    6  C   UNL     1     -10.424   8.655  68.199  1.00  0.00    -0.241 A  
HETATM    7  H1  UNL     1      -9.487  10.834  64.085  1.00  0.00     0.000 HD 
HETATM    8  N   UNL     1      -9.904   9.097  65.868  1.00  0.00    -0.282 NA 
HETATM    9  C   UNL     1     -10.608  10.018  68.402  1.00  0.00    -0.253 A  
HETATM   10  C   UNL     1     -10.059  10.414  66.101  1.00  0.00    -0.237 A  
HETATM   11  H2  UNL     1      -9.041  11.864  65.281  1.00  0.00     0.000 HD 
HETATM   12  N   UNL     1      -9.764  11.205  64.994  1.00  0.00    -0.240 NA 
BRANCH   6  13
HETATM   13  C   UNL     1     -10.532   7.686  69.268  1.00  0.00    -0.220 A  
HETATM   14  N   UNL     1     -11.001   5.779  70.420  1.00  0.00    -0.291 NA 
HETATM   15  C   UNL     1     -11.043   6.373  69.232  1.00  0.00    -0.373 A  
HETATM   16  C   UNL     1     -10.150   7.866  70.583  1.00  0.00    -0.194 A  
HETATM   17  N   UNL     1     -10.474   6.706  71.238  1.00  0.00    -0.213 NA 
BRANCH  17  18
HETATM   18  C   UNL     1     -10.330   6.433  72.668  1.00  0.00    -0.195 C  
HETATM   19  C   UNL     1     -11.156   5.221  73.121  1.00  0.00    -0.384 C  
HETATM   20  C   UNL     1     -10.502   3.892  72.737  1.00  0.00    -0.153 C  
HETATM   21  N   UNL     1      -9.120   3.807  73.209  1.00  0.00    -0.102 NA 
HETATM   22  C   UNL     1      -8.296   4.908  72.706  1.00  0.00    -0.112 C  
HETATM   23  H   UNL     1      -8.707   2.903  72.982  1.00  0.00     0.000 HD 
HETATM   24  C   UNL     1      -8.866   6.270  73.095  1.00  0.00    -0.129 C  
ENDBRANCH  17  18
ENDBRANCH   6  13
ENDBRANCH   3   4
ENDBRANCH   2   3
BRANCH   2  25
HETATM   25  C   UNL     1     -11.932  13.571  69.295  1.00  0.00    -0.378 A  
HETATM   26 CL   UNL     1     -11.067  15.884  68.029  1.00  0.00    -0.338 Cl 
HETATM   27  C   UNL     1     -12.410  12.955  70.480  1.00  0.00    -0.283 A  
HETATM   28 CL   UNL     1     -12.972  11.314  70.522  1.00  0.00    -0.144 Cl 
HETATM   29  F   UNL     1     -11.244  16.889  70.716  1.00  0.00    -0.296 F  
HETATM   30  C   UNL     1     -12.480  13.649  71.696  1.00  0.00    -0.269 A  
HETATM   31  C   UNL     1     -12.074  14.973  71.769  1.00  0.00    -0.428 A  
HETATM   32  C   UNL     1     -11.561  14.931  69.388  1.00  0.00    -0.309 A  
HETATM   33  C   UNL     1     -11.620  15.604  70.620  1.00  0.00    -0.367 A  
ENDBRANCH   2  25
TORSDOF 5
ENDMDL
MODEL      122
REMARK 921   NORMALIZED FREE ENERGY PREDICTED BY IDOCK:   -5.85 KCAL/MOL
REMARK 922        TOTAL FREE ENERGY PREDICTED BY IDOCK:   -8.23 KCAL/MOL
REMARK 923 INTER-LIGAND FREE ENERGY PREDICTED BY IDOCK:   -7.25 KCAL/MOL
REMARK 924 INTRA-LIGAND FREE ENERGY PREDICTED BY IDOCK:   -0.98 KCAL/MOL
REMARK 927      BINDING AFFINITY PREDICTED BY RF-SCORE:    0.00 PKD
ROOT
HETATM    1  C   UNL     1     -11.589  15.872  69.335  1.00  0.00    -0.352 C  
HETATM    2  C   UNL     1     -10.477  15.497  68.354  1.00  0.00    -0.240 C  
ENDROOT
BRANCH   2   3
HETATM    3  O   UNL     1      -9.792  14.377  68.918  1.00  0.00    -0.218 OA 
BRANCH   3   4
HETATM    4  C   UNL     1      -8.685  13.858  68.311  1.00  0.00    -0.183 A  
HETATM    5  C   UNL     1      -6.575  12.523  67.221  1.00  0.00    -0.123 A  
HETATM    6  C   UNL     1      -7.702  11.780  67.550  1.00  0.00    -0.143 A  
HETATM    7  H1  UNL     1      -6.365  16.317  67.974  1.00  0.00     0.000 HD 
HETATM    8  N   UNL     1      -6.452  13.858  67.412  1.00  0.00    -0.294 NA 
HETATM    9  C   UNL     1      -8.772  12.476  68.101  1.00  0.00    -0.190 A  
HETATM   10  C   UNL     1      -7.492  14.501  67.974  1.00  0.00    -0.137 A  
HETATM   11  H2  UNL     1      -7.391  16.005  69.214  1.00  0.00     0.000 HD 
HETATM   12  N   UNL     1      -7.236  15.847  68.219  1.00  0.00    -0.114 NA 
BRANCH   6  13
HETATM   13  C   UNL     1      -7.719  10.345  67.363  1.00  0.00    -0.095 A  
HETATM   14  N   UNL     1      -7.511   8.283  66.420  1.00  0.00    -0.079 NA 
HETATM   15  C   UNL     1      -7.341   9.588  66.236  1.00  0.00    -0.093 A  
HETATM   16  C   UNL     1      -8.131   9.401  68.283  1.00  0.00    -0.109 A  
HETATM   17  N   UNL     1      -8.012   8.184  67.663  1.00  0.00    -0.121 NA 
BRANCH  17  18
HETATM   18  C   UNL     1      -8.394   6.879  68.203  1.00  0.00    -0.118 C  
HETATM   19  C   UNL     1      -9.064   6.986  69.580  1.00  0.00    -0.146 C  
HETATM   20  C   UNL     1     -10.521   7.443  69.486  1.00  0.00    -0.232 C  
HETATM   21  N   UNL     1     -11.299   6.605  68.573  1.00  0.00    -0.576 NA 
HETATM   22  C   UNL     1     -10.722   6.572  67.228  1.00  0.00    -0.356 C  
HETATM   23  H   UNL     1     -12.276   6.894  68.548  1.00  0.00     0.000 HD 
HETATM   24  C   UNL     1      -9.277   6.076  67.240  1.00  0.00    -0.114 C  
ENDBRANCH  17  18
ENDBRANCH   6  13
ENDBRANCH   3   4
ENDBRANCH   2   3
BRANCH   2  25
HETATM   25  C   UNL     1     -11.057  15.203  66.969  1.00  0.00    -0.328 A  
HETATM   26 CL   UNL     1     -12.236  12.839  67.821  1.00  0.00    -0.160 Cl 
HETATM   27  C   UNL     1     -10.876  16.151  65.929  1.00  0.00    -0.177 A  
HETATM   28 CL   UNL     1     -10.039  17.651  66.165  1.00  0.00    -0.325 Cl 
HETATM   29  F   UNL     1     -12.991  12.739  65.050  1.00  0.00    -0.558 F  
HETATM   30  C   UNL     1     -11.388  15.940  64.641  1.00  0.00    -0.328 A  
HETATM   31  C   UNL     1     -12.091  14.780  64.351  1.00  0.00    -0.457 A  
HETATM   32  C   UNL     1     -11.810  14.049  66.657  1.00  0.00    -0.419 A  
HETATM   33  C   UNL     1     -12.298  13.846  65.355  1.00  0.00    -0.470 A  
ENDBRANCH   2  25
TORSDOF 5
ENDMDL
MODEL      123
REMARK 921   NORMALIZED FREE ENERGY PREDICTED BY IDOCK:   -5.84 KCAL/MOL
REMARK 922        TOTAL FREE ENERGY PREDICTED BY IDOCK:   -8.22 KCAL/MOL
REMARK 923 INTER-LIGAND FREE ENERGY PREDICTED BY IDOCK:   -7.40 KCAL/MOL
REMARK 924 INTRA-LIGAND FREE ENERGY PREDICTED BY IDOCK:   -0.83 KCAL/MOL
REMARK 927      BINDING AFFINITY PREDICTED BY RF-SCORE:    0.00 PKD
ROOT
HETATM    1  C   UNL     1      -9.293   5.098  70.818  1.00  0.00    -0.210 C  
HETATM    2  C   UNL     1      -9.894   6.323  70.126  1.00  0.00    -0.170 C  
ENDROOT
BRANCH   2   3
HETATM    3  O   UNL     1     -10.078   7.316  71.137  1.00  0.00    -0.187 OA 
BRANCH   3   4
HETATM    4  C   UNL     1     -11.267   7.975  71.258  1.00  0.00    -0.256 A  
HETATM    5  C   UNL     1     -13.459   9.577  71.489  1.00  0.00    -0.368 A  
HETATM    6  C   UNL     1     -12.311  10.137  70.940  1.00  0.00    -0.461 A  
HETATM    7  H1  UNL     1     -13.502   5.932  72.797  1.00  0.00     0.000 HD 
HETATM    8  N   UNL     1     -13.559   8.298  71.922  1.00  0.00    -0.356 NA 
HETATM    9  C   UNL     1     -11.203   9.306  70.825  1.00  0.00    -0.351 A  
HETATM   10  C   UNL     1     -12.461   7.525  71.825  1.00  0.00    -0.330 A  
HETATM   11  H2  UNL     1     -11.902   6.143  73.086  1.00  0.00     0.000 HD 
HETATM   12  N   UNL     1     -12.631   6.261  72.382  1.00  0.00    -0.025 NA 
BRANCH   6  13
HETATM   13  C   UNL     1     -12.283  11.533  70.559  1.00  0.00    -0.469 A  
HETATM   14  N   UNL     1     -12.547  13.794  70.605  1.00  0.00    -0.331 NA 
HETATM   15  C   UNL     1     -12.709  12.663  71.284  1.00  0.00    -0.257 A  
HETATM   16  C   UNL     1     -11.823  12.050  69.364  1.00  0.00    -0.324 A  
HETATM   17  N   UNL     1     -12.025  13.404  69.429  1.00  0.00    -0.321 NA 
BRANCH  17  18
HETATM   18  C   UNL     1     -11.765  14.385  68.375  1.00  0.00    -0.332 C  
HETATM   19  C   UNL     1     -11.730  15.824  68.908  1.00  0.00    -0.404 C  
HETATM   20  C   UNL     1     -10.418  16.151  69.623  1.00  0.00    -0.291 C  
HETATM   21  N   UNL     1      -9.253  15.859  68.786  1.00  0.00    -0.205 NA 
HETATM   22  C   UNL     1      -9.224  14.462  68.350  1.00  0.00    -0.195 C  
HETATM   23  H   UNL     1      -8.386  16.117  69.258  1.00  0.00     0.000 HD 
HETATM   24  C   UNL     1     -10.488  14.078  67.584  1.00  0.00    -0.245 C  
ENDBRANCH  17  18
ENDBRANCH   6  13
ENDBRANCH   3   4
ENDBRANCH   2   3
BRANCH   2  25
HETATM   25  C   UNL     1      -8.988   6.795  68.986  1.00  0.00    -0.131 A  
HETATM   26 CL   UNL     1     -10.979   6.442  67.084  1.00  0.00    -0.462 Cl 
HETATM   27  C   UNL     1      -7.680   7.252  69.288  1.00  0.00    -0.107 A  
HETATM   28 CL   UNL     1      -7.063   7.323  70.907  1.00  0.00    -0.067 Cl 
HETATM   29  F   UNL     1      -8.855   7.305  65.351  1.00  0.00    -0.140 F  
HETATM   30  C   UNL     1      -6.806   7.701  68.288  1.00  0.00    -0.067 A  
HETATM   31  C   UNL     1      -7.208   7.704  66.961  1.00  0.00    -0.089 A  
HETATM   32  C   UNL     1      -9.386   6.845  67.631  1.00  0.00    -0.121 A  
HETATM   33  C   UNL     1      -8.489   7.280  66.642  1.00  0.00    -0.124 A  
ENDBRANCH   2  25
TORSDOF 5
ENDMDL
MODEL      124
REMARK 921   NORMALIZED FREE ENERGY PREDICTED BY IDOCK:   -5.83 KCAL/MOL
REMARK 922        TOTAL FREE ENERGY PREDICTED BY IDOCK:   -8.21 KCAL/MOL
REMARK 923 INTER-LIGAND FREE ENERGY PREDICTED BY IDOCK:   -7.96 KCAL/MOL
REMARK 924 INTRA-LIGAND FREE ENERGY PREDICTED BY IDOCK:   -0.24 KCAL/MOL
REMARK 927      BINDING AFFINITY PREDICTED BY RF-SCORE:    0.00 PKD
ROOT
HETATM    1  C   UNL     1      -9.992  13.279  67.971  1.00  0.00    -0.233 C  
HETATM    2  C   UNL     1     -11.404  13.842  67.795  1.00  0.00    -0.303 C  
ENDROOT
BRANCH   2   3
HETATM    3  O   UNL     1     -12.133  12.889  67.020  1.00  0.00    -0.376 OA 
BRANCH   3   4
HETATM    4  C   UNL     1     -11.707  12.532  65.773  1.00  0.00    -0.426 A  
HETATM    5  C   UNL     1     -10.596  11.671  63.439  1.00  0.00    -0.409 A  
HETATM    6  C   UNL     1     -10.236  11.004  64.604  1.00  0.00    -0.392 A  
HETATM    7  H1  UNL     1     -12.956  14.741  63.514  1.00  0.00     0.000 HD 
HETATM    8  N   UNL     1     -11.451  12.719  63.386  1.00  0.00    -0.470 NA 
HETATM    9  C   UNL     1     -10.815  11.453  65.786  1.00  0.00    -0.290 A  
HETATM   10  C   UNL     1     -11.973  13.150  64.550  1.00  0.00    -0.389 A  
HETATM   11  H2  UNL     1     -12.373  15.002  65.024  1.00  0.00     0.000 HD 
HETATM   12  N   UNL     1     -12.762  14.289  64.407  1.00  0.00    -0.636 NA 
BRANCH   6  13
HETATM   13  C   UNL     1      -9.267   9.930  64.569  1.00  0.00    -0.315 A  
HETATM   14  N   UNL     1      -7.762   8.396  63.813  1.00  0.00    -0.136 NA 
HETATM   15  C   UNL     1      -8.561   9.402  63.470  1.00  0.00    -0.206 A  
HETATM   16  C   UNL     1      -8.834   9.177  65.643  1.00  0.00    -0.185 A  
HETATM   17  N   UNL     1      -7.953   8.257  65.137  1.00  0.00    -0.120 NA 
BRANCH  17  18
HETATM   18  C   UNL     1      -7.278   7.187  65.871  1.00  0.00    -0.074 C  
HETATM   19  C   UNL     1      -5.783   7.467  66.074  1.00  0.00    -0.036 C  
HETATM   20  C   UNL     1      -5.524   8.480  67.190  1.00  0.00    -0.038 C  
HETATM   21  N   UNL     1      -6.173   8.091  68.442  1.00  0.00    -0.048 NA 
HETATM   22  C   UNL     1      -7.618   7.914  68.283  1.00  0.00    -0.116 C  
HETATM   23  H   UNL     1      -5.962   8.753  69.189  1.00  0.00     0.000 HD 
HETATM   24  C   UNL     1      -7.950   6.876  67.214  1.00  0.00    -0.114 C  
ENDBRANCH  17  18
ENDBRANCH   6  13
ENDBRANCH   3   4
ENDBRANCH   2   3
BRANCH   2  25
HETATM   25  C   UNL     1     -12.046  14.117  69.156  1.00  0.00    -0.362 A  
HETATM   26 CL   UNL     1     -12.264  11.414  69.747  1.00  0.00    -0.349 Cl 
HETATM   27  C   UNL     1     -12.197  15.459  69.589  1.00  0.00    -0.282 A  
HETATM   28 CL   UNL     1     -11.660  16.814  68.648  1.00  0.00     0.034 Cl 
HETATM   29  F   UNL     1     -13.496  12.486  72.112  1.00  0.00    -0.562 F  
HETATM   30  C   UNL     1     -12.774  15.775  70.827  1.00  0.00    -0.388 A  
HETATM   31  C   UNL     1     -13.220  14.765  71.667  1.00  0.00    -0.431 A  
HETATM   32  C   UNL     1     -12.473  13.107  70.047  1.00  0.00    -0.076 A  
HETATM   33  C   UNL     1     -13.067  13.444  71.275  1.00  0.00    -0.238 A  
ENDBRANCH   2  25
TORSDOF 5
ENDMDL
MODEL      125
REMARK 921   NORMALIZED FREE ENERGY PREDICTED BY IDOCK:   -5.80 KCAL/MOL
REMARK 922        TOTAL FREE ENERGY PREDICTED BY IDOCK:   -8.17 KCAL/MOL
REMARK 923 INTER-LIGAND FREE ENERGY PREDICTED BY IDOCK:   -7.45 KCAL/MOL
REMARK 924 INTRA-LIGAND FREE ENERGY PREDICTED BY IDOCK:   -0.72 KCAL/MOL
REMARK 927      BINDING AFFINITY PREDICTED BY RF-SCORE:    0.00 PKD
ROOT
HETATM    1  C   UNL     1     -10.620   5.366  68.654  1.00  0.00    -0.167 C  
HETATM    2  C   UNL     1      -9.895   6.710  68.571  1.00  0.00    -0.139 C  
ENDROOT
BRANCH   2   3
HETATM    3  O   UNL     1     -10.642   7.523  67.664  1.00  0.00    -0.239 OA 
BRANCH   3   4
HETATM    4  C   UNL     1     -10.055   8.580  67.030  1.00  0.00    -0.277 A  
HETATM    5  C   UNL     1      -9.157  10.868  65.855  1.00  0.00    -0.193 A  
HETATM    6  C   UNL     1     -10.113  10.995  66.855  1.00  0.00    -0.248 A  
HETATM    7  H1  UNL     1      -7.931   7.394  64.658  1.00  0.00     0.000 HD 
HETATM    8  N   UNL     1      -8.650   9.690  65.421  1.00  0.00    -0.143 NA 
HETATM    9  C   UNL     1     -10.558   9.818  67.448  1.00  0.00    -0.330 A  
HETATM   10  C   UNL     1      -9.121   8.566  65.993  1.00  0.00    -0.194 A  
HETATM   11  H2  UNL     1      -9.412   6.850  65.107  1.00  0.00     0.000 HD 
HETATM   12  N   UNL     1      -8.613   7.404  65.416  1.00  0.00    -0.092 NA 
BRANCH   6  13
HETATM   13  C   UNL     1     -10.640  12.295  67.211  1.00  0.00    -0.249 A  
HETATM   14  N   UNL     1     -11.897  13.931  68.173  1.00  0.00    -0.358 NA 
HETATM   15  C   UNL     1     -11.667  12.623  68.117  1.00  0.00    -0.347 A  
HETATM   16  C   UNL     1     -10.229  13.514  66.707  1.00  0.00    -0.264 A  
HETATM   17  N   UNL     1     -11.028  14.460  67.294  1.00  0.00    -0.291 NA 
BRANCH  17  18
HETATM   18  C   UNL     1     -11.029  15.899  67.030  1.00  0.00    -0.189 C  
HETATM   19  C   UNL     1     -10.686  16.725  68.277  1.00  0.00    -0.364 C  
HETATM   20  C   UNL     1      -9.188  16.720  68.588  1.00  0.00    -0.257 C  
HETATM   21  N   UNL     1      -8.390  17.133  67.433  1.00  0.00    -0.188 NA 
HETATM   22  C   UNL     1      -8.638  16.291  66.261  1.00  0.00    -0.339 C  
HETATM   23  H   UNL     1      -7.397  17.164  67.662  1.00  0.00     0.000 HD 
HETATM   24  C   UNL     1     -10.112  16.287  65.864  1.00  0.00    -0.381 C  
ENDBRANCH  17  18
ENDBRANCH   6  13
ENDBRANCH   3   4
ENDBRANCH   2   3
BRANCH   2  25
HETATM   25  C   UNL     1      -9.762   7.337  69.960  1.00  0.00    -0.175 A  
HETATM   26 CL   UNL     1     -12.396   6.757  70.618  1.00  0.00    -0.344 Cl 
HETATM   27  C   UNL     1      -8.501   7.837  70.374  1.00  0.00    -0.132 A  
HETATM   28 CL   UNL     1      -7.085   7.749  69.376  1.00  0.00    -0.069 Cl 
HETATM   29  F   UNL     1     -11.626   8.123  73.027  1.00  0.00    -0.454 F  
HETATM   30  C   UNL     1      -8.315   8.419  71.636  1.00  0.00    -0.202 A  
HETATM   31  C   UNL     1      -9.379   8.521  72.520  1.00  0.00    -0.316 A  
HETATM   32  C   UNL     1     -10.819   7.418  70.895  1.00  0.00    -0.240 A  
HETATM   33  C   UNL     1     -10.618   8.022  72.147  1.00  0.00    -0.272 A  
ENDBRANCH   2  25
TORSDOF 5
ENDMDL
MODEL      126
REMARK 921   NORMALIZED FREE ENERGY PREDICTED BY IDOCK:   -5.79 KCAL/MOL
REMARK 922        TOTAL FREE ENERGY PREDICTED BY IDOCK:   -8.16 KCAL/MOL
REMARK 923 INTER-LIGAND FREE ENERGY PREDICTED BY IDOCK:   -8.64 KCAL/MOL
REMARK 924 INTRA-LIGAND FREE ENERGY PREDICTED BY IDOCK:    0.49 KCAL/MOL
REMARK 927      BINDING AFFINITY PREDICTED BY RF-SCORE:    0.00 PKD
ROOT
HETATM    1  C   UNL     1     -12.482  12.731  65.365  1.00  0.00    -0.478 C  
HETATM    2  C   UNL     1     -11.352  12.485  66.366  1.00  0.00    -0.329 C  
ENDROOT
BRANCH   2   3
HETATM    3  O   UNL     1     -11.970  12.240  67.631  1.00  0.00    -0.494 OA 
BRANCH   3   4
HETATM    4  C   UNL     1     -11.823  13.121  68.662  1.00  0.00    -0.328 A  
HETATM    5  C   UNL     1     -11.254  14.993  70.558  1.00  0.00    -0.248 A  
HETATM    6  C   UNL     1     -10.721  15.185  69.289  1.00  0.00    -0.250 A  
HETATM    7  H1  UNL     1     -13.331  11.841  71.424  1.00  0.00     0.000 HD 
HETATM    8  N   UNL     1     -12.027  13.941  70.917  1.00  0.00    -0.291 NA 
HETATM    9  C   UNL     1     -11.024  14.223  68.332  1.00  0.00    -0.267 A  
HETATM   10  C   UNL     1     -12.279  13.011  69.977  1.00  0.00    -0.236 A  
HETATM   11  H2  UNL     1     -12.446  11.087  70.267  1.00  0.00     0.000 HD 
HETATM   12  N   UNL     1     -12.998  11.922  70.464  1.00  0.00     0.133 NA 
BRANCH   6  13
HETATM   13  C   UNL     1      -9.856  16.312  69.016  1.00  0.00    -0.257 A  
HETATM   14  N   UNL     1      -7.997  17.605  68.772  1.00  0.00    -0.274 NA 
HETATM   15  C   UNL     1      -8.450  16.391  69.071  1.00  0.00    -0.225 A  
HETATM   16  C   UNL     1     -10.253  17.581  68.642  1.00  0.00    -0.373 A  
HETATM   17  N   UNL     1      -9.107  18.325  68.532  1.00  0.00    -0.313 NA 
BRANCH  17  18
HETATM   18  C   UNL     1      -9.008  19.752  68.228  1.00  0.00    -0.287 C  
HETATM   19  C   UNL     1      -7.703  20.110  67.503  1.00  0.00    -0.342 C  
HETATM   20  C   UNL     1      -7.736  19.733  66.021  1.00  0.00    -0.332 C  
HETATM   21  N   UNL     1      -8.902  20.297  65.340  1.00  0.00    -0.323 NA 
HETATM   22  C   UNL     1     -10.160  19.885  65.966  1.00  0.00    -0.487 C  
HETATM   23  H   UNL     1      -8.894  20.072  64.345  1.00  0.00     0.000 HD 
HETATM   24  C   UNL     1     -10.216  20.274  67.442  1.00  0.00    -0.494 C  
ENDBRANCH  17  18
ENDBRANCH   6  13
ENDBRANCH   3   4
ENDBRANCH   2   3
BRANCH   2  25
HETATM   25  C   UNL     1     -10.465  11.327  65.904  1.00  0.00    -0.314 A  
HETATM   26 CL   UNL     1      -9.775  10.644  68.504  1.00  0.00    -0.167 Cl 
HETATM   27  C   UNL     1     -10.396  11.021  64.520  1.00  0.00    -0.354 A  
HETATM   28 CL   UNL     1     -11.299  11.891  63.322  1.00  0.00    -0.419 Cl 
HETATM   29  F   UNL     1      -8.199   8.695  67.099  1.00  0.00    -0.103 F  
HETATM   30  C   UNL     1      -9.605   9.969  64.036  1.00  0.00    -0.243 A  
HETATM   31  C   UNL     1      -8.858   9.197  64.913  1.00  0.00    -0.215 A  
HETATM   32  C   UNL     1      -9.725  10.501  66.778  1.00  0.00    -0.179 A  
HETATM   33  C   UNL     1      -8.923   9.465  66.272  1.00  0.00    -0.156 A  
ENDBRANCH   2  25
TORSDOF 5
ENDMDL
MODEL      127
REMARK 921   NORMALIZED FREE ENERGY PREDICTED BY IDOCK:   -5.79 KCAL/MOL
REMARK 922        TOTAL FREE ENERGY PREDICTED BY IDOCK:   -8.16 KCAL/MOL
REMARK 923 INTER-LIGAND FREE ENERGY PREDICTED BY IDOCK:   -7.60 KCAL/MOL
REMARK 924 INTRA-LIGAND FREE ENERGY PREDICTED BY IDOCK:   -0.56 KCAL/MOL
REMARK 927      BINDING AFFINITY PREDICTED BY RF-SCORE:    0.00 PKD
ROOT
HETATM    1  C   UNL     1      -6.776   7.821  67.352  1.00  0.00    -0.068 C  
HETATM    2  C   UNL     1      -8.219   8.221  67.042  1.00  0.00    -0.104 C  
ENDROOT
BRANCH   2   3
HETATM    3  O   UNL     1      -8.528   7.679  65.756  1.00  0.00    -0.135 OA 
BRANCH   3   4
HETATM    4  C   UNL     1      -8.697   8.496  64.677  1.00  0.00     0.013 A  
HETATM    5  C   UNL     1      -9.303  10.253  62.685  1.00  0.00    -0.309 A  
HETATM    6  C   UNL     1      -9.795  10.530  63.955  1.00  0.00    -0.373 A  
HETATM    7  H1  UNL     1      -7.288   7.027  61.956  1.00  0.00     0.000 HD 
HETATM    8  N   UNL     1      -8.553   9.171  62.370  1.00  0.00    -0.210 NA 
HETATM    9  C   UNL     1      -9.473   9.627  64.961  1.00  0.00    -0.312 A  
HETATM   10  C   UNL     1      -8.282   8.298  63.358  1.00  0.00    -0.088 A  
HETATM   11  H2  UNL     1      -8.145   6.358  63.184  1.00  0.00     0.000 HD 
HETATM   12  N   UNL     1      -7.590   7.172  62.920  1.00  0.00    -0.100 NA 
BRANCH   6  13
HETATM   13  C   UNL     1     -10.640  11.683  64.182  1.00  0.00    -0.411 A  
HETATM   14  N   UNL     1     -12.286  13.239  63.952  1.00  0.00    -0.660 NA 
HETATM   15  C   UNL     1     -11.771  12.116  63.462  1.00  0.00    -0.490 A  
HETATM   16  C   UNL     1     -10.492  12.626  65.181  1.00  0.00    -0.296 A  
HETATM   17  N   UNL     1     -11.486  13.549  64.986  1.00  0.00    -0.310 NA 
BRANCH  17  18
HETATM   18  C   UNL     1     -11.706  14.780  65.746  1.00  0.00    -0.252 C  
HETATM   19  C   UNL     1     -11.693  14.546  67.263  1.00  0.00    -0.429 C  
HETATM   20  C   UNL     1     -10.277  14.382  67.817  1.00  0.00    -0.230 C  
HETATM   21  N   UNL     1      -9.411  15.500  67.439  1.00  0.00    -0.205 NA 
HETATM   22  C   UNL     1      -9.338  15.675  65.987  1.00  0.00    -0.349 C  
HETATM   23  H   UNL     1      -8.481  15.401  67.845  1.00  0.00     0.000 HD 
HETATM   24  C   UNL     1     -10.718  15.892  65.370  1.00  0.00    -0.415 C  
ENDBRANCH  17  18
ENDBRANCH   6  13
ENDBRANCH   3   4
ENDBRANCH   2   3
BRANCH   2  25
HETATM   25  C   UNL     1      -9.163   7.726  68.139  1.00  0.00    -0.138 A  
HETATM   26 CL   UNL     1      -9.811  10.307  68.928  1.00  0.00    -0.186 Cl 
HETATM   27  C   UNL     1      -9.392   6.333  68.275  1.00  0.00    -0.112 A  
HETATM   28 CL   UNL     1      -8.661   5.157  67.231  1.00  0.00    -0.104 Cl 
HETATM   29  F   UNL     1     -11.360   8.849  70.861  1.00  0.00    -0.273 F  
HETATM   30  C   UNL     1     -10.250   5.818  69.258  1.00  0.00    -0.292 A  
HETATM   31  C   UNL     1     -10.901   6.675  70.133  1.00  0.00    -0.330 A  
HETATM   32  C   UNL     1      -9.869   8.578  69.018  1.00  0.00    -0.183 A  
HETATM   33  C   UNL     1     -10.708   8.042  70.008  1.00  0.00    -0.244 A  
ENDBRANCH   2  25
TORSDOF 5
ENDMDL
MODEL      128
REMARK 921   NORMALIZED FREE ENERGY PREDICTED BY IDOCK:   -5.79 KCAL/MOL
REMARK 922        TOTAL FREE ENERGY PREDICTED BY IDOCK:   -8.16 KCAL/MOL
REMARK 923 INTER-LIGAND FREE ENERGY PREDICTED BY IDOCK:   -7.59 KCAL/MOL
REMARK 924 INTRA-LIGAND FREE ENERGY PREDICTED BY IDOCK:   -0.56 KCAL/MOL
REMARK 927      BINDING AFFINITY PREDICTED BY RF-SCORE:    0.00 PKD
ROOT
HETATM    1  C   UNL     1     -10.208  16.319  65.541  1.00  0.00    -0.326 C  
HETATM    2  C   UNL     1      -9.969  16.727  66.995  1.00  0.00    -0.269 C  
ENDROOT
BRANCH   2   3
HETATM    3  O   UNL     1      -9.459  15.574  67.667  1.00  0.00    -0.207 OA 
BRANCH   3   4
HETATM    4  C   UNL     1     -10.297  14.577  68.076  1.00  0.00    -0.229 A  
HETATM    5  C   UNL     1     -11.865  12.416  68.619  1.00  0.00    -0.302 A  
HETATM    6  C   UNL     1     -10.763  12.217  67.795  1.00  0.00    -0.246 A  
HETATM    7  H1  UNL     1     -12.777  15.933  69.961  1.00  0.00     0.000 HD 
HETATM    8  N   UNL     1     -12.214  13.607  69.161  1.00  0.00    -0.296 NA 
HETATM    9  C   UNL     1      -9.971  13.329  67.531  1.00  0.00    -0.223 A  
HETATM   10  C   UNL     1     -11.446  14.671  68.864  1.00  0.00    -0.298 A  
HETATM   11  H2  UNL     1     -12.059  16.506  68.603  1.00  0.00     0.000 HD 
HETATM   12  N   UNL     1     -11.937  15.864  69.386  1.00  0.00    -0.324 NA 
BRANCH   6  13
HETATM   13  C   UNL     1     -10.503  10.918  67.214  1.00  0.00    -0.275 A  
HETATM   14  N   UNL     1      -9.879   9.286  65.755  1.00  0.00    -0.288 NA 
HETATM   15  C   UNL     1      -9.951  10.597  65.958  1.00  0.00    -0.239 A  
HETATM   16  C   UNL     1     -10.761   9.691  67.794  1.00  0.00    -0.257 A  
HETATM   17  N   UNL     1     -10.394   8.746  66.873  1.00  0.00    -0.282 NA 
BRANCH  17  18
HETATM   18  C   UNL     1     -10.542   7.295  66.991  1.00  0.00    -0.344 C  
HETATM   19  C   UNL     1      -9.334   6.534  66.428  1.00  0.00    -0.175 C  
HETATM   20  C   UNL     1      -8.136   6.553  67.379  1.00  0.00    -0.121 C  
HETATM   21  N   UNL     1      -8.494   6.079  68.717  1.00  0.00    -0.112 NA 
HETATM   22  C   UNL     1      -9.583   6.861  69.305  1.00  0.00    -0.149 C  
HETATM   23  H   UNL     1      -7.680   6.059  69.331  1.00  0.00     0.000 HD 
HETATM   24  C   UNL     1     -10.833   6.846  68.428  1.00  0.00    -0.238 C  
ENDBRANCH  17  18
ENDBRANCH   6  13
ENDBRANCH   3   4
ENDBRANCH   2   3
BRANCH   2  25
HETATM   25  C   UNL     1      -9.021  17.926  67.070  1.00  0.00    -0.254 A  
HETATM   26 CL   UNL     1      -6.765  16.322  66.864  1.00  0.00    -0.220 Cl 
HETATM   27  C   UNL     1      -9.566  19.235  67.124  1.00  0.00    -0.325 A  
HETATM   28 CL   UNL     1     -11.273  19.541  67.088  1.00  0.00    -0.299 Cl 
HETATM   29  F   UNL     1      -5.473  18.874  67.137  1.00  0.00    -0.148 F  
HETATM   30  C   UNL     1      -8.750  20.372  67.189  1.00  0.00    -0.413 A  
HETATM   31  C   UNL     1      -7.369  20.240  67.204  1.00  0.00    -0.329 A  
HETATM   32  C   UNL     1      -7.612  17.822  67.047  1.00  0.00    -0.204 A  
HETATM   33  C   UNL     1      -6.811  18.972  67.132  1.00  0.00    -0.198 A  
ENDBRANCH   2  25
TORSDOF 5
ENDMDL
MODEL      129
REMARK 921   NORMALIZED FREE ENERGY PREDICTED BY IDOCK:   -5.79 KCAL/MOL
REMARK 922        TOTAL FREE ENERGY PREDICTED BY IDOCK:   -8.15 KCAL/MOL
REMARK 923 INTER-LIGAND FREE ENERGY PREDICTED BY IDOCK:   -8.19 KCAL/MOL
REMARK 924 INTRA-LIGAND FREE ENERGY PREDICTED BY IDOCK:    0.04 KCAL/MOL
REMARK 927      BINDING AFFINITY PREDICTED BY RF-SCORE:    0.00 PKD
ROOT
HETATM    1  C   UNL     1     -12.022  12.472  67.237  1.00  0.00    -0.286 C  
HETATM    2  C   UNL     1     -11.769  13.297  68.499  1.00  0.00    -0.352 C  
ENDROOT
BRANCH   2   3
HETATM    3  O   UNL     1     -10.931  12.507  69.345  1.00  0.00    -0.133 OA 
BRANCH   3   4
HETATM    4  C   UNL     1     -11.446  11.464  70.059  1.00  0.00    -0.247 A  
HETATM    5  C   UNL     1     -12.372   9.184  71.229  1.00  0.00    -0.315 A  
HETATM    6  C   UNL     1     -11.387   9.051  70.257  1.00  0.00    -0.202 A  
HETATM    7  H1  UNL     1     -13.870  12.641  72.128  1.00  0.00     0.000 HD 
HETATM    8  N   UNL     1     -12.906  10.364  71.626  1.00  0.00    -0.440 NA 
HETATM    9  C   UNL     1     -10.922  10.224  69.673  1.00  0.00    -0.314 A  
HETATM   10  C   UNL     1     -12.457  11.480  71.021  1.00  0.00    -0.356 A  
HETATM   11  H2  UNL     1     -13.511  13.064  70.585  1.00  0.00     0.000 HD 
HETATM   12  N   UNL     1     -13.131  12.629  71.425  1.00  0.00    -0.286 NA 
BRANCH   6  13
HETATM   13  C   UNL     1     -10.920   7.741  69.857  1.00  0.00    -0.194 A  
HETATM   14  N   UNL     1     -10.648   5.484  69.738  1.00  0.00    -0.321 NA 
HETATM   15  C   UNL     1     -11.312   6.473  70.328  1.00  0.00    -0.395 A  
HETATM   16  C   UNL     1      -9.956   7.467  68.906  1.00  0.00    -0.168 A  
HETATM   17  N   UNL     1      -9.811   6.104  68.889  1.00  0.00    -0.136 NA 
BRANCH  17  18
HETATM   18  C   UNL     1      -8.856   5.330  68.096  1.00  0.00    -0.105 C  
HETATM   19  C   UNL     1      -9.529   4.199  67.306  1.00  0.00    -0.220 C  
HETATM   20  C   UNL     1     -10.250   4.708  66.057  1.00  0.00    -0.277 C  
HETATM   21  N   UNL     1      -9.368   5.507  65.205  1.00  0.00    -0.361 NA 
HETATM   22  C   UNL     1      -8.793   6.647  65.923  1.00  0.00    -0.112 C  
HETATM   23  H   UNL     1      -9.846   5.809  64.357  1.00  0.00     0.000 HD 
HETATM   24  C   UNL     1      -8.015   6.207  67.161  1.00  0.00    -0.102 C  
ENDBRANCH  17  18
ENDBRANCH   6  13
ENDBRANCH   3   4
ENDBRANCH   2   3
BRANCH   2  25
HETATM   25  C   UNL     1     -11.149  14.650  68.144  1.00  0.00    -0.285 A  
HETATM   26 CL   UNL     1      -9.965  13.648  65.841  1.00  0.00    -0.313 Cl 
HETATM   27  C   UNL     1     -11.433  15.775  68.958  1.00  0.00    -0.391 A  
HETATM   28 CL   UNL     1     -12.480  15.692  70.338  1.00  0.00    -0.439 Cl 
HETATM   29  F   UNL     1      -8.983  16.346  65.708  1.00  0.00    -0.340 F  
HETATM   30  C   UNL     1     -10.898  17.041  68.681  1.00  0.00    -0.284 A  
HETATM   31  C   UNL     1     -10.063  17.222  67.588  1.00  0.00    -0.313 A  
HETATM   32  C   UNL     1     -10.327  14.869  67.015  1.00  0.00    -0.264 A  
HETATM   33  C   UNL     1      -9.784  16.140  66.765  1.00  0.00    -0.242 A  
ENDBRANCH   2  25
TORSDOF 5
ENDMDL
MODEL      130
REMARK 921   NORMALIZED FREE ENERGY PREDICTED BY IDOCK:   -5.78 KCAL/MOL
REMARK 922        TOTAL FREE ENERGY PREDICTED BY IDOCK:   -8.15 KCAL/MOL
REMARK 923 INTER-LIGAND FREE ENERGY PREDICTED BY IDOCK:   -7.33 KCAL/MOL
REMARK 924 INTRA-LIGAND FREE ENERGY PREDICTED BY IDOCK:   -0.82 KCAL/MOL
REMARK 927      BINDING AFFINITY PREDICTED BY RF-SCORE:    0.00 PKD
ROOT
HETATM    1  C   UNL     1      -7.748   7.355  70.918  1.00  0.00    -0.088 C  
HETATM    2  C   UNL     1      -9.126   7.818  70.442  1.00  0.00    -0.155 C  
ENDROOT
BRANCH   2   3
HETATM    3  O   UNL     1      -9.122   9.245  70.500  1.00  0.00    -0.221 OA 
BRANCH   3   4
HETATM    4  C   UNL     1     -10.243   9.959  70.189  1.00  0.00    -0.273 A  
HETATM    5  C   UNL     1     -12.272  11.611  69.429  1.00  0.00    -0.182 A  
HETATM    6  C   UNL     1     -11.061  11.732  68.757  1.00  0.00    -0.293 A  
HETATM    7  H1  UNL     1     -12.706   9.142  72.381  1.00  0.00     0.000 HD 
HETATM    8  N   UNL     1     -12.508  10.738  70.436  1.00  0.00    -0.342 NA 
HETATM    9  C   UNL     1     -10.038  10.879  69.154  1.00  0.00    -0.198 A  
HETATM   10  C   UNL     1     -11.489   9.945  70.819  1.00  0.00    -0.354 A  
HETATM   11  H2  UNL     1     -11.101   9.355  72.639  1.00  0.00     0.000 HD 
HETATM   12  N   UNL     1     -11.796   9.152  71.921  1.00  0.00    -0.370 NA 
BRANCH   6  13
HETATM   13  C   UNL     1     -10.886  12.737  67.731  1.00  0.00    -0.248 A  
HETATM   14  N   UNL     1     -11.163  13.963  65.832  1.00  0.00    -0.295 NA 
HETATM   15  C   UNL     1     -11.630  12.948  66.553  1.00  0.00    -0.371 A  
HETATM   16  C   UNL     1      -9.914  13.718  67.699  1.00  0.00    -0.238 A  
HETATM   17  N   UNL     1     -10.106  14.410  66.531  1.00  0.00    -0.268 NA 
BRANCH  17  18
HETATM   18  C   UNL     1      -9.284  15.502  66.008  1.00  0.00    -0.326 C  
HETATM   19  C   UNL     1     -10.075  16.806  65.843  1.00  0.00    -0.324 C  
HETATM   20  C   UNL     1     -10.298  17.527  67.173  1.00  0.00    -0.330 C  
HETATM   21  N   UNL     1      -9.042  17.748  67.891  1.00  0.00    -0.254 NA 
HETATM   22  C   UNL     1      -8.322  16.498  68.140  1.00  0.00    -0.186 C  
HETATM   23  H   UNL     1      -9.197  18.264  68.757  1.00  0.00     0.000 HD 
HETATM   24  C   UNL     1      -8.023  15.745  66.845  1.00  0.00    -0.285 C  
ENDBRANCH  17  18
ENDBRANCH   6  13
ENDBRANCH   3   4
ENDBRANCH   2   3
BRANCH   2  25
HETATM   25  C   UNL     1      -9.420   7.280  69.040  1.00  0.00    -0.147 A  
HETATM   26 CL   UNL     1      -6.975   8.146  68.053  1.00  0.00    -0.076 Cl 
HETATM   27  C   UNL     1     -10.625   6.567  68.813  1.00  0.00    -0.243 A  
HETATM   28 CL   UNL     1     -11.779   6.253  70.070  1.00  0.00    -0.401 Cl 
HETATM   29  F   UNL     1      -8.068   7.049  65.632  1.00  0.00    -0.101 F  
HETATM   30  C   UNL     1     -10.948   6.046  67.552  1.00  0.00    -0.335 A  
HETATM   31  C   UNL     1     -10.084   6.224  66.482  1.00  0.00    -0.168 A  
HETATM   32  C   UNL     1      -8.540   7.413  67.943  1.00  0.00    -0.125 A  
HETATM   33  C   UNL     1      -8.891   6.902  66.682  1.00  0.00    -0.135 A  
ENDBRANCH   2  25
TORSDOF 5
ENDMDL
MODEL      131
REMARK 921   NORMALIZED FREE ENERGY PREDICTED BY IDOCK:   -5.77 KCAL/MOL
REMARK 922        TOTAL FREE ENERGY PREDICTED BY IDOCK:   -8.12 KCAL/MOL
REMARK 923 INTER-LIGAND FREE ENERGY PREDICTED BY IDOCK:   -7.25 KCAL/MOL
REMARK 924 INTRA-LIGAND FREE ENERGY PREDICTED BY IDOCK:   -0.87 KCAL/MOL
REMARK 927      BINDING AFFINITY PREDICTED BY RF-SCORE:    0.00 PKD
ROOT
HETATM    1  C   UNL     1     -11.888  14.081  67.407  1.00  0.00    -0.445 C  
HETATM    2  C   UNL     1     -11.189  13.265  68.495  1.00  0.00    -0.271 C  
ENDROOT
BRANCH   2   3
HETATM    3  O   UNL     1      -9.822  13.680  68.505  1.00  0.00    -0.230 OA 
BRANCH   3   4
HETATM    4  C   UNL     1      -8.826  12.808  68.173  1.00  0.00    -0.194 A  
HETATM    5  C   UNL     1      -6.974  10.857  67.738  1.00  0.00    -0.077 A  
HETATM    6  C   UNL     1      -8.184  10.476  68.304  1.00  0.00    -0.117 A  
HETATM    7  H1  UNL     1      -6.187  14.568  66.957  1.00  0.00     0.000 HD 
HETATM    8  N   UNL     1      -6.651  12.127  67.396  1.00  0.00    -0.132 NA 
HETATM    9  C   UNL     1      -9.120  11.482  68.516  1.00  0.00    -0.157 A  
HETATM   10  C   UNL     1      -7.565  13.085  67.640  1.00  0.00    -0.160 A  
HETATM   11  H2  UNL     1      -7.200  14.920  68.197  1.00  0.00     0.000 HD 
HETATM   12  N   UNL     1      -7.107  14.366  67.346  1.00  0.00    -0.172 NA 
BRANCH   6  13
HETATM   13  C   UNL     1      -8.416   9.101  68.691  1.00  0.00    -0.127 A  
HETATM   14  N   UNL     1      -8.099   7.001  69.512  1.00  0.00    -0.128 NA 
HETATM   15  C   UNL     1      -7.547   8.197  69.332  1.00  0.00    -0.101 A  
HETATM   16  C   UNL     1      -9.575   8.376  68.493  1.00  0.00    -0.149 A  
HETATM   17  N   UNL     1      -9.327   7.118  68.978  1.00  0.00    -0.141 NA 
BRANCH  17  18
HETATM   18  C   UNL     1     -10.224   5.963  68.932  1.00  0.00    -0.198 C  
HETATM   19  C   UNL     1     -11.023   5.891  67.623  1.00  0.00    -0.247 C  
HETATM   20  C   UNL     1     -10.185   5.366  66.456  1.00  0.00    -0.245 C  
HETATM   21  N   UNL     1      -9.553   4.085  66.771  1.00  0.00    -0.206 NA 
HETATM   22  C   UNL     1      -8.710   4.164  67.966  1.00  0.00    -0.100 C  
HETATM   23  H   UNL     1      -9.029   3.725  65.973  1.00  0.00     0.000 HD 
HETATM   24  C   UNL     1      -9.496   4.638  69.186  1.00  0.00    -0.224 C  
ENDBRANCH  17  18
ENDBRANCH   6  13
ENDBRANCH   3   4
ENDBRANCH   2   3
BRANCH   2  25
HETATM   25  C   UNL     1     -11.881  13.464  69.845  1.00  0.00    -0.385 A  
HETATM   26 CL   UNL     1     -12.367  10.747  70.144  1.00  0.00    -0.400 Cl 
HETATM   27  C   UNL     1     -11.938  14.765  70.407  1.00  0.00    -0.309 A  
HETATM   28 CL   UNL     1     -11.232  16.149  69.636  1.00  0.00    -0.330 Cl 
HETATM   29  F   UNL     1     -13.632  11.692  72.545  1.00  0.00    -0.467 F  
HETATM   30  C   UNL     1     -12.554  15.010  71.642  1.00  0.00    -0.409 A  
HETATM   31  C   UNL     1     -13.133  13.968  72.351  1.00  0.00    -0.536 A  
HETATM   32  C   UNL     1     -12.444  12.415  70.606  1.00  0.00    -0.234 A  
HETATM   33  C   UNL     1     -13.074  12.683  71.832  1.00  0.00    -0.366 A  
ENDBRANCH   2  25
TORSDOF 5
ENDMDL
MODEL      132
REMARK 921   NORMALIZED FREE ENERGY PREDICTED BY IDOCK:   -5.74 KCAL/MOL
REMARK 922        TOTAL FREE ENERGY PREDICTED BY IDOCK:   -8.10 KCAL/MOL
REMARK 923 INTER-LIGAND FREE ENERGY PREDICTED BY IDOCK:   -7.60 KCAL/MOL
REMARK 924 INTRA-LIGAND FREE ENERGY PREDICTED BY IDOCK:   -0.50 KCAL/MOL
REMARK 927      BINDING AFFINITY PREDICTED BY RF-SCORE:    0.00 PKD
ROOT
HETATM    1  C   UNL     1      -7.774   9.167  70.614  1.00  0.00    -0.152 C  
HETATM    2  C   UNL     1      -8.583   8.270  71.553  1.00  0.00    -0.155 C  
ENDROOT
BRANCH   2   3
HETATM    3  O   UNL     1      -9.824   8.003  70.897  1.00  0.00    -0.174 OA 
BRANCH   3   4
HETATM    4  C   UNL     1     -10.876   8.864  71.016  1.00  0.00    -0.259 A  
HETATM    5  C   UNL     1     -12.780  10.811  71.096  1.00  0.00    -0.431 A  
HETATM    6  C   UNL     1     -11.779  10.934  70.140  1.00  0.00    -0.433 A  
HETATM    7  H1  UNL     1     -12.781   7.911  73.662  1.00  0.00     0.000 HD 
HETATM    8  N   UNL     1     -12.869   9.800  71.991  1.00  0.00    -0.405 NA 
HETATM    9  C   UNL     1     -10.818   9.930  70.109  1.00  0.00    -0.356 A  
HETATM   10  C   UNL     1     -11.907   8.858  71.957  1.00  0.00    -0.368 A  
HETATM   11  H2  UNL     1     -11.150   7.920  73.493  1.00  0.00     0.000 HD 
HETATM   12  N   UNL     1     -12.028   7.915  72.974  1.00  0.00    -0.132 NA 
BRANCH   6  13
HETATM   13  C   UNL     1     -11.735  12.084  69.263  1.00  0.00    -0.389 A  
HETATM   14  N   UNL     1     -11.499  14.217  68.501  1.00  0.00    -0.281 NA 
HETATM   15  C   UNL     1     -11.416  13.423  69.564  1.00  0.00    -0.244 A  
HETATM   16  C   UNL     1     -12.015  12.098  67.910  1.00  0.00    -0.148 A  
HETATM   17  N   UNL     1     -11.884  13.400  67.505  1.00  0.00    -0.365 NA 
BRANCH  17  18
HETATM   18  C   UNL     1     -12.147  13.938  66.170  1.00  0.00    -0.448 C  
HETATM   19  C   UNL     1     -11.046  14.897  65.695  1.00  0.00    -0.348 C  
HETATM   20  C   UNL     1      -9.794  14.158  65.220  1.00  0.00    -0.164 C  
HETATM   21  N   UNL     1     -10.107  13.153  64.203  1.00  0.00    -0.721 NA 
HETATM   22  C   UNL     1     -11.086  12.174  64.678  1.00  0.00    -0.317 C  
HETATM   23  H   UNL     1      -9.261  12.694  63.865  1.00  0.00     0.000 HD 
HETATM   24  C   UNL     1     -12.385  12.841  65.126  1.00  0.00    -0.555 C  
ENDBRANCH  17  18
ENDBRANCH   6  13
ENDBRANCH   3   4
ENDBRANCH   2   3
BRANCH   2  25
HETATM   25  C   UNL     1      -7.802   6.999  71.888  1.00  0.00    -0.094 A  
HETATM   26 CL   UNL     1      -7.836   6.125  69.254  1.00  0.00    -0.102 Cl 
HETATM   27  C   UNL     1      -7.341   6.801  73.215  1.00  0.00    -0.079 A  
HETATM   28 CL   UNL     1      -7.606   7.958  74.480  1.00  0.00    -0.215 Cl 
HETATM   29  F   UNL     1      -6.458   3.901  70.441  1.00  0.00    -0.027 F  
HETATM   30  C   UNL     1      -6.617   5.659  73.583  1.00  0.00    -0.078 A  
HETATM   31  C   UNL     1      -6.333   4.680  72.642  1.00  0.00    -0.026 A  
HETATM   32  C   UNL     1      -7.466   6.005  70.942  1.00  0.00    -0.091 A  
HETATM   33  C   UNL     1      -6.756   4.858  71.333  1.00  0.00    -0.039 A  
ENDBRANCH   2  25
TORSDOF 5
ENDMDL
MODEL      133
REMARK 921   NORMALIZED FREE ENERGY PREDICTED BY IDOCK:   -5.74 KCAL/MOL
REMARK 922        TOTAL FREE ENERGY PREDICTED BY IDOCK:   -8.09 KCAL/MOL
REMARK 923 INTER-LIGAND FREE ENERGY PREDICTED BY IDOCK:   -7.81 KCAL/MOL
REMARK 924 INTRA-LIGAND FREE ENERGY PREDICTED BY IDOCK:   -0.28 KCAL/MOL
REMARK 927      BINDING AFFINITY PREDICTED BY RF-SCORE:    0.00 PKD
ROOT
HETATM    1  C   UNL     1      -8.613  11.051  67.690  1.00  0.00    -0.125 C  
HETATM    2  C   UNL     1     -10.053  10.586  67.470  1.00  0.00    -0.189 C  
ENDROOT
BRANCH   2   3
HETATM    3  O   UNL     1     -10.381  10.892  66.113  1.00  0.00    -0.241 OA 
BRANCH   3   4
HETATM    4  C   UNL     1     -10.889  12.113  65.777  1.00  0.00    -0.281 A  
HETATM    5  C   UNL     1     -11.815  14.650  65.418  1.00  0.00    -0.304 A  
HETATM    6  C   UNL     1     -10.862  14.451  66.411  1.00  0.00    -0.314 A  
HETATM    7  H1  UNL     1     -13.230  11.698  63.350  1.00  0.00     0.000 HD 
HETATM    8  N   UNL     1     -12.318  13.674  64.627  1.00  0.00    -0.544 NA 
HETATM    9  C   UNL     1     -10.397  13.151  66.578  1.00  0.00    -0.284 A  
HETATM   10  C   UNL     1     -11.870  12.421  64.832  1.00  0.00    -0.386 A  
HETATM   11  H2  UNL     1     -12.912  10.778  64.670  1.00  0.00     0.000 HD 
HETATM   12  N   UNL     1     -12.513  11.473  64.040  1.00  0.00    -0.007 NA 
BRANCH   6  13
HETATM   13  C   UNL     1     -10.428  15.549  67.247  1.00  0.00    -0.279 A  
HETATM   14  N   UNL     1     -10.288  17.036  68.966  1.00  0.00    -0.319 NA 
HETATM   15  C   UNL     1     -10.924  15.967  68.498  1.00  0.00    -0.324 A  
HETATM   16  C   UNL     1      -9.412  16.442  66.970  1.00  0.00    -0.230 A  
HETATM   17  N   UNL     1      -9.383  17.327  68.015  1.00  0.00    -0.257 NA 
BRANCH  17  18
HETATM   18  C   UNL     1      -8.523  18.503  68.151  1.00  0.00    -0.296 C  
HETATM   19  C   UNL     1      -8.098  19.079  66.793  1.00  0.00    -0.279 C  
HETATM   20  C   UNL     1      -9.210  19.891  66.128  1.00  0.00    -0.336 C  
HETATM   21  N   UNL     1      -9.730  20.933  67.014  1.00  0.00    -0.651 NA 
HETATM   22  C   UNL     1     -10.229  20.384  68.277  1.00  0.00    -0.117 C  
HETATM   23  H   UNL     1     -10.444  21.492  66.548  1.00  0.00     0.000 HD 
HETATM   24  C   UNL     1      -9.152  19.598  69.021  1.00  0.00    -0.215 C  
ENDBRANCH  17  18
ENDBRANCH   6  13
ENDBRANCH   3   4
ENDBRANCH   2   3
BRANCH   2  25
HETATM   25  C   UNL     1     -10.193   9.097  67.793  1.00  0.00    -0.278 A  
HETATM   26 CL   UNL     1      -9.021   8.331  65.396  1.00  0.00    -0.121 Cl 
HETATM   27  C   UNL     1     -10.719   8.711  69.053  1.00  0.00    -0.101 A  
HETATM   28 CL   UNL     1     -11.193   9.860  70.262  1.00  0.00    -0.334 Cl 
HETATM   29  F   UNL     1      -9.609   5.725  66.456  1.00  0.00    -0.143 F  
HETATM   30  C   UNL     1     -10.868   7.363  69.409  1.00  0.00    -0.184 A  
HETATM   31  C   UNL     1     -10.501   6.362  68.521  1.00  0.00    -0.265 A  
HETATM   32  C   UNL     1      -9.791   8.058  66.924  1.00  0.00    -0.248 A  
HETATM   33  C   UNL     1      -9.966   6.714  67.290  1.00  0.00    -0.154 A  
ENDBRANCH   2  25
TORSDOF 5
ENDMDL
MODEL      134
REMARK 921   NORMALIZED FREE ENERGY PREDICTED BY IDOCK:   -5.74 KCAL/MOL
REMARK 922        TOTAL FREE ENERGY PREDICTED BY IDOCK:   -8.09 KCAL/MOL
REMARK 923 INTER-LIGAND FREE ENERGY PREDICTED BY IDOCK:   -7.82 KCAL/MOL
REMARK 924 INTRA-LIGAND FREE ENERGY PREDICTED BY IDOCK:   -0.27 KCAL/MOL
REMARK 927      BINDING AFFINITY PREDICTED BY RF-SCORE:    0.00 PKD
ROOT
HETATM    1  C   UNL     1     -10.285  12.950  68.232  1.00  0.00    -0.245 C  
HETATM    2  C   UNL     1      -9.546  13.284  66.935  1.00  0.00    -0.249 C  
ENDROOT
BRANCH   2   3
HETATM    3  O   UNL     1      -8.561  12.265  66.750  1.00  0.00    -0.194 OA 
BRANCH   3   4
HETATM    4  C   UNL     1      -7.707  11.930  67.760  1.00  0.00    -0.136 A  
HETATM    5  C   UNL     1      -6.263  11.097  69.915  1.00  0.00    -0.133 A  
HETATM    6  C   UNL     1      -7.414  10.384  69.601  1.00  0.00    -0.160 A  
HETATM    7  H1  UNL     1      -5.227  14.247  67.914  1.00  0.00     0.000 HD 
HETATM    8  N   UNL     1      -5.817  12.176  69.231  1.00  0.00    -0.073 NA 
HETATM    9  C   UNL     1      -8.137  10.819  68.496  1.00  0.00    -0.133 A  
HETATM   10  C   UNL     1      -6.553  12.592  68.183  1.00  0.00    -0.081 A  
HETATM   11  H2  UNL     1      -6.829  14.442  67.624  1.00  0.00     0.000 HD 
HETATM   12  N   UNL     1      -6.069  13.762  67.604  1.00  0.00    -0.298 NA 
BRANCH   6  13
HETATM   13  C   UNL     1      -7.844   9.277  70.428  1.00  0.00    -0.158 A  
HETATM   14  N   UNL     1      -7.838   7.338  71.622  1.00  0.00    -0.091 NA 
HETATM   15  C   UNL     1      -7.102   8.175  70.897  1.00  0.00    -0.050 A  
HETATM   16  C   UNL     1      -9.113   9.070  70.931  1.00  0.00    -0.250 A  
HETATM   17  N   UNL     1      -9.066   7.885  71.617  1.00  0.00    -0.132 NA 
BRANCH  17  18
HETATM   18  C   UNL     1     -10.181   7.201  72.272  1.00  0.00    -0.190 C  
HETATM   19  C   UNL     1     -11.389   8.122  72.492  1.00  0.00    -0.469 C  
HETATM   20  C   UNL     1     -12.195   8.346  71.212  1.00  0.00    -0.277 C  
HETATM   21  N   UNL     1     -12.590   7.082  70.589  1.00  0.00    -0.593 NA 
HETATM   22  C   UNL     1     -11.437   6.232  70.285  1.00  0.00    -0.358 C  
HETATM   23  H   UNL     1     -13.160   7.242  69.758  1.00  0.00     0.000 HD 
HETATM   24  C   UNL     1     -10.610   5.928  71.532  1.00  0.00    -0.300 C  
ENDBRANCH  17  18
ENDBRANCH   6  13
ENDBRANCH   3   4
ENDBRANCH   2   3
BRANCH   2  25
HETATM   25  C   UNL     1     -10.528  13.381  65.766  1.00  0.00    -0.291 A  
HETATM   26 CL   UNL     1     -10.474  10.641  65.322  1.00  0.00    -0.310 Cl 
HETATM   27  C   UNL     1     -11.089  14.642  65.438  1.00  0.00    -0.348 A  
HETATM   28 CL   UNL     1     -10.727  16.087  66.325  1.00  0.00    -0.276 Cl 
HETATM   29  F   UNL     1     -12.237  11.403  63.184  1.00  0.00    -0.495 F  
HETATM   30  C   UNL     1     -11.997  14.793  64.381  1.00  0.00    -0.433 A  
HETATM   31  C   UNL     1     -12.370  13.696  63.619  1.00  0.00    -0.328 A  
HETATM   32  C   UNL     1     -10.955  12.273  64.998  1.00  0.00    -0.302 A  
HETATM   33  C   UNL     1     -11.850  12.449  63.931  1.00  0.00    -0.466 A  
ENDBRANCH   2  25
TORSDOF 5
ENDMDL
MODEL      135
REMARK 921   NORMALIZED FREE ENERGY PREDICTED BY IDOCK:   -5.74 KCAL/MOL
REMARK 922        TOTAL FREE ENERGY PREDICTED BY IDOCK:   -8.09 KCAL/MOL
REMARK 923 INTER-LIGAND FREE ENERGY PREDICTED BY IDOCK:   -7.26 KCAL/MOL
REMARK 924 INTRA-LIGAND FREE ENERGY PREDICTED BY IDOCK:   -0.83 KCAL/MOL
REMARK 927      BINDING AFFINITY PREDICTED BY RF-SCORE:    0.00 PKD
ROOT
HETATM    1  C   UNL     1     -11.133   5.473  71.922  1.00  0.00    -0.233 C  
HETATM    2  C   UNL     1     -10.324   5.938  70.710  1.00  0.00    -0.232 C  
ENDROOT
BRANCH   2   3
HETATM    3  O   UNL     1     -11.163   6.829  69.974  1.00  0.00    -0.287 OA 
BRANCH   3   4
HETATM    4  C   UNL     1     -10.730   7.392  68.809  1.00  0.00    -0.118 A  
HETATM    5  C   UNL     1     -10.029   8.795  66.581  1.00  0.00    -0.285 A  
HETATM    6  C   UNL     1     -10.394   9.523  67.708  1.00  0.00    -0.291 A  
HETATM    7  H1  UNL     1     -10.161   4.925  66.543  1.00  0.00     0.000 HD 
HETATM    8  N   UNL     1     -10.006   7.443  66.513  1.00  0.00    -0.170 NA 
HETATM    9  C   UNL     1     -10.745   8.792  68.837  1.00  0.00    -0.114 A  
HETATM   10  C   UNL     1     -10.379   6.762  67.613  1.00  0.00    -0.203 A  
HETATM   11  H2  UNL     1     -11.359   5.074  67.653  1.00  0.00     0.000 HD 
HETATM   12  N   UNL     1     -10.417   5.384  67.417  1.00  0.00    -0.210 NA 
BRANCH   6  13
HETATM   13  C   UNL     1     -10.445  10.968  67.667  1.00  0.00    -0.239 A  
HETATM   14  N   UNL     1      -9.906  13.161  67.955  1.00  0.00    -0.224 NA 
HETATM   15  C   UNL     1      -9.513  11.907  68.152  1.00  0.00    -0.195 A  
HETATM   16  C   UNL     1     -11.458  11.740  67.132  1.00  0.00    -0.295 A  
HETATM   17  N   UNL     1     -11.101  13.045  67.351  1.00  0.00    -0.263 NA 
BRANCH  17  18
HETATM   18  C   UNL     1     -11.884  14.239  67.030  1.00  0.00    -0.428 C  
HETATM   19  C   UNL     1     -11.008  15.488  66.858  1.00  0.00    -0.268 C  
HETATM   20  C   UNL     1     -10.292  15.518  65.508  1.00  0.00    -0.394 C  
HETATM   21  N   UNL     1     -11.225  15.358  64.391  1.00  0.00    -0.714 NA 
HETATM   22  C   UNL     1     -12.000  14.120  64.493  1.00  0.00    -0.458 C  
HETATM   23  H   UNL     1     -10.742  15.418  63.495  1.00  0.00     0.000 HD 
HETATM   24  C   UNL     1     -12.782  14.044  65.802  1.00  0.00    -0.487 C  
ENDBRANCH  17  18
ENDBRANCH   6  13
ENDBRANCH   3   4
ENDBRANCH   2   3
BRANCH   2  25
HETATM   25  C   UNL     1      -9.012   6.588  71.156  1.00  0.00    -0.145 A  
HETATM   26 CL   UNL     1      -7.493   4.977  69.483  1.00  0.00    -0.056 Cl 
HETATM   27  C   UNL     1      -9.055   7.675  72.067  1.00  0.00    -0.131 A  
HETATM   28 CL   UNL     1     -10.541   8.320  72.686  1.00  0.00    -0.407 Cl 
HETATM   29  F   UNL     1      -5.366   6.457  70.726  1.00  0.00    -0.016 F  
HETATM   30  C   UNL     1      -7.889   8.314  72.508  1.00  0.00    -0.176 A  
HETATM   31  C   UNL     1      -6.647   7.889  72.059  1.00  0.00    -0.059 A  
HETATM   32  C   UNL     1      -7.738   6.200  70.684  1.00  0.00    -0.105 A  
HETATM   33  C   UNL     1      -6.579   6.841  71.153  1.00  0.00    -0.053 A  
ENDBRANCH   2  25
TORSDOF 5
ENDMDL
MODEL      136
REMARK 921   NORMALIZED FREE ENERGY PREDICTED BY IDOCK:   -5.71 KCAL/MOL
REMARK 922        TOTAL FREE ENERGY PREDICTED BY IDOCK:   -8.05 KCAL/MOL
REMARK 923 INTER-LIGAND FREE ENERGY PREDICTED BY IDOCK:   -6.98 KCAL/MOL
REMARK 924 INTRA-LIGAND FREE ENERGY PREDICTED BY IDOCK:   -1.07 KCAL/MOL
REMARK 927      BINDING AFFINITY PREDICTED BY RF-SCORE:    0.00 PKD
ROOT
HETATM    1  C   UNL     1     -12.370   6.974  71.148  1.00  0.00    -0.423 C  
HETATM    2  C   UNL     1     -11.074   7.354  70.430  1.00  0.00    -0.265 C  
ENDROOT
BRANCH   2   3
HETATM    3  O   UNL     1     -10.139   7.728  71.443  1.00  0.00    -0.181 OA 
BRANCH   3   4
HETATM    4  C   UNL     1      -9.052   8.496  71.139  1.00  0.00    -0.190 A  
HETATM    5  C   UNL     1      -7.030  10.081  70.233  1.00  0.00    -0.150 A  
HETATM    6  C   UNL     1      -8.269  10.208  69.616  1.00  0.00    -0.176 A  
HETATM    7  H1  UNL     1      -6.418   7.462  73.020  1.00  0.00     0.000 HD 
HETATM    8  N   UNL     1      -6.759   9.222  71.243  1.00  0.00    -0.219 NA 
HETATM    9  C   UNL     1      -9.291   9.395  70.093  1.00  0.00    -0.276 A  
HETATM   10  C   UNL     1      -7.760   8.427  71.665  1.00  0.00    -0.113 A  
HETATM   11  H2  UNL     1      -7.592   6.584  72.286  1.00  0.00     0.000 HD 
HETATM   12  N   UNL     1      -7.362   7.513  72.637  1.00  0.00    -0.072 NA 
BRANCH   6  13
HETATM   13  C   UNL     1      -8.448  11.114  68.502  1.00  0.00    -0.156 A  
HETATM   14  N   UNL     1      -8.070  12.737  66.951  1.00  0.00    -0.057 NA 
HETATM   15  C   UNL     1      -7.552  12.064  67.973  1.00  0.00    -0.120 A  
HETATM   16  C   UNL     1      -9.576  11.235  67.714  1.00  0.00    -0.174 A  
HETATM   17  N   UNL     1      -9.311  12.237  66.817  1.00  0.00    -0.212 NA 
BRANCH  17  18
HETATM   18  C   UNL     1     -10.224  12.787  65.815  1.00  0.00    -0.289 C  
HETATM   19  C   UNL     1     -11.694  12.468  66.121  1.00  0.00    -0.466 C  
HETATM   20  C   UNL     1     -12.267  13.359  67.224  1.00  0.00    -0.233 C  
HETATM   21  N   UNL     1     -12.075  14.780  66.933  1.00  0.00    -0.366 NA 
HETATM   22  C   UNL     1     -10.664  15.116  66.733  1.00  0.00    -0.311 C  
HETATM   23  H   UNL     1     -12.494  15.365  67.655  1.00  0.00     0.000 HD 
HETATM   24  C   UNL     1     -10.037  14.294  65.608  1.00  0.00    -0.364 C  
ENDBRANCH  17  18
ENDBRANCH   6  13
ENDBRANCH   3   4
ENDBRANCH   2   3
BRANCH   2  25
HETATM   25  C   UNL     1     -10.580   6.195  69.562  1.00  0.00    -0.350 A  
HETATM   26 CL   UNL     1     -10.747   7.696  67.233  1.00  0.00    -0.375 Cl 
HETATM   27  C   UNL     1     -10.194   4.981  70.186  1.00  0.00    -0.259 A  
HETATM   28 CL   UNL     1     -10.236   4.757  71.906  1.00  0.00    -0.262 Cl 
HETATM   29  F   UNL     1      -9.882   5.203  66.095  1.00  0.00    -0.154 F  
HETATM   30  C   UNL     1      -9.729   3.886  69.445  1.00  0.00    -0.172 A  
HETATM   31  C   UNL     1      -9.638   3.966  68.064  1.00  0.00    -0.189 A  
HETATM   32  C   UNL     1     -10.440   6.263  68.158  1.00  0.00    -0.226 A  
HETATM   33  C   UNL     1      -9.991   5.149  67.431  1.00  0.00    -0.180 A  
ENDBRANCH   2  25
TORSDOF 5
ENDMDL
MODEL      137
REMARK 921   NORMALIZED FREE ENERGY PREDICTED BY IDOCK:   -5.68 KCAL/MOL
REMARK 922        TOTAL FREE ENERGY PREDICTED BY IDOCK:   -8.02 KCAL/MOL
REMARK 923 INTER-LIGAND FREE ENERGY PREDICTED BY IDOCK:   -8.05 KCAL/MOL
REMARK 924 INTRA-LIGAND FREE ENERGY PREDICTED BY IDOCK:    0.03 KCAL/MOL
REMARK 927      BINDING AFFINITY PREDICTED BY RF-SCORE:    0.00 PKD
ROOT
HETATM    1  C   UNL     1      -9.597   9.750  70.302  1.00  0.00    -0.264 C  
HETATM    2  C   UNL     1     -10.838   8.858  70.358  1.00  0.00    -0.236 C  
ENDROOT
BRANCH   2   3
HETATM    3  O   UNL     1     -11.870   9.547  69.650  1.00  0.00     0.123 OA 
BRANCH   3   4
HETATM    4  C   UNL     1     -12.147  10.855  69.921  1.00  0.00    -0.354 A  
HETATM    5  C   UNL     1     -12.473  13.544  70.221  1.00  0.00    -0.239 A  
HETATM    6  C   UNL     1     -11.943  13.093  69.017  1.00  0.00    -0.329 A  
HETATM    7  H1  UNL     1     -13.302  11.097  73.107  1.00  0.00     0.000 HD 
HETATM    8  N   UNL     1     -12.829  12.742  71.252  1.00  0.00    -0.327 NA 
HETATM    9  C   UNL     1     -11.788  11.719  68.878  1.00  0.00    -0.381 A  
HETATM   10  C   UNL     1     -12.639  11.418  71.100  1.00  0.00    -0.386 A  
HETATM   11  H2  UNL     1     -12.107  10.157  72.492  1.00  0.00     0.000 HD 
HETATM   12  N   UNL     1     -12.943  10.687  72.245  1.00  0.00    -0.226 NA 
BRANCH   6  13
HETATM   13  C   UNL     1     -11.537  14.032  67.994  1.00  0.00    -0.372 A  
HETATM   14  N   UNL     1     -11.378  15.134  66.008  1.00  0.00    -0.278 NA 
HETATM   15  C   UNL     1     -12.002  14.165  66.671  1.00  0.00    -0.444 A  
HETATM   16  C   UNL     1     -10.571  15.013  68.115  1.00  0.00    -0.248 A  
HETATM   17  N   UNL     1     -10.496  15.629  66.893  1.00  0.00    -0.302 NA 
BRANCH  17  18
HETATM   18  C   UNL     1      -9.568  16.688  66.496  1.00  0.00    -0.273 C  
HETATM   19  C   UNL     1      -9.859  18.019  67.201  1.00  0.00    -0.316 C  
HETATM   20  C   UNL     1      -9.359  18.036  68.646  1.00  0.00    -0.285 C  
HETATM   21  N   UNL     1      -7.942  17.678  68.738  1.00  0.00    -0.274 NA 
HETATM   22  C   UNL     1      -7.667  16.365  68.153  1.00  0.00    -0.160 C  
HETATM   23  H   UNL     1      -7.610  17.730  69.700  1.00  0.00     0.000 HD 
HETATM   24  C   UNL     1      -8.099  16.291  66.690  1.00  0.00    -0.323 C  
ENDBRANCH  17  18
ENDBRANCH   6  13
ENDBRANCH   3   4
ENDBRANCH   2   3
BRANCH   2  25
HETATM   25  C   UNL     1     -10.535   7.477  69.771  1.00  0.00    -0.232 A  
HETATM   26 CL   UNL     1     -10.762   6.233  72.242  1.00  0.00    -0.250 Cl 
HETATM   27  C   UNL     1     -10.356   7.346  68.370  1.00  0.00    -0.194 A  
HETATM   28 CL   UNL     1     -10.490   8.688  67.279  1.00  0.00    -0.364 Cl 
HETATM   29  F   UNL     1     -10.061   3.943  70.654  1.00  0.00    -0.260 F  
HETATM   30  C   UNL     1     -10.081   6.108  67.774  1.00  0.00    -0.177 A  
HETATM   31  C   UNL     1      -9.972   4.966  68.554  1.00  0.00    -0.185 A  
HETATM   32  C   UNL     1     -10.457   6.293  70.538  1.00  0.00    -0.221 A  
HETATM   33  C   UNL     1     -10.161   5.065  69.925  1.00  0.00    -0.274 A  
ENDBRANCH   2  25
TORSDOF 5
ENDMDL
MODEL      138
REMARK 921   NORMALIZED FREE ENERGY PREDICTED BY IDOCK:   -5.68 KCAL/MOL
REMARK 922        TOTAL FREE ENERGY PREDICTED BY IDOCK:   -8.01 KCAL/MOL
REMARK 923 INTER-LIGAND FREE ENERGY PREDICTED BY IDOCK:   -7.28 KCAL/MOL
REMARK 924 INTRA-LIGAND FREE ENERGY PREDICTED BY IDOCK:   -0.73 KCAL/MOL
REMARK 927      BINDING AFFINITY PREDICTED BY RF-SCORE:    0.00 PKD
ROOT
HETATM    1  C   UNL     1     -11.081   5.484  72.585  1.00  0.00    -0.334 C  
HETATM    2  C   UNL     1     -10.290   5.741  71.301  1.00  0.00    -0.223 C  
ENDROOT
BRANCH   2   3
HETATM    3  O   UNL     1     -10.950   6.809  70.619  1.00  0.00    -0.240 OA 
BRANCH   3   4
HETATM    4  C   UNL     1     -10.656   7.092  69.317  1.00  0.00    -0.221 A  
HETATM    5  C   UNL     1     -10.235   7.949  66.765  1.00  0.00    -0.287 A  
HETATM    6  C   UNL     1     -10.534   8.911  67.722  1.00  0.00    -0.300 A  
HETATM    7  H1  UNL     1     -10.166   4.177  67.643  1.00  0.00     0.000 HD 
HETATM    8  N   UNL     1     -10.148   6.620  67.011  1.00  0.00    -0.170 NA 
HETATM    9  C   UNL     1     -10.741   8.459  69.021  1.00  0.00    -0.101 A  
HETATM   10  C   UNL     1     -10.383   6.209  68.271  1.00  0.00    -0.198 A  
HETATM   11  H2  UNL     1     -11.265   4.549  68.802  1.00  0.00     0.000 HD 
HETATM   12  N   UNL     1     -10.365   4.823  68.407  1.00  0.00     0.022 NA 
BRANCH   6  13
HETATM   13  C   UNL     1     -10.664  10.304  67.351  1.00  0.00    -0.339 A  
HETATM   14  N   UNL     1     -11.273  12.498  67.360  1.00  0.00    -0.276 NA 
HETATM   15  C   UNL     1     -11.356  11.340  68.008  1.00  0.00    -0.304 A  
HETATM   16  C   UNL     1     -10.123  10.911  66.235  1.00  0.00    -0.233 A  
HETATM   17  N   UNL     1     -10.535  12.218  66.272  1.00  0.00    -0.233 NA 
BRANCH  17  18
HETATM   18  C   UNL     1     -10.280  13.251  65.268  1.00  0.00    -0.290 C  
HETATM   19  C   UNL     1     -10.364  12.710  63.834  1.00  0.00    -0.405 C  
HETATM   20  C   UNL     1     -11.807  12.521  63.363  1.00  0.00    -0.503 C  
HETATM   21  N   UNL     1     -12.598  13.742  63.524  1.00  0.00    -0.947 NA 
HETATM   22  C   UNL     1     -12.605  14.216  64.909  1.00  0.00    -0.342 C  
HETATM   23  H   UNL     1     -13.547  13.616  63.172  1.00  0.00     0.000 HD 
HETATM   24  C   UNL     1     -11.193  14.472  65.431  1.00  0.00    -0.342 C  
ENDBRANCH  17  18
ENDBRANCH   6  13
ENDBRANCH   3   4
ENDBRANCH   2   3
BRANCH   2  25
HETATM   25  C   UNL     1      -8.828   6.055  71.623  1.00  0.00    -0.139 A  
HETATM   26 CL   UNL     1      -9.448   8.580  72.595  1.00  0.00    -0.335 Cl 
HETATM   27  C   UNL     1      -7.845   5.054  71.414  1.00  0.00    -0.109 A  
HETATM   28 CL   UNL     1      -8.232   3.469  70.827  1.00  0.00    -0.073 Cl 
HETATM   29  F   UNL     1      -6.592   8.673  72.905  1.00  0.00    -0.102 F  
HETATM   30  C   UNL     1      -6.490   5.280  71.694  1.00  0.00    -0.039 A  
HETATM   31  C   UNL     1      -6.075   6.509  72.187  1.00  0.00    -0.038 A  
HETATM   32  C   UNL     1      -8.384   7.283  72.162  1.00  0.00    -0.105 A  
HETATM   33  C   UNL     1      -7.020   7.498  72.417  1.00  0.00    -0.068 A  
ENDBRANCH   2  25
TORSDOF 5
ENDMDL
MODEL      139
REMARK 921   NORMALIZED FREE ENERGY PREDICTED BY IDOCK:   -5.67 KCAL/MOL
REMARK 922        TOTAL FREE ENERGY PREDICTED BY IDOCK:   -8.00 KCAL/MOL
REMARK 923 INTER-LIGAND FREE ENERGY PREDICTED BY IDOCK:   -7.33 KCAL/MOL
REMARK 924 INTRA-LIGAND FREE ENERGY PREDICTED BY IDOCK:   -0.67 KCAL/MOL
REMARK 927      BINDING AFFINITY PREDICTED BY RF-SCORE:    0.00 PKD
ROOT
HETATM    1  C   UNL     1     -12.135  12.433  64.450  1.00  0.00    -0.505 C  
HETATM    2  C   UNL     1     -11.393  11.974  65.706  1.00  0.00    -0.331 C  
ENDROOT
BRANCH   2   3
HETATM    3  O   UNL     1     -10.054  11.676  65.306  1.00  0.00    -0.244 OA 
BRANCH   3   4
HETATM    4  C   UNL     1      -9.571  10.402  65.381  1.00  0.00    -0.246 A  
HETATM    5  C   UNL     1      -8.678   7.873  65.861  1.00  0.00    -0.154 A  
HETATM    6  C   UNL     1      -9.568   8.423  66.776  1.00  0.00    -0.283 A  
HETATM    7  H1  UNL     1      -7.378   9.908  62.833  1.00  0.00     0.000 HD 
HETATM    8  N   UNL     1      -8.220   8.509  64.757  1.00  0.00    -0.158 NA 
HETATM    9  C   UNL     1     -10.018   9.712  66.514  1.00  0.00    -0.313 A  
HETATM   10  C   UNL     1      -8.650   9.767  64.545  1.00  0.00    -0.184 A  
HETATM   11  H2  UNL     1      -7.613  11.230  63.773  1.00  0.00     0.000 HD 
HETATM   12  N   UNL     1      -8.052  10.371  63.443  1.00  0.00    -0.153 NA 
BRANCH   6  13
HETATM   13  C   UNL     1      -9.955   7.687  67.961  1.00  0.00    -0.208 A  
HETATM   14  N   UNL     1     -10.778   7.184  70.023  1.00  0.00    -0.242 NA 
HETATM   15  C   UNL     1     -10.598   8.148  69.126  1.00  0.00    -0.166 A  
HETATM   16  C   UNL     1      -9.756   6.340  68.194  1.00  0.00    -0.122 A  
HETATM   17  N   UNL     1     -10.242   6.092  69.450  1.00  0.00    -0.182 NA 
BRANCH  17  18
HETATM   18  C   UNL     1     -10.196   4.825  70.179  1.00  0.00    -0.189 C  
HETATM   19  C   UNL     1      -9.532   3.704  69.367  1.00  0.00    -0.249 C  
HETATM   20  C   UNL     1      -8.007   3.821  69.348  1.00  0.00    -0.054 C  
HETATM   21  N   UNL     1      -7.449   3.909  70.698  1.00  0.00    -0.041 NA 
HETATM   22  C   UNL     1      -8.005   5.035  71.452  1.00  0.00    -0.111 C  
HETATM   23  H   UNL     1      -6.430   3.948  70.675  1.00  0.00     0.000 HD 
HETATM   24  C   UNL     1      -9.527   4.956  71.553  1.00  0.00    -0.208 C  
ENDBRANCH  17  18
ENDBRANCH   6  13
ENDBRANCH   3   4
ENDBRANCH   2   3
BRANCH   2  25
HETATM   25  C   UNL     1     -11.463  13.047  66.795  1.00  0.00    -0.392 A  
HETATM   26 CL   UNL     1     -12.329  11.232  68.709  1.00  0.00    -0.101 Cl 
HETATM   27  C   UNL     1     -11.041  14.366  66.492  1.00  0.00    -0.331 A  
HETATM   28 CL   UNL     1     -10.422  14.818  64.937  1.00  0.00    -0.434 Cl 
HETATM   29  F   UNL     1     -12.367  13.619  70.310  1.00  0.00    -0.358 F  
HETATM   30  C   UNL     1     -11.077  15.391  67.449  1.00  0.00    -0.311 A  
HETATM   31  C   UNL     1     -11.537  15.131  68.732  1.00  0.00    -0.369 A  
HETATM   32  C   UNL     1     -11.890  12.801  68.120  1.00  0.00    -0.324 A  
HETATM   33  C   UNL     1     -11.937  13.844  69.058  1.00  0.00    -0.364 A  
ENDBRANCH   2  25
TORSDOF 5
ENDMDL
MODEL      140
REMARK 921   NORMALIZED FREE ENERGY PREDICTED BY IDOCK:   -5.66 KCAL/MOL
REMARK 922        TOTAL FREE ENERGY PREDICTED BY IDOCK:   -7.99 KCAL/MOL
REMARK 923 INTER-LIGAND FREE ENERGY PREDICTED BY IDOCK:   -8.07 KCAL/MOL
REMARK 924 INTRA-LIGAND FREE ENERGY PREDICTED BY IDOCK:    0.08 KCAL/MOL
REMARK 927      BINDING AFFINITY PREDICTED BY RF-SCORE:    0.00 PKD
ROOT
HETATM    1  C   UNL     1     -11.346   6.799  67.551  1.00  0.00    -0.064 C  
HETATM    2  C   UNL     1      -9.851   6.558  67.759  1.00  0.00    -0.123 C  
ENDROOT
BRANCH   2   3
HETATM    3  O   UNL     1      -9.368   7.638  68.560  1.00  0.00    -0.147 OA 
BRANCH   3   4
HETATM    4  C   UNL     1      -9.787   8.917  68.332  1.00  0.00    -0.174 A  
HETATM    5  C   UNL     1     -10.858  11.412  68.113  1.00  0.00    -0.213 A  
HETATM    6  C   UNL     1     -11.095  10.715  69.292  1.00  0.00    -0.306 A  
HETATM    7  H1  UNL     1      -8.896   9.817  65.179  1.00  0.00     0.000 HD 
HETATM    8  N   UNL     1     -10.142  10.935  67.068  1.00  0.00    -0.198 NA 
HETATM    9  C   UNL     1     -10.537   9.445  69.389  1.00  0.00    -0.235 A  
HETATM   10  C   UNL     1      -9.640   9.691  67.179  1.00  0.00    -0.166 A  
HETATM   11  H2  UNL     1      -9.457   8.383  65.741  1.00  0.00     0.000 HD 
HETATM   12  N   UNL     1      -9.003   9.252  66.021  1.00  0.00    -0.164 NA 
BRANCH   6  13
HETATM   13  C   UNL     1     -11.924  11.285  70.331  1.00  0.00    -0.471 A  
HETATM   14  N   UNL     1     -13.314  11.488  72.123  1.00  0.00    -0.374 NA 
HETATM   15  C   UNL     1     -12.641  10.637  71.356  1.00  0.00    -0.421 A  
HETATM   16  C   UNL     1     -12.192  12.626  70.526  1.00  0.00    -0.299 A  
HETATM   17  N   UNL     1     -13.048  12.695  71.594  1.00  0.00    -0.378 NA 
BRANCH  17  18
HETATM   18  C   UNL     1     -13.676  13.896  72.143  1.00  0.00    -0.525 C  
HETATM   19  C   UNL     1     -12.894  14.480  73.328  1.00  0.00    -0.510 C  
HETATM   20  C   UNL     1     -11.654  15.257  72.883  1.00  0.00    -0.287 C  
HETATM   21  N   UNL     1     -11.980  16.286  71.894  1.00  0.00    -0.631 NA 
HETATM   22  C   UNL     1     -12.642  15.727  70.714  1.00  0.00    -0.357 C  
HETATM   23  H   UNL     1     -11.153  16.823  71.634  1.00  0.00     0.000 HD 
HETATM   24  C   UNL     1     -13.920  14.975  71.081  1.00  0.00    -0.451 C  
ENDBRANCH  17  18
ENDBRANCH   6  13
ENDBRANCH   3   4
ENDBRANCH   2   3
BRANCH   2  25
HETATM   25  C   UNL     1      -9.610   5.189  68.400  1.00  0.00    -0.185 A  
HETATM   26 CL   UNL     1      -8.504   4.150  66.076  1.00  0.00    -0.109 Cl 
HETATM   27  C   UNL     1      -9.920   5.005  69.772  1.00  0.00    -0.249 A  
HETATM   28 CL   UNL     1     -10.542   6.279  70.770  1.00  0.00    -0.281 Cl 
HETATM   29  F   UNL     1      -8.373   1.797  67.721  1.00  0.00    -0.061 F  
HETATM   30  C   UNL     1      -9.718   3.777  70.416  1.00  0.00    -0.225 A  
HETATM   31  C   UNL     1      -9.206   2.696  69.712  1.00  0.00    -0.199 A  
HETATM   32  C   UNL     1      -9.054   4.084  67.717  1.00  0.00    -0.145 A  
HETATM   33  C   UNL     1      -8.878   2.856  68.374  1.00  0.00    -0.123 A  
ENDBRANCH   2  25
TORSDOF 5
ENDMDL
MODEL      141
REMARK 921   NORMALIZED FREE ENERGY PREDICTED BY IDOCK:   -5.66 KCAL/MOL
REMARK 922        TOTAL FREE ENERGY PREDICTED BY IDOCK:   -7.99 KCAL/MOL
REMARK 923 INTER-LIGAND FREE ENERGY PREDICTED BY IDOCK:   -7.02 KCAL/MOL
REMARK 924 INTRA-LIGAND FREE ENERGY PREDICTED BY IDOCK:   -0.97 KCAL/MOL
REMARK 927      BINDING AFFINITY PREDICTED BY RF-SCORE:    0.00 PKD
ROOT
HETATM    1  C   UNL     1      -7.083   8.465  66.499  1.00  0.00    -0.072 C  
HETATM    2  C   UNL     1      -8.609   8.535  66.565  1.00  0.00    -0.121 C  
ENDROOT
BRANCH   2   3
HETATM    3  O   UNL     1      -9.069   8.746  65.228  1.00  0.00    -0.186 OA 
BRANCH   3   4
HETATM    4  C   UNL     1      -9.324  10.006  64.770  1.00  0.00    -0.271 A  
HETATM    5  C   UNL     1     -10.001  12.570  64.143  1.00  0.00    -0.199 A  
HETATM    6  C   UNL     1     -10.019  12.213  65.487  1.00  0.00    -0.269 A  
HETATM    7  H1  UNL     1      -9.184   9.987  61.375  1.00  0.00     0.000 HD 
HETATM    8  N   UNL     1      -9.679  11.732  63.130  1.00  0.00    -0.375 NA 
HETATM    9  C   UNL     1      -9.666  10.902  65.790  1.00  0.00    -0.270 A  
HETATM   10  C   UNL     1      -9.371  10.462  63.451  1.00  0.00    -0.300 A  
HETATM   11  H2  UNL     1      -9.795   8.868  62.407  1.00  0.00     0.000 HD 
HETATM   12  N   UNL     1      -9.149   9.654  62.339  1.00  0.00    -0.278 NA 
BRANCH   6  13
HETATM   13  C   UNL     1     -10.434  13.163  66.496  1.00  0.00    -0.283 A  
HETATM   14  N   UNL     1     -11.686  14.644  67.689  1.00  0.00    -0.363 NA 
HETATM   15  C   UNL     1     -11.672  13.818  66.648  1.00  0.00    -0.394 A  
HETATM   16  C   UNL     1      -9.668  13.638  67.542  1.00  0.00    -0.227 A  
HETATM   17  N   UNL     1     -10.452  14.540  68.213  1.00  0.00    -0.237 NA 
BRANCH  17  18
HETATM   18  C   UNL     1     -10.065  15.366  69.356  1.00  0.00    -0.269 C  
HETATM   19  C   UNL     1      -8.543  15.430  69.546  1.00  0.00    -0.212 C  
HETATM   20  C   UNL     1      -7.869  16.377  68.553  1.00  0.00    -0.197 C  
HETATM   21  N   UNL     1      -8.470  17.712  68.578  1.00  0.00    -0.289 NA 
HETATM   22  C   UNL     1      -9.907  17.674  68.302  1.00  0.00    -0.324 C  
HETATM   23  H   UNL     1      -7.988  18.345  67.940  1.00  0.00     0.000 HD 
HETATM   24  C   UNL     1     -10.653  16.781  69.290  1.00  0.00    -0.336 C  
ENDBRANCH  17  18
ENDBRANCH   6  13
ENDBRANCH   3   4
ENDBRANCH   2   3
BRANCH   2  25
HETATM   25  C   UNL     1      -9.179   7.262  67.195  1.00  0.00    -0.156 A  
HETATM   26 CL   UNL     1      -8.400   5.691  65.044  1.00  0.00    -0.144 Cl 
HETATM   27  C   UNL     1      -9.742   7.328  68.496  1.00  0.00    -0.149 A  
HETATM   28 CL   UNL     1      -9.791   8.794  69.421  1.00  0.00    -0.182 Cl 
HETATM   29  F   UNL     1      -9.702   3.671  66.621  1.00  0.00    -0.210 F  
HETATM   30  C   UNL     1     -10.275   6.196  69.127  1.00  0.00    -0.242 A  
HETATM   31  C   UNL     1     -10.268   4.969  68.482  1.00  0.00    -0.143 A  
HETATM   32  C   UNL     1      -9.149   5.992  66.576  1.00  0.00    -0.146 A  
HETATM   33  C   UNL     1      -9.707   4.874  67.217  1.00  0.00    -0.170 A  
ENDBRANCH   2  25
TORSDOF 5
ENDMDL
MODEL      142
REMARK 921   NORMALIZED FREE ENERGY PREDICTED BY IDOCK:   -5.64 KCAL/MOL
REMARK 922        TOTAL FREE ENERGY PREDICTED BY IDOCK:   -7.96 KCAL/MOL
REMARK 923 INTER-LIGAND FREE ENERGY PREDICTED BY IDOCK:   -7.08 KCAL/MOL
REMARK 924 INTRA-LIGAND FREE ENERGY PREDICTED BY IDOCK:   -0.89 KCAL/MOL
REMARK 927      BINDING AFFINITY PREDICTED BY RF-SCORE:    0.00 PKD
ROOT
HETATM    1  C   UNL     1      -9.879   4.352  70.229  1.00  0.00    -0.284 C  
HETATM    2  C   UNL     1      -9.514   5.812  69.959  1.00  0.00    -0.158 C  
ENDROOT
BRANCH   2   3
HETATM    3  O   UNL     1     -10.600   6.378  69.223  1.00  0.00    -0.208 OA 
BRANCH   3   4
HETATM    4  C   UNL     1     -10.386   7.386  68.328  1.00  0.00    -0.194 A  
HETATM    5  C   UNL     1     -10.192   9.573  66.715  1.00  0.00    -0.243 A  
HETATM    6  C   UNL     1     -10.710   9.762  67.991  1.00  0.00    -0.298 A  
HETATM    7  H1  UNL     1      -9.216   6.052  65.431  1.00  0.00     0.000 HD 
HETATM    8  N   UNL     1      -9.787   8.380  66.219  1.00  0.00    -0.227 NA 
HETATM    9  C   UNL     1     -10.798   8.637  68.803  1.00  0.00    -0.009 A  
HETATM   10  C   UNL     1      -9.912   7.304  67.018  1.00  0.00    -0.224 A  
HETATM   11  H2  UNL     1     -10.368   5.491  66.455  1.00  0.00     0.000 HD 
HETATM   12  N   UNL     1      -9.562   6.112  66.389  1.00  0.00    -0.151 NA 
BRANCH   6  13
HETATM   13  C   UNL     1     -11.172  11.067  68.412  1.00  0.00    -0.337 A  
HETATM   14  N   UNL     1     -12.122  12.735  69.637  1.00  0.00    -0.264 NA 
HETATM   15  C   UNL     1     -11.826  11.439  69.603  1.00  0.00    -0.362 A  
HETATM   16  C   UNL     1     -11.067  12.246  67.700  1.00  0.00    -0.268 A  
HETATM   17  N   UNL     1     -11.671  13.210  68.463  1.00  0.00    -0.331 NA 
BRANCH  17  18
HETATM   18  C   UNL     1     -11.879  14.614  68.107  1.00  0.00    -0.298 C  
HETATM   19  C   UNL     1     -11.820  15.545  69.327  1.00  0.00    -0.372 C  
HETATM   20  C   UNL     1     -10.387  15.809  69.791  1.00  0.00    -0.306 C  
HETATM   21  N   UNL     1      -9.542  16.298  68.700  1.00  0.00    -0.227 NA 
HETATM   22  C   UNL     1      -9.513  15.372  67.567  1.00  0.00    -0.205 C  
HETATM   23  H   UNL     1      -8.600  16.508  69.029  1.00  0.00     0.000 HD 
HETATM   24  C   UNL     1     -10.913  15.098  67.020  1.00  0.00    -0.322 C  
ENDBRANCH  17  18
ENDBRANCH   6  13
ENDBRANCH   3   4
ENDBRANCH   2   3
BRANCH   2  25
HETATM   25  C   UNL     1      -9.237   6.549  71.271  1.00  0.00    -0.155 A  
HETATM   26 CL   UNL     1      -6.525   6.777  70.723  1.00  0.00    -0.050 Cl 
HETATM   27  C   UNL     1     -10.324   6.872  72.124  1.00  0.00    -0.199 A  
HETATM   28 CL   UNL     1     -11.969   6.487  71.732  1.00  0.00    -0.385 Cl 
HETATM   29  F   UNL     1      -6.561   8.016  73.316  1.00  0.00    -0.073 F  
HETATM   30  C   UNL     1     -10.134   7.550  73.336  1.00  0.00    -0.393 A  
HETATM   31  C   UNL     1      -8.859   7.922  73.736  1.00  0.00    -0.332 A  
HETATM   32  C   UNL     1      -7.954   6.974  71.683  1.00  0.00    -0.099 A  
HETATM   33  C   UNL     1      -7.782   7.634  72.910  1.00  0.00    -0.099 A  
ENDBRANCH   2  25
TORSDOF 5
ENDMDL
MODEL      143
REMARK 921   NORMALIZED FREE ENERGY PREDICTED BY IDOCK:   -5.64 KCAL/MOL
REMARK 922        TOTAL FREE ENERGY PREDICTED BY IDOCK:   -7.96 KCAL/MOL
REMARK 923 INTER-LIGAND FREE ENERGY PREDICTED BY IDOCK:   -7.17 KCAL/MOL
REMARK 924 INTRA-LIGAND FREE ENERGY PREDICTED BY IDOCK:   -0.78 KCAL/MOL
REMARK 927      BINDING AFFINITY PREDICTED BY RF-SCORE:    0.00 PKD
ROOT
HETATM    1  C   UNL     1     -11.239  14.942  65.383  1.00  0.00    -0.359 C  
HETATM    2  C   UNL     1     -10.898  14.710  66.856  1.00  0.00    -0.305 C  
ENDROOT
BRANCH   2   3
HETATM    3  O   UNL     1     -12.015  14.031  67.434  1.00  0.00    -0.388 OA 
BRANCH   3   4
HETATM    4  C   UNL     1     -12.031  13.722  68.763  1.00  0.00    -0.365 A  
HETATM    5  C   UNL     1     -12.175  12.798  71.322  1.00  0.00     0.119 A  
HETATM    6  C   UNL     1     -12.090  11.855  70.304  1.00  0.00    -0.409 A  
HETATM    7  H1  UNL     1     -12.369  16.589  70.553  1.00  0.00     0.000 HD 
HETATM    8  N   UNL     1     -12.199  14.138  71.128  1.00  0.00    -0.355 NA 
HETATM    9  C   UNL     1     -12.013  12.342  69.005  1.00  0.00    -0.291 A  
HETATM   10  C   UNL     1     -12.153  14.580  69.857  1.00  0.00    -0.336 A  
HETATM   11  H2  UNL     1     -13.074  16.145  69.141  1.00  0.00     0.000 HD 
HETATM   12  N   UNL     1     -12.280  15.962  69.754  1.00  0.00    -0.244 NA 
BRANCH   6  13
HETATM   13  C   UNL     1     -12.131  10.440  70.606  1.00  0.00    -0.443 A  
HETATM   14  N   UNL     1     -12.844   8.400  71.324  1.00  0.00    -0.232 NA 
HETATM   15  C   UNL     1     -13.172   9.679  71.173  1.00  0.00    -0.303 A  
HETATM   16  C   UNL     1     -11.117   9.526  70.398  1.00  0.00    -0.277 A  
HETATM   17  N   UNL     1     -11.582   8.324  70.866  1.00  0.00    -0.277 NA 
BRANCH  17  18
HETATM   18  C   UNL     1     -10.848   7.061  70.932  1.00  0.00    -0.241 C  
HETATM   19  C   UNL     1      -9.752   7.073  72.007  1.00  0.00    -0.166 C  
HETATM   20  C   UNL     1     -10.314   6.892  73.417  1.00  0.00    -0.308 C  
HETATM   21  N   UNL     1     -11.155   5.699  73.521  1.00  0.00    -0.451 NA 
HETATM   22  C   UNL     1     -12.263   5.720  72.564  1.00  0.00     0.067 C  
HETATM   23  H   UNL     1     -11.493   5.567  74.474  1.00  0.00     0.000 HD 
HETATM   24  C   UNL     1     -11.770   5.851  71.125  1.00  0.00     0.068 C  
ENDBRANCH  17  18
ENDBRANCH   6  13
ENDBRANCH   3   4
ENDBRANCH   2   3
BRANCH   2  25
HETATM   25  C   UNL     1      -9.591  13.925  66.988  1.00  0.00    -0.254 A  
HETATM   26 CL   UNL     1     -10.632  11.716  65.667  1.00  0.00    -0.313 Cl 
HETATM   27  C   UNL     1      -8.465  14.553  67.579  1.00  0.00    -0.190 A  
HETATM   28 CL   UNL     1      -8.496  16.194  68.141  1.00  0.00    -0.172 Cl 
HETATM   29  F   UNL     1      -8.018  10.683  66.270  1.00  0.00    -0.125 F  
HETATM   30  C   UNL     1      -7.240  13.887  67.724  1.00  0.00    -0.173 A  
HETATM   31  C   UNL     1      -7.102  12.577  67.289  1.00  0.00    -0.114 A  
HETATM   32  C   UNL     1      -9.412  12.604  66.519  1.00  0.00    -0.247 A  
HETATM   33  C   UNL     1      -8.183  11.947  66.692  1.00  0.00    -0.088 A  
ENDBRANCH   2  25
TORSDOF 5
ENDMDL
MODEL      144
REMARK 921   NORMALIZED FREE ENERGY PREDICTED BY IDOCK:   -5.63 KCAL/MOL
REMARK 922        TOTAL FREE ENERGY PREDICTED BY IDOCK:   -7.94 KCAL/MOL
REMARK 923 INTER-LIGAND FREE ENERGY PREDICTED BY IDOCK:   -7.26 KCAL/MOL
REMARK 924 INTRA-LIGAND FREE ENERGY PREDICTED BY IDOCK:   -0.69 KCAL/MOL
REMARK 927      BINDING AFFINITY PREDICTED BY RF-SCORE:    0.00 PKD
ROOT
HETATM    1  C   UNL     1      -7.948   8.832  71.239  1.00  0.00    -0.176 C  
HETATM    2  C   UNL     1      -9.180   7.927  71.238  1.00  0.00    -0.146 C  
ENDROOT
BRANCH   2   3
HETATM    3  O   UNL     1     -10.103   8.490  70.305  1.00  0.00    -0.181 OA 
BRANCH   3   4
HETATM    4  C   UNL     1     -11.136   9.274  70.731  1.00  0.00    -0.285 A  
HETATM    5  C   UNL     1     -13.000  11.103  71.507  1.00  0.00    -0.437 A  
HETATM    6  C   UNL     1     -12.011  11.530  70.628  1.00  0.00    -0.391 A  
HETATM    7  H1  UNL     1     -13.018   7.504  72.937  1.00  0.00     0.000 HD 
HETATM    8  N   UNL     1     -13.094   9.849  72.008  1.00  0.00    -0.443 NA 
HETATM    9  C   UNL     1     -11.071  10.583  70.238  1.00  0.00    -0.359 A  
HETATM   10  C   UNL     1     -12.152   8.962  71.636  1.00  0.00    -0.346 A  
HETATM   11  H2  UNL     1     -11.390   7.549  72.746  1.00  0.00     0.000 HD 
HETATM   12  N   UNL     1     -12.276   7.732  72.276  1.00  0.00    -0.285 NA 
BRANCH   6  13
HETATM   13  C   UNL     1     -11.958  12.909  70.192  1.00  0.00    -0.373 A  
HETATM   14  N   UNL     1     -12.163  15.176  70.156  1.00  0.00    -0.337 NA 
HETATM   15  C   UNL     1     -12.334  14.077  70.883  1.00  0.00    -0.372 A  
HETATM   16  C   UNL     1     -11.520  13.367  68.965  1.00  0.00    -0.301 A  
HETATM   17  N   UNL     1     -11.685  14.727  68.982  1.00  0.00    -0.299 NA 
BRANCH  17  18
HETATM   18  C   UNL     1     -11.431  15.659  67.884  1.00  0.00    -0.251 C  
HETATM   19  C   UNL     1     -10.568  16.854  68.315  1.00  0.00    -0.363 C  
HETATM   20  C   UNL     1      -9.087  16.492  68.434  1.00  0.00    -0.222 C  
HETATM   21  N   UNL     1      -8.576  15.874  67.210  1.00  0.00    -0.175 NA 
HETATM   22  C   UNL     1      -9.332  14.676  66.840  1.00  0.00    -0.243 C  
HETATM   23  H   UNL     1      -7.579  15.673  67.286  1.00  0.00     0.000 HD 
HETATM   24  C   UNL     1     -10.818  14.974  66.656  1.00  0.00    -0.318 C  
ENDBRANCH  17  18
ENDBRANCH   6  13
ENDBRANCH   3   4
ENDBRANCH   2   3
BRANCH   2  25
HETATM   25  C   UNL     1      -8.791   6.487  70.894  1.00  0.00    -0.147 A  
HETATM   26 CL   UNL     1      -8.281   7.122  68.240  1.00  0.00    -0.123 Cl 
HETATM   27  C   UNL     1      -8.758   5.516  71.926  1.00  0.00    -0.135 A  
HETATM   28 CL   UNL     1      -9.120   5.893  73.580  1.00  0.00    -0.127 Cl 
HETATM   29  F   UNL     1      -7.752   4.299  68.132  1.00  0.00    -0.072 F  
HETATM   30  C   UNL     1      -8.404   4.183  71.674  1.00  0.00    -0.096 A  
HETATM   31  C   UNL     1      -8.077   3.779  70.388  1.00  0.00    -0.061 A  
HETATM   32  C   UNL     1      -8.416   6.058  69.601  1.00  0.00    -0.126 A  
HETATM   33  C   UNL     1      -8.084   4.714  69.364  1.00  0.00    -0.069 A  
ENDBRANCH   2  25
TORSDOF 5
ENDMDL
MODEL      145
REMARK 921   NORMALIZED FREE ENERGY PREDICTED BY IDOCK:   -5.62 KCAL/MOL
REMARK 922        TOTAL FREE ENERGY PREDICTED BY IDOCK:   -7.93 KCAL/MOL
REMARK 923 INTER-LIGAND FREE ENERGY PREDICTED BY IDOCK:   -6.90 KCAL/MOL
REMARK 924 INTRA-LIGAND FREE ENERGY PREDICTED BY IDOCK:   -1.03 KCAL/MOL
REMARK 927      BINDING AFFINITY PREDICTED BY RF-SCORE:    0.00 PKD
ROOT
HETATM    1  C   UNL     1     -11.180  15.002  64.833  1.00  0.00    -0.423 C  
HETATM    2  C   UNL     1     -10.689  14.273  66.084  1.00  0.00    -0.295 C  
ENDROOT
BRANCH   2   3
HETATM    3  O   UNL     1      -9.344  13.868  65.823  1.00  0.00    -0.061 OA 
BRANCH   3   4
HETATM    4  C   UNL     1      -8.641  13.147  66.744  1.00  0.00    -0.036 A  
HETATM    5  C   UNL     1      -7.523  11.533  68.632  1.00  0.00    -0.116 A  
HETATM    6  C   UNL     1      -8.659  11.066  67.983  1.00  0.00    -0.134 A  
HETATM    7  H1  UNL     1      -6.088  15.058  67.916  1.00  0.00     0.000 HD 
HETATM    8  N   UNL     1      -6.941  12.733  68.398  1.00  0.00    -0.087 NA 
HETATM    9  C   UNL     1      -9.215  11.900  67.019  1.00  0.00    -0.191 A  
HETATM   10  C   UNL     1      -7.518  13.531  67.480  1.00  0.00    -0.167 A  
HETATM   11  H2  UNL     1      -7.629  15.479  67.546  1.00  0.00     0.000 HD 
HETATM   12  N   UNL     1      -6.908  14.778  67.378  1.00  0.00    -0.254 NA 
BRANCH   6  13
HETATM   13  C   UNL     1      -9.244   9.793  68.344  1.00  0.00    -0.130 A  
HETATM   14  N   UNL     1     -10.575   7.945  68.346  1.00  0.00    -0.155 NA 
HETATM   15  C   UNL     1     -10.286   9.081  67.718  1.00  0.00    -0.246 A  
HETATM   16  C   UNL     1      -8.888   9.000  69.418  1.00  0.00    -0.144 A  
HETATM   17  N   UNL     1      -9.729   7.918  69.391  1.00  0.00    -0.168 NA 
BRANCH  17  18
HETATM   18  C   UNL     1      -9.795   6.829  70.365  1.00  0.00    -0.175 C  
HETATM   19  C   UNL     1      -9.481   7.297  71.793  1.00  0.00    -0.162 C  
HETATM   20  C   UNL     1     -10.656   8.030  72.439  1.00  0.00    -0.307 C  
HETATM   21  N   UNL     1     -11.886   7.237  72.392  1.00  0.00    -0.445 NA 
HETATM   22  C   UNL     1     -12.250   6.865  71.024  1.00  0.00    -0.377 C  
HETATM   23  H   UNL     1     -12.654   7.719  72.860  1.00  0.00     0.000 HD 
HETATM   24  C   UNL     1     -11.135   6.085  70.330  1.00  0.00    -0.399 C  
ENDBRANCH  17  18
ENDBRANCH   6  13
ENDBRANCH   3   4
ENDBRANCH   2   3
BRANCH   2  25
HETATM   25  C   UNL     1     -10.810  15.174  67.315  1.00  0.00    -0.316 A  
HETATM   26 CL   UNL     1     -12.234  13.261  68.737  1.00  0.00    -0.235 Cl 
HETATM   27  C   UNL     1     -10.172  16.440  67.309  1.00  0.00    -0.278 A  
HETATM   28 CL   UNL     1      -9.232  17.009  65.967  1.00  0.00    -0.230 Cl 
HETATM   29  F   UNL     1     -12.243  15.367  70.692  1.00  0.00    -0.295 F  
HETATM   30  C   UNL     1     -10.243  17.308  68.408  1.00  0.00    -0.358 A  
HETATM   31  C   UNL     1     -10.954  16.942  69.541  1.00  0.00    -0.053 A  
HETATM   32  C   UNL     1     -11.495  14.809  68.496  1.00  0.00    -0.308 A  
HETATM   33  C   UNL     1     -11.571  15.701  69.579  1.00  0.00    -0.357 A  
ENDBRANCH   2  25
TORSDOF 5
ENDMDL
MODEL      146
REMARK 921   NORMALIZED FREE ENERGY PREDICTED BY IDOCK:   -5.61 KCAL/MOL
REMARK 922        TOTAL FREE ENERGY PREDICTED BY IDOCK:   -7.92 KCAL/MOL
REMARK 923 INTER-LIGAND FREE ENERGY PREDICTED BY IDOCK:   -7.08 KCAL/MOL
REMARK 924 INTRA-LIGAND FREE ENERGY PREDICTED BY IDOCK:   -0.85 KCAL/MOL
REMARK 927      BINDING AFFINITY PREDICTED BY RF-SCORE:    0.00 PKD
ROOT
HETATM    1  C   UNL     1     -11.866  15.722  68.548  1.00  0.00    -0.233 C  
HETATM    2  C   UNL     1     -11.101  14.554  69.174  1.00  0.00    -0.263 C  
ENDROOT
BRANCH   2   3
HETATM    3  O   UNL     1      -9.851  15.078  69.627  1.00  0.00    -0.178 OA 
BRANCH   3   4
HETATM    4  C   UNL     1      -8.689  14.767  68.981  1.00  0.00    -0.139 A  
HETATM    5  C   UNL     1      -6.439  13.824  67.769  1.00  0.00    -0.170 A  
HETATM    6  C   UNL     1      -7.489  12.932  67.954  1.00  0.00    -0.131 A  
HETATM    7  H1  UNL     1      -6.629  17.467  69.069  1.00  0.00     0.000 HD 
HETATM    8  N   UNL     1      -6.456  15.121  68.155  1.00  0.00    -0.116 NA 
HETATM    9  C   UNL     1      -8.631  13.430  68.571  1.00  0.00    -0.074 A  
HETATM   10  C   UNL     1      -7.564  15.568  68.775  1.00  0.00    -0.152 A  
HETATM   11  H2  UNL     1      -7.633  16.876  70.223  1.00  0.00     0.000 HD 
HETATM   12  N   UNL     1      -7.451  16.882  69.220  1.00  0.00    -0.184 NA 
BRANCH   6  13
HETATM   13  C   UNL     1      -7.356  11.545  67.561  1.00  0.00    -0.112 A  
HETATM   14  N   UNL     1      -6.729   9.665  66.441  1.00  0.00    -0.074 NA 
HETATM   15  C   UNL     1      -6.590  10.984  66.519  1.00  0.00    -0.132 A  
HETATM   16  C   UNL     1      -7.982  10.461  68.144  1.00  0.00    -0.110 A  
HETATM   17  N   UNL     1      -7.595   9.362  67.423  1.00  0.00    -0.094 NA 
BRANCH  17  18
HETATM   18  C   UNL     1      -8.049   7.983  67.608  1.00  0.00    -0.124 C  
HETATM   19  C   UNL     1      -8.598   7.729  69.018  1.00  0.00    -0.135 C  
HETATM   20  C   UNL     1     -10.010   8.285  69.205  1.00  0.00    -0.196 C  
HETATM   21  N   UNL     1     -10.929   7.797  68.174  1.00  0.00    -0.444 NA 
HETATM   22  C   UNL     1     -10.463   8.118  66.824  1.00  0.00    -0.246 C  
HETATM   23  H   UNL     1     -11.876   8.142  68.330  1.00  0.00     0.000 HD 
HETATM   24  C   UNL     1      -9.072   7.551  66.551  1.00  0.00    -0.201 C  
ENDBRANCH  17  18
ENDBRANCH   6  13
ENDBRANCH   3   4
ENDBRANCH   2   3
BRANCH   2  25
HETATM   25  C   UNL     1     -11.919  13.914  70.297  1.00  0.00    -0.401 A  
HETATM   26 CL   UNL     1     -11.777  11.394  69.142  1.00  0.00    -0.373 Cl 
HETATM   27  C   UNL     1     -12.321  14.712  71.399  1.00  0.00    -0.348 A  
HETATM   28 CL   UNL     1     -11.903  16.389  71.543  1.00  0.00    -0.415 Cl 
HETATM   29  F   UNL     1     -13.405  10.748  71.420  1.00  0.00    -0.425 F  
HETATM   30  C   UNL     1     -13.068  14.182  72.460  1.00  0.00    -0.554 A  
HETATM   31  C   UNL     1     -13.439  12.845  72.453  1.00  0.00    -0.573 A  
HETATM   32  C   UNL     1     -12.277  12.548  70.334  1.00  0.00    -0.286 A  
HETATM   33  C   UNL     1     -13.042  12.040  71.396  1.00  0.00    -0.197 A  
ENDBRANCH   2  25
TORSDOF 5
ENDMDL
MODEL      147
REMARK 921   NORMALIZED FREE ENERGY PREDICTED BY IDOCK:   -5.60 KCAL/MOL
REMARK 922        TOTAL FREE ENERGY PREDICTED BY IDOCK:   -7.91 KCAL/MOL
REMARK 923 INTER-LIGAND FREE ENERGY PREDICTED BY IDOCK:   -7.44 KCAL/MOL
REMARK 924 INTRA-LIGAND FREE ENERGY PREDICTED BY IDOCK:   -0.47 KCAL/MOL
REMARK 927      BINDING AFFINITY PREDICTED BY RF-SCORE:    0.00 PKD
ROOT
HETATM    1  C   UNL     1     -11.933  13.040  67.387  1.00  0.00    -0.372 C  
HETATM    2  C   UNL     1     -11.408  12.304  68.620  1.00  0.00    -0.291 C  
ENDROOT
BRANCH   2   3
HETATM    3  O   UNL     1      -9.987  12.453  68.613  1.00  0.00    -0.196 OA 
BRANCH   3   4
HETATM    4  C   UNL     1      -9.205  11.647  67.837  1.00  0.00    -0.171 A  
HETATM    5  C   UNL     1      -7.807   9.780  66.429  1.00  0.00    -0.106 A  
HETATM    6  C   UNL     1      -9.038   9.399  66.951  1.00  0.00    -0.160 A  
HETATM    7  H1  UNL     1      -6.334  13.301  67.084  1.00  0.00     0.000 HD 
HETATM    8  N   UNL     1      -7.254  11.006  66.579  1.00  0.00    -0.144 NA 
HETATM    9  C   UNL     1      -9.740  10.365  67.663  1.00  0.00    -0.191 A  
HETATM   10  C   UNL     1      -7.944  11.912  67.298  1.00  0.00    -0.171 A  
HETATM   11  H2  UNL     1      -7.189  13.268  68.483  1.00  0.00     0.000 HD 
HETATM   12  N   UNL     1      -7.255  13.108  67.478  1.00  0.00    -0.157 NA 
BRANCH   6  13
HETATM   13  C   UNL     1      -9.520   8.045  66.790  1.00  0.00    -0.259 A  
HETATM   14  N   UNL     1     -10.842   6.193  66.880  1.00  0.00    -0.345 NA 
HETATM   15  C   UNL     1     -10.755   7.486  67.173  1.00  0.00    -0.309 A  
HETATM   16  C   UNL     1      -8.836   6.992  66.214  1.00  0.00    -0.148 A  
HETATM   17  N   UNL     1      -9.658   5.900  66.314  1.00  0.00    -0.147 NA 
BRANCH  17  18
HETATM   18  C   UNL     1      -9.353   4.527  65.910  1.00  0.00    -0.159 C  
HETATM   19  C   UNL     1      -7.940   4.387  65.326  1.00  0.00    -0.101 C  
HETATM   20  C   UNL     1      -6.859   4.375  66.407  1.00  0.00    -0.055 C  
HETATM   21  N   UNL     1      -7.121   3.362  67.430  1.00  0.00    -0.057 NA 
HETATM   22  C   UNL     1      -8.428   3.543  68.064  1.00  0.00    -0.093 C  
HETATM   23  H   UNL     1      -6.375   3.337  68.125  1.00  0.00     0.000 HD 
HETATM   24  C   UNL     1      -9.564   3.517  67.043  1.00  0.00    -0.155 C  
ENDBRANCH  17  18
ENDBRANCH   6  13
ENDBRANCH   3   4
ENDBRANCH   2   3
BRANCH   2  25
HETATM   25  C   UNL     1     -12.057  12.853  69.892  1.00  0.00    -0.335 A  
HETATM   26 CL   UNL     1     -11.844  15.481  69.023  1.00  0.00    -0.383 Cl 
HETATM   27  C   UNL     1     -12.536  11.944  70.870  1.00  0.00    -0.300 A  
HETATM   28 CL   UNL     1     -12.438  10.223  70.678  1.00  0.00    -0.403 Cl 
HETATM   29  F   UNL     1     -13.010  15.960  71.606  1.00  0.00    -0.467 F  
HETATM   30  C   UNL     1     -13.144  12.386  72.054  1.00  0.00    -0.470 A  
HETATM   31  C   UNL     1     -13.289  13.744  72.298  1.00  0.00    -0.617 A  
HETATM   32  C   UNL     1     -12.253  14.229  70.148  1.00  0.00    -0.345 A  
HETATM   33  C   UNL     1     -12.846  14.652  71.349  1.00  0.00    -0.330 A  
ENDBRANCH   2  25
TORSDOF 5
ENDMDL
MODEL      148
REMARK 921   NORMALIZED FREE ENERGY PREDICTED BY IDOCK:   -5.59 KCAL/MOL
REMARK 922        TOTAL FREE ENERGY PREDICTED BY IDOCK:   -7.89 KCAL/MOL
REMARK 923 INTER-LIGAND FREE ENERGY PREDICTED BY IDOCK:   -6.71 KCAL/MOL
REMARK 924 INTRA-LIGAND FREE ENERGY PREDICTED BY IDOCK:   -1.18 KCAL/MOL
REMARK 927      BINDING AFFINITY PREDICTED BY RF-SCORE:    0.00 PKD
ROOT
HETATM    1  C   UNL     1      -6.264   6.624  71.082  1.00  0.00    -0.040 C  
HETATM    2  C   UNL     1      -7.679   6.816  70.535  1.00  0.00    -0.104 C  
ENDROOT
BRANCH   2   3
HETATM    3  O   UNL     1      -7.653   6.392  69.171  1.00  0.00    -0.095 OA 
BRANCH   3   4
HETATM    4  C   UNL     1      -8.721   6.615  68.351  1.00  0.00    -0.122 A  
HETATM    5  C   UNL     1     -10.915   7.334  66.904  1.00  0.00    -0.067 A  
HETATM    6  C   UNL     1     -10.290   8.324  67.655  1.00  0.00    -0.313 A  
HETATM    7  H1  UNL     1      -9.695   3.659  66.989  1.00  0.00     0.000 HD 
HETATM    8  N   UNL     1     -10.514   6.042  66.850  1.00  0.00    -0.249 NA 
HETATM    9  C   UNL     1      -9.170   7.942  68.384  1.00  0.00    -0.134 A  
HETATM   10  C   UNL     1      -9.444   5.695  67.589  1.00  0.00    -0.115 A  
HETATM   11  H2  UNL     1      -9.174   3.993  68.507  1.00  0.00     0.000 HD 
HETATM   12  N   UNL     1      -9.167   4.332  67.545  1.00  0.00    -0.139 NA 
BRANCH   6  13
HETATM   13  C   UNL     1     -10.828   9.667  67.696  1.00  0.00    -0.276 A  
HETATM   14  N   UNL     1     -11.696  11.627  68.462  1.00  0.00    -0.344 NA 
HETATM   15  C   UNL     1     -11.228  10.432  68.809  1.00  0.00    -0.241 A  
HETATM   16  C   UNL     1     -11.071  10.489  66.613  1.00  0.00     0.064 A  
HETATM   17  N   UNL     1     -11.613  11.641  67.121  1.00  0.00    -0.547 NA 
BRANCH  17  18
HETATM   18  C   UNL     1     -12.106  12.791  66.363  1.00  0.00    -0.300 C  
HETATM   19  C   UNL     1     -11.595  14.126  66.923  1.00  0.00    -0.410 C  
HETATM   20  C   UNL     1     -10.145  14.408  66.529  1.00  0.00    -0.276 C  
HETATM   21  N   UNL     1      -9.945  14.321  65.082  1.00  0.00    -0.563 NA 
HETATM   22  C   UNL     1     -10.339  13.016  64.548  1.00  0.00    -0.364 C  
HETATM   23  H   UNL     1      -8.985  14.549  64.827  1.00  0.00     0.000 HD 
HETATM   24  C   UNL     1     -11.797  12.688  64.864  1.00  0.00    -0.436 C  
ENDBRANCH  17  18
ENDBRANCH   6  13
ENDBRANCH   3   4
ENDBRANCH   2   3
BRANCH   2  25
HETATM   25  C   UNL     1      -8.692   6.040  71.380  1.00  0.00    -0.132 A  
HETATM   26 CL   UNL     1      -7.484   3.603  70.827  1.00  0.00    -0.040 Cl 
HETATM   27  C   UNL     1      -9.684   6.756  72.098  1.00  0.00    -0.149 A  
HETATM   28 CL   UNL     1      -9.787   8.487  72.082  1.00  0.00    -0.368 Cl 
HETATM   29  F   UNL     1      -9.671   2.660  72.436  1.00  0.00    -0.151 F  
HETATM   30  C   UNL     1     -10.636   6.102  72.893  1.00  0.00    -0.257 A  
HETATM   31  C   UNL     1     -10.631   4.718  72.991  1.00  0.00    -0.279 A  
HETATM   32  C   UNL     1      -8.685   4.635  71.529  1.00  0.00    -0.120 A  
HETATM   33  C   UNL     1      -9.660   3.996  72.313  1.00  0.00    -0.144 A  
ENDBRANCH   2  25
TORSDOF 5
ENDMDL
MODEL      149
REMARK 921   NORMALIZED FREE ENERGY PREDICTED BY IDOCK:   -5.58 KCAL/MOL
REMARK 922        TOTAL FREE ENERGY PREDICTED BY IDOCK:   -7.88 KCAL/MOL
REMARK 923 INTER-LIGAND FREE ENERGY PREDICTED BY IDOCK:   -7.25 KCAL/MOL
REMARK 924 INTRA-LIGAND FREE ENERGY PREDICTED BY IDOCK:   -0.63 KCAL/MOL
REMARK 927      BINDING AFFINITY PREDICTED BY RF-SCORE:    0.00 PKD
ROOT
HETATM    1  C   UNL     1      -6.141   6.857  70.401  1.00  0.00    -0.024 C  
HETATM    2  C   UNL     1      -7.663   7.005  70.435  1.00  0.00    -0.096 C  
ENDROOT
BRANCH   2   3
HETATM    3  O   UNL     1      -7.936   8.320  70.920  1.00  0.00    -0.088 OA 
BRANCH   3   4
HETATM    4  C   UNL     1      -9.218   8.786  70.988  1.00  0.00    -0.222 A  
HETATM    5  C   UNL     1     -11.674   9.962  70.916  1.00  0.00    -0.364 A  
HETATM    6  C   UNL     1     -10.801  10.238  69.870  1.00  0.00    -0.355 A  
HETATM    7  H1  UNL     1     -10.610   7.744  73.906  1.00  0.00     0.000 HD 
HETATM    8  N   UNL     1     -11.386   9.159  71.966  1.00  0.00    -0.340 NA 
HETATM    9  C   UNL     1      -9.553   9.627  69.919  1.00  0.00    -0.260 A  
HETATM   10  C   UNL     1     -10.159   8.604  72.003  1.00  0.00    -0.331 A  
HETATM   11  H2  UNL     1      -9.087   8.268  73.599  1.00  0.00     0.000 HD 
HETATM   12  N   UNL     1      -9.922   7.876  73.165  1.00  0.00    -0.297 NA 
BRANCH   6  13
HETATM   13  C   UNL     1     -11.178  11.158  68.818  1.00  0.00    -0.314 A  
HETATM   14  N   UNL     1     -11.668  12.016  66.767  1.00  0.00    -0.580 NA 
HETATM   15  C   UNL     1     -11.327  10.920  67.438  1.00  0.00    -0.195 A  
HETATM   16  C   UNL     1     -11.468  12.500  68.965  1.00  0.00    -0.304 A  
HETATM   17  N   UNL     1     -11.731  12.975  67.707  1.00  0.00    -0.346 NA 
BRANCH  17  18
HETATM   18  C   UNL     1     -12.021  14.359  67.330  1.00  0.00    -0.373 C  
HETATM   19  C   UNL     1     -11.410  15.374  68.306  1.00  0.00    -0.354 C  
HETATM   20  C   UNL     1      -9.908  15.564  68.088  1.00  0.00    -0.216 C  
HETATM   21  N   UNL     1      -9.597  15.900  66.698  1.00  0.00    -0.232 NA 
HETATM   22  C   UNL     1     -10.092  14.889  65.762  1.00  0.00    -0.341 C  
HETATM   23  H   UNL     1      -8.598  16.062  66.572  1.00  0.00     0.000 HD 
HETATM   24  C   UNL     1     -11.599  14.681  65.892  1.00  0.00    -0.327 C  
ENDBRANCH  17  18
ENDBRANCH   6  13
ENDBRANCH   3   4
ENDBRANCH   2   3
BRANCH   2  25
HETATM   25  C   UNL     1      -8.259   6.746  69.050  1.00  0.00    -0.117 A  
HETATM   26 CL   UNL     1     -10.135   4.960  70.048  1.00  0.00    -0.332 Cl 
HETATM   27  C   UNL     1      -7.761   7.470  67.937  1.00  0.00    -0.116 A  
HETATM   28 CL   UNL     1      -6.512   8.665  68.080  1.00  0.00    -0.059 Cl 
HETATM   29  F   UNL     1     -10.793   4.781  67.256  1.00  0.00    -0.115 F  
HETATM   30  C   UNL     1      -8.270   7.280  66.645  1.00  0.00    -0.118 A  
HETATM   31  C   UNL     1      -9.286   6.362  66.423  1.00  0.00    -0.176 A  
HETATM   32  C   UNL     1      -9.320   5.845  68.803  1.00  0.00    -0.122 A  
HETATM   33  C   UNL     1      -9.803   5.654  67.498  1.00  0.00    -0.139 A  
ENDBRANCH   2  25
TORSDOF 5
ENDMDL
MODEL      150
REMARK 921   NORMALIZED FREE ENERGY PREDICTED BY IDOCK:   -5.58 KCAL/MOL
REMARK 922        TOTAL FREE ENERGY PREDICTED BY IDOCK:   -7.88 KCAL/MOL
REMARK 923 INTER-LIGAND FREE ENERGY PREDICTED BY IDOCK:   -7.88 KCAL/MOL
REMARK 924 INTRA-LIGAND FREE ENERGY PREDICTED BY IDOCK:    0.01 KCAL/MOL
REMARK 927      BINDING AFFINITY PREDICTED BY RF-SCORE:    0.00 PKD
ROOT
HETATM    1  C   UNL     1     -10.980  11.110  64.991  1.00  0.00    -0.174 C  
HETATM    2  C   UNL     1      -9.456  11.235  64.993  1.00  0.00    -0.209 C  
ENDROOT
BRANCH   2   3
HETATM    3  O   UNL     1      -9.089  11.759  66.271  1.00  0.00    -0.214 OA 
BRANCH   3   4
HETATM    4  C   UNL     1     -10.013  12.375  67.064  1.00  0.00    -0.212 A  
HETATM    5  C   UNL     1     -11.944  13.295  68.752  1.00  0.00    -0.300 A  
HETATM    6  C   UNL     1     -11.427  12.029  69.000  1.00  0.00    -0.357 A  
HETATM    7  H1  UNL     1     -10.815  15.375  65.687  1.00  0.00     0.000 HD 
HETATM    8  N   UNL     1     -11.562  14.094  67.729  1.00  0.00    -0.327 NA 
HETATM    9  C   UNL     1     -10.439  11.576  68.133  1.00  0.00    -0.216 A  
HETATM   10  C   UNL     1     -10.625  13.617  66.888  1.00  0.00    -0.271 A  
HETATM   11  H2  UNL     1     -10.528  13.932  64.963  1.00  0.00     0.000 HD 
HETATM   12  N   UNL     1     -10.368  14.468  65.816  1.00  0.00    -0.313 NA 
BRANCH   6  13
HETATM   13  C   UNL     1     -11.942  11.222  70.086  1.00  0.00    -0.452 A  
HETATM   14  N   UNL     1     -13.060  10.579  71.962  1.00  0.00    -0.464 NA 
HETATM   15  C   UNL     1     -12.821  11.584  71.125  1.00  0.00    -0.315 A  
HETATM   16  C   UNL     1     -11.655   9.893  70.330  1.00  0.00    -0.282 A  
HETATM   17  N   UNL     1     -12.328   9.561  71.477  1.00  0.00    -0.355 NA 
BRANCH  17  18
HETATM   18  C   UNL     1     -12.286   8.280  72.183  1.00  0.00    -0.364 C  
HETATM   19  C   UNL     1     -12.729   7.106  71.299  1.00  0.00    -0.412 C  
HETATM   20  C   UNL     1     -11.641   6.671  70.317  1.00  0.00    -0.395 C  
HETATM   21  N   UNL     1     -10.376   6.386  70.995  1.00  0.00    -0.202 NA 
HETATM   22  C   UNL     1      -9.892   7.532  71.766  1.00  0.00    -0.164 C  
HETATM   23  H   UNL     1      -9.669   6.060  70.336  1.00  0.00     0.000 HD 
HETATM   24  C   UNL     1     -10.914   7.992  72.804  1.00  0.00    -0.449 C  
ENDBRANCH  17  18
ENDBRANCH   6  13
ENDBRANCH   3   4
ENDBRANCH   2   3
BRANCH   2  25
HETATM   25  C   UNL     1      -8.804   9.884  64.694  1.00  0.00    -0.234 A  
HETATM   26 CL   UNL     1      -9.892   8.710  66.963  1.00  0.00    -0.258 Cl 
HETATM   27  C   UNL     1      -8.059   9.727  63.498  1.00  0.00    -0.150 A  
HETATM   28 CL   UNL     1      -7.871  11.001  62.337  1.00  0.00    -0.166 Cl 
HETATM   29  F   UNL     1      -8.379   6.470  65.984  1.00  0.00    -0.109 F  
HETATM   30  C   UNL     1      -7.442   8.512  63.167  1.00  0.00    -0.108 A  
HETATM   31  C   UNL     1      -7.546   7.422  64.018  1.00  0.00    -0.110 A  
HETATM   32  C   UNL     1      -8.927   8.747  65.524  1.00  0.00    -0.181 A  
HETATM   33  C   UNL     1      -8.285   7.544  65.185  1.00  0.00    -0.120 A  
ENDBRANCH   2  25
TORSDOF 5
ENDMDL
MODEL      151
REMARK 921   NORMALIZED FREE ENERGY PREDICTED BY IDOCK:   -5.57 KCAL/MOL
REMARK 922        TOTAL FREE ENERGY PREDICTED BY IDOCK:   -7.87 KCAL/MOL
REMARK 923 INTER-LIGAND FREE ENERGY PREDICTED BY IDOCK:   -7.91 KCAL/MOL
REMARK 924 INTRA-LIGAND FREE ENERGY PREDICTED BY IDOCK:    0.04 KCAL/MOL
REMARK 927      BINDING AFFINITY PREDICTED BY RF-SCORE:    0.00 PKD
ROOT
HETATM    1  C   UNL     1     -10.916  14.958  66.792  1.00  0.00    -0.326 C  
HETATM    2  C   UNL     1     -10.516  16.054  67.780  1.00  0.00    -0.298 C  
ENDROOT
BRANCH   2   3
HETATM    3  O   UNL     1     -10.211  15.403  69.015  1.00  0.00    -0.212 OA 
BRANCH   3   4
HETATM    4  C   UNL     1     -11.069  14.486  69.550  1.00  0.00    -0.253 A  
HETATM    5  C   UNL     1     -12.648  12.435  70.399  1.00  0.00    -0.025 A  
HETATM    6  C   UNL     1     -11.472  12.105  69.737  1.00  0.00    -0.261 A  
HETATM    7  H1  UNL     1     -13.734  16.122  70.877  1.00  0.00     0.000 HD 
HETATM    8  N   UNL     1     -13.065  13.700  70.643  1.00  0.00    -0.060 NA 
HETATM    9  C   UNL     1     -10.674  13.163  69.314  1.00  0.00     0.022 A  
HETATM   10  C   UNL     1     -12.287  14.704  70.195  1.00  0.00    -0.336 A  
HETATM   11  H2  UNL     1     -12.901  16.421  69.497  1.00  0.00     0.000 HD 
HETATM   12  N   UNL     1     -12.844  15.963  70.406  1.00  0.00    -0.289 NA 
BRANCH   6  13
HETATM   13  C   UNL     1     -11.139  10.722  69.471  1.00  0.00    -0.334 A  
HETATM   14  N   UNL     1     -10.676   8.780  68.377  1.00  0.00    -0.123 NA 
HETATM   15  C   UNL     1     -10.956  10.071  68.235  1.00  0.00    -0.227 A  
HETATM   16  C   UNL     1     -10.936   9.730  70.411  1.00  0.00    -0.312 A  
HETATM   17  N   UNL     1     -10.686   8.581  69.707  1.00  0.00    -0.228 NA 
BRANCH  17  18
HETATM   18  C   UNL     1     -10.479   7.240  70.254  1.00  0.00    -0.219 C  
HETATM   19  C   UNL     1      -9.773   7.264  71.617  1.00  0.00    -0.166 C  
HETATM   20  C   UNL     1     -10.716   7.651  72.756  1.00  0.00    -0.345 C  
HETATM   21  N   UNL     1     -11.912   6.808  72.785  1.00  0.00    -0.473 NA 
HETATM   22  C   UNL     1     -12.648   6.851  71.520  1.00  0.00    -0.367 C  
HETATM   23  H   UNL     1     -12.515   7.049  73.572  1.00  0.00     0.000 HD 
HETATM   24  C   UNL     1     -11.777   6.429  70.339  1.00  0.00    -0.389 C  
ENDBRANCH  17  18
ENDBRANCH   6  13
ENDBRANCH   3   4
ENDBRANCH   2   3
BRANCH   2  25
HETATM   25  C   UNL     1      -9.343  16.871  67.233  1.00  0.00    -0.238 A  
HETATM   26 CL   UNL     1     -10.762  19.252  67.379  1.00  0.00    -0.583 Cl 
HETATM   27  C   UNL     1      -8.112  16.218  66.969  1.00  0.00    -0.209 A  
HETATM   28 CL   UNL     1      -7.866  14.527  67.262  1.00  0.00    -0.218 Cl 
HETATM   29  F   UNL     1      -8.320  20.258  66.246  1.00  0.00    -0.314 F  
HETATM   30  C   UNL     1      -7.000  16.913  66.471  1.00  0.00    -0.262 A  
HETATM   31  C   UNL     1      -7.084  18.274  66.220  1.00  0.00    -0.293 A  
HETATM   32  C   UNL     1      -9.389  18.264  67.005  1.00  0.00    -0.274 A  
HETATM   33  C   UNL     1      -8.271  18.939  66.488  1.00  0.00    -0.297 A  
ENDBRANCH   2  25
TORSDOF 5
ENDMDL
MODEL      152
REMARK 921   NORMALIZED FREE ENERGY PREDICTED BY IDOCK:   -5.56 KCAL/MOL
REMARK 922        TOTAL FREE ENERGY PREDICTED BY IDOCK:   -7.85 KCAL/MOL
REMARK 923 INTER-LIGAND FREE ENERGY PREDICTED BY IDOCK:   -7.02 KCAL/MOL
REMARK 924 INTRA-LIGAND FREE ENERGY PREDICTED BY IDOCK:   -0.83 KCAL/MOL
REMARK 927      BINDING AFFINITY PREDICTED BY RF-SCORE:    0.00 PKD
ROOT
HETATM    1  C   UNL     1      -7.945   4.109  66.973  1.00  0.00    -0.097 C  
HETATM    2  C   UNL     1      -7.900   5.612  67.249  1.00  0.00    -0.101 C  
ENDROOT
BRANCH   2   3
HETATM    3  O   UNL     1      -8.139   6.266  66.001  1.00  0.00    -0.109 OA 
BRANCH   3   4
HETATM    4  C   UNL     1      -7.755   7.561  65.807  1.00  0.00    -0.098 A  
HETATM    5  C   UNL     1      -7.286  10.189  65.264  1.00  0.00    -0.141 A  
HETATM    6  C   UNL     1      -8.609   9.762  65.266  1.00  0.00    -0.168 A  
HETATM    7  H1  UNL     1      -4.362   7.716  65.841  1.00  0.00     0.000 HD 
HETATM    8  N   UNL     1      -6.220   9.391  65.504  1.00  0.00    -0.063 NA 
HETATM    9  C   UNL     1      -8.832   8.419  65.550  1.00  0.00    -0.172 A  
HETATM   10  C   UNL     1      -6.464   8.089  65.747  1.00  0.00    -0.042 A  
HETATM   11  H2  UNL     1      -5.354   6.580  65.197  1.00  0.00     0.000 HD 
HETATM   12  N   UNL     1      -5.305   7.331  65.886  1.00  0.00    -0.027 NA 
BRANCH   6  13
HETATM   13  C   UNL     1      -9.680  10.679  64.939  1.00  0.00    -0.341 A  
HETATM   14  N   UNL     1     -11.190  11.910  63.761  1.00  0.00    -0.407 NA 
HETATM   15  C   UNL     1     -10.221  11.004  63.679  1.00  0.00    -0.372 A  
HETATM   16  C   UNL     1     -10.402  11.450  65.828  1.00  0.00    -0.255 A  
HETATM   17  N   UNL     1     -11.277  12.187  65.073  1.00  0.00    -0.315 NA 
BRANCH  17  18
HETATM   18  C   UNL     1     -12.210  13.208  65.551  1.00  0.00    -0.461 C  
HETATM   19  C   UNL     1     -11.953  13.600  67.013  1.00  0.00    -0.448 C  
HETATM   20  C   UNL     1     -10.753  14.536  67.165  1.00  0.00    -0.286 C  
HETATM   21  N   UNL     1     -10.868  15.714  66.305  1.00  0.00    -0.297 NA 
HETATM   22  C   UNL     1     -11.017  15.355  64.894  1.00  0.00    -0.437 C  
HETATM   23  H   UNL     1     -10.082  16.350  66.443  1.00  0.00     0.000 HD 
HETATM   24  C   UNL     1     -12.229  14.456  64.660  1.00  0.00    -0.479 C  
ENDBRANCH  17  18
ENDBRANCH   6  13
ENDBRANCH   3   4
ENDBRANCH   2   3
BRANCH   2  25
HETATM   25  C   UNL     1      -8.918   5.993  68.325  1.00  0.00    -0.113 A  
HETATM   26 CL   UNL     1      -6.939   6.811  70.092  1.00  0.00    -0.064 Cl 
HETATM   27  C   UNL     1     -10.302   5.883  68.036  1.00  0.00    -0.208 A  
HETATM   28 CL   UNL     1     -10.898   5.353  66.496  1.00  0.00    -0.311 Cl 
HETATM   29  F   UNL     1      -9.238   7.263  71.758  1.00  0.00    -0.141 F  
HETATM   30  C   UNL     1     -11.282   6.221  68.979  1.00  0.00    -0.415 A  
HETATM   31  C   UNL     1     -10.913   6.675  70.237  1.00  0.00    -0.355 A  
HETATM   32  C   UNL     1      -8.570   6.495  69.599  1.00  0.00    -0.132 A  
HETATM   33  C   UNL     1      -9.566   6.810  70.538  1.00  0.00    -0.169 A  
ENDBRANCH   2  25
TORSDOF 5
ENDMDL
MODEL      153
REMARK 921   NORMALIZED FREE ENERGY PREDICTED BY IDOCK:   -5.55 KCAL/MOL
REMARK 922        TOTAL FREE ENERGY PREDICTED BY IDOCK:   -7.85 KCAL/MOL
REMARK 923 INTER-LIGAND FREE ENERGY PREDICTED BY IDOCK:   -7.96 KCAL/MOL
REMARK 924 INTRA-LIGAND FREE ENERGY PREDICTED BY IDOCK:    0.12 KCAL/MOL
REMARK 927      BINDING AFFINITY PREDICTED BY RF-SCORE:    0.00 PKD
ROOT
HETATM    1  C   UNL     1     -10.045  10.838  65.571  1.00  0.00    -0.335 C  
HETATM    2  C   UNL     1     -10.676  12.229  65.634  1.00  0.00    -0.267 C  
ENDROOT
BRANCH   2   3
HETATM    3  O   UNL     1     -11.880  12.100  66.392  1.00  0.00    -0.563 OA 
BRANCH   3   4
HETATM    4  C   UNL     1     -11.872  12.261  67.747  1.00  0.00    -0.273 A  
HETATM    5  C   UNL     1     -11.951  12.259  70.471  1.00  0.00    -0.205 A  
HETATM    6  C   UNL     1     -11.824  11.031  69.833  1.00  0.00    -0.431 A  
HETATM    7  H1  UNL     1     -12.348  15.548  68.464  1.00  0.00     0.000 HD 
HETATM    8  N   UNL     1     -12.047  13.450  69.834  1.00  0.00    -0.332 NA 
HETATM    9  C   UNL     1     -11.780  11.049  68.443  1.00  0.00    -0.329 A  
HETATM   10  C   UNL     1     -12.031  13.434  68.488  1.00  0.00    -0.328 A  
HETATM   11  H2  UNL     1     -13.038  14.616  67.305  1.00  0.00     0.000 HD 
HETATM   12  N   UNL     1     -12.231  14.691  67.924  1.00  0.00    -0.167 NA 
BRANCH   6  13
HETATM   13  C   UNL     1     -11.789   9.803  70.598  1.00  0.00    -0.360 A  
HETATM   14  N   UNL     1     -12.175   8.252  72.220  1.00  0.00    -0.362 NA 
HETATM   15  C   UNL     1     -12.468   9.475  71.788  1.00  0.00    -0.401 A  
HETATM   16  C   UNL     1     -11.049   8.674  70.307  1.00  0.00    -0.217 A  
HETATM   17  N   UNL     1     -11.294   7.783  71.320  1.00  0.00    -0.259 NA 
BRANCH  17  18
HETATM   18  C   UNL     1     -10.686   6.465  71.500  1.00  0.00    -0.238 C  
HETATM   19  C   UNL     1      -9.378   6.308  70.713  1.00  0.00    -0.168 C  
HETATM   20  C   UNL     1      -8.201   7.013  71.388  1.00  0.00    -0.109 C  
HETATM   21  N   UNL     1      -8.042   6.596  72.782  1.00  0.00    -0.108 NA 
HETATM   22  C   UNL     1      -9.254   6.829  73.569  1.00  0.00    -0.140 C  
HETATM   23  H   UNL     1      -7.232   7.042  73.211  1.00  0.00     0.000 HD 
HETATM   24  C   UNL     1     -10.465   6.113  72.976  1.00  0.00    -0.245 C  
ENDBRANCH  17  18
ENDBRANCH   6  13
ENDBRANCH   3   4
ENDBRANCH   2   3
BRANCH   2  25
HETATM   25  C   UNL     1      -9.698  13.238  66.240  1.00  0.00    -0.274 A  
HETATM   26 CL   UNL     1      -8.347  11.272  67.660  1.00  0.00    -0.121 Cl 
HETATM   27  C   UNL     1      -9.776  14.598  65.846  1.00  0.00    -0.310 A  
HETATM   28 CL   UNL     1     -10.926  15.171  64.681  1.00  0.00    -0.369 Cl 
HETATM   29  F   UNL     1      -6.869  13.566  68.561  1.00  0.00    -0.075 F  
HETATM   30  C   UNL     1      -8.905  15.568  66.362  1.00  0.00    -0.359 A  
HETATM   31  C   UNL     1      -7.934  15.212  67.287  1.00  0.00    -0.234 A  
HETATM   32  C   UNL     1      -8.675  12.896  67.153  1.00  0.00    -0.205 A  
HETATM   33  C   UNL     1      -7.825  13.884  67.674  1.00  0.00    -0.179 A  
ENDBRANCH   2  25
TORSDOF 5
ENDMDL
MODEL      154
REMARK 921   NORMALIZED FREE ENERGY PREDICTED BY IDOCK:   -5.55 KCAL/MOL
REMARK 922        TOTAL FREE ENERGY PREDICTED BY IDOCK:   -7.84 KCAL/MOL
REMARK 923 INTER-LIGAND FREE ENERGY PREDICTED BY IDOCK:   -6.87 KCAL/MOL
REMARK 924 INTRA-LIGAND FREE ENERGY PREDICTED BY IDOCK:   -0.97 KCAL/MOL
REMARK 927      BINDING AFFINITY PREDICTED BY RF-SCORE:    0.00 PKD
ROOT
HETATM    1  C   UNL     1      -6.577   6.082  64.903  1.00  0.00    -0.042 C  
HETATM    2  C   UNL     1      -7.589   6.896  65.710  1.00  0.00    -0.091 C  
ENDROOT
BRANCH   2   3
HETATM    3  O   UNL     1      -8.489   7.482  64.768  1.00  0.00    -0.059 OA 
BRANCH   3   4
HETATM    4  C   UNL     1      -9.006   8.728  64.979  1.00  0.00    -0.060 A  
HETATM    5  C   UNL     1     -10.214  11.075  65.654  1.00  0.00    -0.260 A  
HETATM    6  C   UNL     1     -10.164  10.079  66.623  1.00  0.00    -0.288 A  
HETATM    7  H1  UNL     1      -8.844  10.490  62.079  1.00  0.00     0.000 HD 
HETATM    8  N   UNL     1      -9.714  10.956  64.402  1.00  0.00    -0.264 NA 
HETATM    9  C   UNL     1      -9.540   8.889  66.264  1.00  0.00    -0.328 A  
HETATM   10  C   UNL     1      -9.142   9.782  64.074  1.00  0.00    -0.237 A  
HETATM   11  H2  UNL     1      -9.207   8.910  62.328  1.00  0.00     0.000 HD 
HETATM   12  N   UNL     1      -8.745   9.720  62.741  1.00  0.00    -0.205 NA 
BRANCH   6  13
HETATM   13  C   UNL     1     -10.780  10.278  67.917  1.00  0.00    -0.310 A  
HETATM   14  N   UNL     1     -12.011  11.166  69.613  1.00  0.00    -0.335 NA 
HETATM   15  C   UNL     1     -11.662  11.293  68.337  1.00  0.00    -0.294 A  
HETATM   16  C   UNL     1     -10.612   9.488  69.037  1.00  0.00    -0.219 A  
HETATM   17  N   UNL     1     -11.349  10.074  70.033  1.00  0.00    -0.266 NA 
BRANCH  17  18
HETATM   18  C   UNL     1     -11.436   9.650  71.430  1.00  0.00    -0.385 C  
HETATM   19  C   UNL     1     -12.822   9.910  72.038  1.00  0.00    -0.488 C  
HETATM   20  C   UNL     1     -13.858   8.877  71.594  1.00  0.00    -0.384 C  
HETATM   21  N   UNL     1     -13.408   7.508  71.850  1.00  0.00    -0.498 NA 
HETATM   22  C   UNL     1     -12.131   7.216  71.195  1.00  0.00    -0.358 C  
HETATM   23  H   UNL     1     -14.121   6.829  71.586  1.00  0.00     0.000 HD 
HETATM   24  C   UNL     1     -11.033   8.184  71.630  1.00  0.00    -0.306 C  
ENDBRANCH  17  18
ENDBRANCH   6  13
ENDBRANCH   3   4
ENDBRANCH   2   3
BRANCH   2  25
HETATM   25  C   UNL     1      -8.298   6.009  66.736  1.00  0.00    -0.106 A  
HETATM   26 CL   UNL     1      -7.436   7.563  68.869  1.00  0.00    -0.094 Cl 
HETATM   27  C   UNL     1      -9.089   4.923  66.281  1.00  0.00    -0.127 A  
HETATM   28 CL   UNL     1      -9.311   4.567  64.598  1.00  0.00    -0.149 Cl 
HETATM   29  F   UNL     1      -8.854   5.540  70.337  1.00  0.00    -0.122 F  
HETATM   30  C   UNL     1      -9.766   4.078  67.172  1.00  0.00    -0.207 A  
HETATM   31  C   UNL     1      -9.671   4.288  68.540  1.00  0.00    -0.164 A  
HETATM   32  C   UNL     1      -8.250   6.223  68.132  1.00  0.00    -0.115 A  
HETATM   33  C   UNL     1      -8.919   5.354  69.010  1.00  0.00    -0.107 A  
ENDBRANCH   2  25
TORSDOF 5
ENDMDL
MODEL      155
REMARK 921   NORMALIZED FREE ENERGY PREDICTED BY IDOCK:   -5.52 KCAL/MOL
REMARK 922        TOTAL FREE ENERGY PREDICTED BY IDOCK:   -7.81 KCAL/MOL
REMARK 923 INTER-LIGAND FREE ENERGY PREDICTED BY IDOCK:   -6.77 KCAL/MOL
REMARK 924 INTRA-LIGAND FREE ENERGY PREDICTED BY IDOCK:   -1.04 KCAL/MOL
REMARK 927      BINDING AFFINITY PREDICTED BY RF-SCORE:    0.00 PKD
ROOT
HETATM    1  C   UNL     1     -10.843  18.381  67.271  1.00  0.00    -0.296 C  
HETATM    2  C   UNL     1      -9.931  17.188  67.565  1.00  0.00    -0.279 C  
ENDROOT
BRANCH   2   3
HETATM    3  O   UNL     1      -9.187  17.520  68.739  1.00  0.00    -0.278 OA 
BRANCH   3   4
HETATM    4  C   UNL     1      -7.873  17.171  68.854  1.00  0.00    -0.217 A  
HETATM    5  C   UNL     1      -5.357  16.214  69.271  1.00  0.00    -0.113 A  
HETATM    6  C   UNL     1      -6.414  15.325  69.429  1.00  0.00    -0.141 A  
HETATM    7  H1  UNL     1      -5.959  19.947  68.435  1.00  0.00     0.000 HD 
HETATM    8  N   UNL     1      -5.492  17.517  68.933  1.00  0.00    -0.158 NA 
HETATM    9  C   UNL     1      -7.691  15.828  69.208  1.00  0.00    -0.224 A  
HETATM   10  C   UNL     1      -6.742  17.984  68.755  1.00  0.00    -0.248 A  
HETATM   11  H2  UNL     1      -7.390  19.767  69.216  1.00  0.00     0.000 HD 
HETATM   12  N   UNL     1      -6.785  19.353  68.506  1.00  0.00    -0.272 NA 
BRANCH   6  13
HETATM   13  C   UNL     1      -6.174  13.962  69.850  1.00  0.00    -0.136 A  
HETATM   14  N   UNL     1      -5.575  12.158  71.103  1.00  0.00    -0.377 NA 
HETATM   15  C   UNL     1      -5.686  13.482  71.081  1.00  0.00    -0.172 A  
HETATM   16  C   UNL     1      -6.377  12.821  69.098  1.00  0.00    -0.106 A  
HETATM   17  N   UNL     1      -5.981  11.770  69.882  1.00  0.00    -0.131 NA 
BRANCH  17  18
HETATM   18  C   UNL     1      -5.936  10.357  69.504  1.00  0.00    -0.044 C  
HETATM   19  C   UNL     1      -6.609   9.449  70.544  1.00  0.00    -0.084 C  
HETATM   20  C   UNL     1      -8.136   9.490  70.454  1.00  0.00    -0.183 C  
HETATM   21  N   UNL     1      -8.610   9.201  69.100  1.00  0.00    -0.130 NA 
HETATM   22  C   UNL     1      -8.049  10.123  68.110  1.00  0.00    -0.105 C  
HETATM   23  H   UNL     1      -9.629   9.193  69.060  1.00  0.00     0.000 HD 
HETATM   24  C   UNL     1      -6.522  10.098  68.111  1.00  0.00    -0.057 C  
ENDBRANCH  17  18
ENDBRANCH   6  13
ENDBRANCH   3   4
ENDBRANCH   2   3
BRANCH   2  25
HETATM   25  C   UNL     1     -10.754  15.908  67.725  1.00  0.00    -0.320 A  
HETATM   26 CL   UNL     1     -11.174  16.360  70.431  1.00  0.00    -0.347 Cl 
HETATM   27  C   UNL     1     -11.029  15.118  66.580  1.00  0.00    -0.318 A  
HETATM   28 CL   UNL     1     -10.491  15.553  64.990  1.00  0.00    -0.428 Cl 
HETATM   29  F   UNL     1     -12.536  13.841  70.184  1.00  0.00    -0.369 F  
HETATM   30  C   UNL     1     -11.781  13.937  66.662  1.00  0.00    -0.417 A  
HETATM   31  C   UNL     1     -12.276  13.508  67.885  1.00  0.00    -0.168 A  
HETATM   32  C   UNL     1     -11.302  15.469  68.951  1.00  0.00    -0.324 A  
HETATM   33  C   UNL     1     -12.036  14.274  69.016  1.00  0.00    -0.325 A  
ENDBRANCH   2  25
TORSDOF 5
ENDMDL
MODEL      156
REMARK 921   NORMALIZED FREE ENERGY PREDICTED BY IDOCK:   -5.49 KCAL/MOL
REMARK 922        TOTAL FREE ENERGY PREDICTED BY IDOCK:   -7.76 KCAL/MOL
REMARK 923 INTER-LIGAND FREE ENERGY PREDICTED BY IDOCK:   -6.87 KCAL/MOL
REMARK 924 INTRA-LIGAND FREE ENERGY PREDICTED BY IDOCK:   -0.89 KCAL/MOL
REMARK 927      BINDING AFFINITY PREDICTED BY RF-SCORE:    0.00 PKD
ROOT
HETATM    1  C   UNL     1     -12.780  13.195  65.917  1.00  0.00    -0.108 C  
HETATM    2  C   UNL     1     -11.623  13.124  66.916  1.00  0.00    -0.368 C  
ENDROOT
BRANCH   2   3
HETATM    3  O   UNL     1     -10.532  12.502  66.236  1.00  0.00    -0.241 OA 
BRANCH   3   4
HETATM    4  C   UNL     1      -9.645  11.715  66.913  1.00  0.00    -0.186 A  
HETATM    5  C   UNL     1      -8.140   9.945  68.336  1.00  0.00    -0.101 A  
HETATM    6  C   UNL     1      -9.352   9.492  67.828  1.00  0.00    -0.143 A  
HETATM    7  H1  UNL     1      -7.013  13.624  67.896  1.00  0.00     0.000 HD 
HETATM    8  N   UNL     1      -7.663  11.202  68.179  1.00  0.00    -0.102 NA 
HETATM    9  C   UNL     1     -10.106  10.406  67.101  1.00  0.00    -0.254 A  
HETATM   10  C   UNL     1      -8.428  12.074  67.496  1.00  0.00    -0.165 A  
HETATM   11  H2  UNL     1      -8.612  13.984  67.856  1.00  0.00     0.000 HD 
HETATM   12  N   UNL     1      -7.902  13.362  67.470  1.00  0.00    -0.169 NA 
BRANCH   6  13
HETATM   13  C   UNL     1      -9.806   8.145  68.098  1.00  0.00    -0.194 A  
HETATM   14  N   UNL     1     -10.881   6.146  67.914  1.00  0.00    -0.306 NA 
HETATM   15  C   UNL     1     -10.671   7.328  67.343  1.00  0.00    -0.288 A  
HETATM   16  C   UNL     1      -9.476   7.370  69.193  1.00  0.00    -0.149 A  
HETATM   17  N   UNL     1     -10.164   6.193  69.050  1.00  0.00    -0.175 NA 
BRANCH  17  18
HETATM   18  C   UNL     1     -10.200   5.074  69.992  1.00  0.00    -0.269 C  
HETATM   19  C   UNL     1      -9.640   3.779  69.388  1.00  0.00    -0.219 C  
HETATM   20  C   UNL     1      -8.111   3.770  69.339  1.00  0.00    -0.054 C  
HETATM   21  N   UNL     1      -7.522   4.051  70.649  1.00  0.00    -0.041 NA 
HETATM   22  C   UNL     1      -7.975   5.332  71.194  1.00  0.00    -0.108 C  
HETATM   23  H   UNL     1      -6.504   4.004  70.613  1.00  0.00     0.000 HD 
HETATM   24  C   UNL     1      -9.496   5.393  71.316  1.00  0.00    -0.191 C  
ENDBRANCH  17  18
ENDBRANCH   6  13
ENDBRANCH   3   4
ENDBRANCH   2   3
BRANCH   2  25
HETATM   25  C   UNL     1     -11.279  14.519  67.442  1.00  0.00    -0.337 A  
HETATM   26 CL   UNL     1     -10.566  15.436  64.921  1.00  0.00    -0.427 Cl 
HETATM   27  C   UNL     1     -11.498  14.813  68.812  1.00  0.00    -0.301 A  
HETATM   28 CL   UNL     1     -12.165  13.661  69.923  1.00  0.00    -0.382 Cl 
HETATM   29  F   UNL     1      -9.988  17.808  66.437  1.00  0.00    -0.288 F  
HETATM   30  C   UNL     1     -11.206  16.074  69.351  1.00  0.00    -0.349 A  
HETATM   31  C   UNL     1     -10.686  17.075  68.544  1.00  0.00    -0.352 A  
HETATM   32  C   UNL     1     -10.786  15.568  66.634  1.00  0.00    -0.306 A  
HETATM   33  C   UNL     1     -10.481  16.818  67.197  1.00  0.00    -0.299 A  
ENDBRANCH   2  25
TORSDOF 5
ENDMDL
MODEL      157
REMARK 921   NORMALIZED FREE ENERGY PREDICTED BY IDOCK:   -5.44 KCAL/MOL
REMARK 922        TOTAL FREE ENERGY PREDICTED BY IDOCK:   -7.70 KCAL/MOL
REMARK 923 INTER-LIGAND FREE ENERGY PREDICTED BY IDOCK:   -6.84 KCAL/MOL
REMARK 924 INTRA-LIGAND FREE ENERGY PREDICTED BY IDOCK:   -0.86 KCAL/MOL
REMARK 927      BINDING AFFINITY PREDICTED BY RF-SCORE:    0.00 PKD
ROOT
HETATM    1  C   UNL     1      -9.683   4.097  70.305  1.00  0.00    -0.277 C  
HETATM    2  C   UNL     1      -9.762   5.437  69.571  1.00  0.00    -0.176 C  
ENDROOT
BRANCH   2   3
HETATM    3  O   UNL     1      -9.458   6.450  70.532  1.00  0.00    -0.161 OA 
BRANCH   3   4
HETATM    4  C   UNL     1     -10.415   7.331  70.943  1.00  0.00    -0.213 A  
HETATM    5  C   UNL     1     -12.138   9.332  71.616  1.00  0.00    -0.379 A  
HETATM    6  C   UNL     1     -11.274   9.562  70.552  1.00  0.00    -0.345 A  
HETATM    7  H1  UNL     1     -11.997   6.045  73.661  1.00  0.00     0.000 HD 
HETATM    8  N   UNL     1     -12.176   8.190  72.343  1.00  0.00    -0.340 NA 
HETATM    9  C   UNL     1     -10.404   8.530  70.218  1.00  0.00    -0.218 A  
HETATM   10  C   UNL     1     -11.302   7.220  72.016  1.00  0.00    -0.260 A  
HETATM   11  H2  UNL     1     -10.410   6.000  73.252  1.00  0.00     0.000 HD 
HETATM   12  N   UNL     1     -11.349   6.127  72.877  1.00  0.00    -0.213 NA 
BRANCH   6  13
HETATM   13  C   UNL     1     -11.267  10.839  69.872  1.00  0.00    -0.371 A  
HETATM   14  N   UNL     1     -11.701  13.010  69.340  1.00  0.00    -0.312 NA 
HETATM   15  C   UNL     1     -11.923  12.037  70.218  1.00  0.00    -0.314 A  
HETATM   16  C   UNL     1     -10.599  11.144  68.702  1.00  0.00    -0.193 A  
HETATM   17  N   UNL     1     -10.910  12.446  68.411  1.00  0.00    -0.228 NA 
BRANCH  17  18
HETATM   18  C   UNL     1     -10.501  13.207  67.230  1.00  0.00    -0.243 C  
HETATM   19  C   UNL     1     -10.111  12.302  66.054  1.00  0.00    -0.269 C  
HETATM   20  C   UNL     1     -11.329  11.721  65.335  1.00  0.00    -0.222 C  
HETATM   21  N   UNL     1     -12.268  12.765  64.922  1.00  0.00    -0.437 NA 
HETATM   22  C   UNL     1     -12.723  13.576  66.052  1.00  0.00    -0.245 C  
HETATM   23  H   UNL     1     -13.057  12.370  64.410  1.00  0.00     0.000 HD 
HETATM   24  C   UNL     1     -11.556  14.229  66.791  1.00  0.00    -0.407 C  
ENDBRANCH  17  18
ENDBRANCH   6  13
ENDBRANCH   3   4
ENDBRANCH   2   3
BRANCH   2  25
HETATM   25  C   UNL     1      -8.813   5.450  68.371  1.00  0.00    -0.102 A  
HETATM   26 CL   UNL     1     -10.897   5.740  66.561  1.00  0.00    -0.300 Cl 
HETATM   27  C   UNL     1      -7.414   5.401  68.597  1.00  0.00    -0.075 A  
HETATM   28 CL   UNL     1      -6.723   5.349  70.187  1.00  0.00    -0.045 Cl 
HETATM   29  F   UNL     1      -8.708   5.613  64.703  1.00  0.00    -0.145 F  
HETATM   30  C   UNL     1      -6.494   5.415  67.539  1.00  0.00    -0.051 A  
HETATM   31  C   UNL     1      -6.941   5.475  66.227  1.00  0.00    -0.060 A  
HETATM   32  C   UNL     1      -9.240   5.551  67.028  1.00  0.00    -0.116 A  
HETATM   33  C   UNL     1      -8.304   5.543  65.981  1.00  0.00    -0.122 A  
ENDBRANCH   2  25
TORSDOF 5
ENDMDL
MODEL      158
REMARK 921   NORMALIZED FREE ENERGY PREDICTED BY IDOCK:   -5.39 KCAL/MOL
REMARK 922        TOTAL FREE ENERGY PREDICTED BY IDOCK:   -7.64 KCAL/MOL
REMARK 923 INTER-LIGAND FREE ENERGY PREDICTED BY IDOCK:   -6.80 KCAL/MOL
REMARK 924 INTRA-LIGAND FREE ENERGY PREDICTED BY IDOCK:   -0.84 KCAL/MOL
REMARK 927      BINDING AFFINITY PREDICTED BY RF-SCORE:    0.00 PKD
ROOT
HETATM    1  C   UNL     1      -8.943   9.028  71.080  1.00  0.00    -0.304 C  
HETATM    2  C   UNL     1      -9.338   8.392  69.746  1.00  0.00    -0.158 C  
ENDROOT
BRANCH   2   3
HETATM    3  O   UNL     1      -8.535   9.014  68.741  1.00  0.00    -0.127 OA 
BRANCH   3   4
HETATM    4  C   UNL     1      -9.115   9.665  67.691  1.00  0.00    -0.131 A  
HETATM    5  C   UNL     1     -10.370  11.198  65.821  1.00  0.00    -0.260 A  
HETATM    6  C   UNL     1      -9.998  11.815  67.009  1.00  0.00    -0.224 A  
HETATM    7  H1  UNL     1      -9.802   7.410  65.244  1.00  0.00     0.000 HD 
HETATM    8  N   UNL     1     -10.160   9.892  65.534  1.00  0.00    -0.284 NA 
HETATM    9  C   UNL     1      -9.354  11.020  67.951  1.00  0.00    -0.160 A  
HETATM   10  C   UNL     1      -9.561   9.140  66.477  1.00  0.00    -0.227 A  
HETATM   11  H2  UNL     1      -9.934   7.265  66.872  1.00  0.00     0.000 HD 
HETATM   12  N   UNL     1      -9.475   7.794  66.131  1.00  0.00    -0.119 NA 
BRANCH   6  13
HETATM   13  C   UNL     1     -10.319  13.205  67.249  1.00  0.00    -0.243 A  
HETATM   14  N   UNL     1     -11.432  15.191  67.306  1.00  0.00    -0.322 NA 
HETATM   15  C   UNL     1     -11.504  13.909  66.960  1.00  0.00    -0.346 A  
HETATM   16  C   UNL     1      -9.493  14.153  67.822  1.00  0.00    -0.207 A  
HETATM   17  N   UNL     1     -10.194  15.330  67.812  1.00  0.00    -0.235 NA 
BRANCH  17  18
HETATM   18  C   UNL     1      -9.719  16.643  68.247  1.00  0.00    -0.244 C  
HETATM   19  C   UNL     1      -8.219  16.842  67.985  1.00  0.00    -0.192 C  
HETATM   20  C   UNL     1      -7.918  17.150  66.518  1.00  0.00    -0.289 C  
HETATM   21  N   UNL     1      -8.705  18.282  66.025  1.00  0.00    -0.505 NA 
HETATM   22  C   UNL     1     -10.144  18.063  66.182  1.00  0.00    -0.334 C  
HETATM   23  H   UNL     1      -8.468  18.503  65.058  1.00  0.00     0.000 HD 
HETATM   24  C   UNL     1     -10.524  17.796  67.637  1.00  0.00    -0.393 C  
ENDBRANCH  17  18
ENDBRANCH   6  13
ENDBRANCH   3   4
ENDBRANCH   2   3
BRANCH   2  25
HETATM   25  C   UNL     1      -9.154   6.873  69.799  1.00  0.00    -0.144 A  
HETATM   26 CL   UNL     1      -6.460   7.046  69.150  1.00  0.00    -0.038 Cl 
HETATM   27  C   UNL     1     -10.248   6.059  70.185  1.00  0.00    -0.208 A  
HETATM   28 CL   UNL     1     -11.793   6.712  70.628  1.00  0.00    -0.453 Cl 
HETATM   29  F   UNL     1      -6.701   4.185  69.292  1.00  0.00    -0.040 F  
HETATM   30  C   UNL     1     -10.140   4.663  70.257  1.00  0.00    -0.276 A  
HETATM   31  C   UNL     1      -8.942   4.039  69.943  1.00  0.00    -0.161 A  
HETATM   32  C   UNL     1      -7.934   6.215  69.522  1.00  0.00    -0.107 A  
HETATM   33  C   UNL     1      -7.852   4.815  69.580  1.00  0.00    -0.066 A  
ENDBRANCH   2  25
TORSDOF 5
ENDMDL
MODEL      159
REMARK 921   NORMALIZED FREE ENERGY PREDICTED BY IDOCK:   -5.35 KCAL/MOL
REMARK 922        TOTAL FREE ENERGY PREDICTED BY IDOCK:   -7.58 KCAL/MOL
REMARK 923 INTER-LIGAND FREE ENERGY PREDICTED BY IDOCK:   -6.71 KCAL/MOL
REMARK 924 INTRA-LIGAND FREE ENERGY PREDICTED BY IDOCK:   -0.87 KCAL/MOL
REMARK 927      BINDING AFFINITY PREDICTED BY RF-SCORE:    0.00 PKD
ROOT
HETATM    1  C   UNL     1     -11.733  16.016  69.840  1.00  0.00    -0.276 C  
HETATM    2  C   UNL     1     -10.553  16.135  68.874  1.00  0.00    -0.275 C  
ENDROOT
BRANCH   2   3
HETATM    3  O   UNL     1      -9.446  15.478  69.494  1.00  0.00    -0.258 OA 
BRANCH   3   4
HETATM    4  C   UNL     1      -8.254  15.355  68.841  1.00  0.00    -0.192 A  
HETATM    5  C   UNL     1      -5.886  14.781  67.621  1.00  0.00    -0.016 A  
HETATM    6  C   UNL     1      -6.768  13.728  67.836  1.00  0.00    -0.162 A  
HETATM    7  H1  UNL     1      -6.680  18.366  68.854  1.00  0.00     0.000 HD 
HETATM    8  N   UNL     1      -6.119  16.065  67.982  1.00  0.00    -0.118 NA 
HETATM    9  C   UNL     1      -7.973  14.038  68.456  1.00  0.00    -0.141 A  
HETATM   10  C   UNL     1      -7.282  16.330  68.607  1.00  0.00    -0.166 A  
HETATM   11  H2  UNL     1      -7.561  17.638  70.030  1.00  0.00     0.000 HD 
HETATM   12  N   UNL     1      -7.390  17.654  69.024  1.00  0.00    -0.233 NA 
BRANCH   6  13
HETATM   13  C   UNL     1      -6.405  12.376  67.468  1.00  0.00    -0.148 A  
HETATM   14  N   UNL     1      -5.186  10.556  66.848  1.00  0.00    -0.041 NA 
HETATM   15  C   UNL     1      -5.135  11.846  67.165  1.00  0.00    -0.106 A  
HETATM   16  C   UNL     1      -7.264  11.304  67.326  1.00  0.00    -0.114 A  
HETATM   17  N   UNL     1      -6.491  10.244  66.930  1.00  0.00    -0.069 NA 
BRANCH  17  18
HETATM   18  C   UNL     1      -6.952   8.900  66.582  1.00  0.00    -0.080 C  
HETATM   19  C   UNL     1      -8.287   8.544  67.250  1.00  0.00    -0.115 C  
HETATM   20  C   UNL     1      -9.481   9.201  66.556  1.00  0.00    -0.208 C  
HETATM   21  N   UNL     1      -9.504   8.913  65.121  1.00  0.00    -0.427 NA 
HETATM   22  C   UNL     1      -8.272   9.336  64.453  1.00  0.00    -0.151 C  
HETATM   23  H   UNL     1     -10.325   9.323  64.675  1.00  0.00     0.000 HD 
HETATM   24  C   UNL     1      -7.037   8.678  65.067  1.00  0.00    -0.080 C  
ENDBRANCH  17  18
ENDBRANCH   6  13
ENDBRANCH   3   4
ENDBRANCH   2   3
BRANCH   2  25
HETATM   25  C   UNL     1     -10.912  15.539  67.511  1.00  0.00    -0.316 A  
HETATM   26 CL   UNL     1     -12.034  13.271  68.652  1.00  0.00    -0.377 Cl 
HETATM   27  C   UNL     1     -10.651  16.293  66.338  1.00  0.00    -0.253 A  
HETATM   28 CL   UNL     1      -9.961  17.883  66.380  1.00  0.00    -0.348 Cl 
HETATM   29  F   UNL     1     -12.383  12.594  65.881  1.00  0.00    -0.479 F  
HETATM   30  C   UNL     1     -10.961  15.802  65.062  1.00  0.00    -0.431 A  
HETATM   31  C   UNL     1     -11.535  14.548  64.917  1.00  0.00    -0.396 A  
HETATM   32  C   UNL     1     -11.532  14.282  67.338  1.00  0.00    -0.347 A  
HETATM   33  C   UNL     1     -11.817  13.799  66.050  1.00  0.00    -0.390 A  
ENDBRANCH   2  25
TORSDOF 5
ENDMDL
MODEL      160
REMARK 921   NORMALIZED FREE ENERGY PREDICTED BY IDOCK:   -5.35 KCAL/MOL
REMARK 922        TOTAL FREE ENERGY PREDICTED BY IDOCK:   -7.58 KCAL/MOL
REMARK 923 INTER-LIGAND FREE ENERGY PREDICTED BY IDOCK:   -7.43 KCAL/MOL
REMARK 924 INTRA-LIGAND FREE ENERGY PREDICTED BY IDOCK:   -0.15 KCAL/MOL
REMARK 927      BINDING AFFINITY PREDICTED BY RF-SCORE:    0.00 PKD
ROOT
HETATM    1  C   UNL     1     -10.788   7.184  66.898  1.00  0.00    -0.307 C  
HETATM    2  C   UNL     1      -9.260   7.216  66.945  1.00  0.00    -0.148 C  
ENDROOT
BRANCH   2   3
HETATM    3  O   UNL     1      -8.897   8.357  67.725  1.00  0.00    -0.136 OA 
BRANCH   3   4
HETATM    4  C   UNL     1      -9.574   9.535  67.595  1.00  0.00    -0.136 A  
HETATM    5  C   UNL     1     -11.113  11.783  67.600  1.00  0.00    -0.252 A  
HETATM    6  C   UNL     1     -11.053  11.046  68.777  1.00  0.00    -0.293 A  
HETATM    7  H1  UNL     1      -9.303  10.609  64.384  1.00  0.00     0.000 HD 
HETATM    8  N   UNL     1     -10.468  11.457  66.455  1.00  0.00    -0.245 NA 
HETATM    9  C   UNL     1     -10.260   9.904  68.759  1.00  0.00    -0.205 A  
HETATM   10  C   UNL     1      -9.732  10.330  66.459  1.00  0.00    -0.193 A  
HETATM   11  H2  UNL     1      -9.505   9.090  64.968  1.00  0.00     0.000 HD 
HETATM   12  N   UNL     1      -9.188  10.028  65.214  1.00  0.00    -0.198 NA 
BRANCH   6  13
HETATM   13  C   UNL     1     -11.825  11.442  69.935  1.00  0.00    -0.435 A  
HETATM   14  N   UNL     1     -13.090  11.353  71.826  1.00  0.00    -0.471 NA 
HETATM   15  C   UNL     1     -12.444  10.637  70.911  1.00  0.00    -0.397 A  
HETATM   16  C   UNL     1     -12.126  12.734  70.319  1.00  0.00    -0.297 A  
HETATM   17  N   UNL     1     -12.906  12.628  71.441  1.00  0.00    -0.328 NA 
BRANCH  17  18
HETATM   18  C   UNL     1     -13.536  13.720  72.183  1.00  0.00    -0.519 C  
HETATM   19  C   UNL     1     -12.586  14.364  73.202  1.00  0.00    -0.368 C  
HETATM   20  C   UNL     1     -11.578  15.308  72.546  1.00  0.00    -0.397 C  
HETATM   21  N   UNL     1     -12.236  16.316  71.713  1.00  0.00    -0.618 NA 
HETATM   22  C   UNL     1     -13.071  15.712  70.673  1.00  0.00    -0.204 C  
HETATM   23  H   UNL     1     -11.558  16.963  71.312  1.00  0.00     0.000 HD 
HETATM   24  C   UNL     1     -14.136  14.790  71.263  1.00  0.00    -0.427 C  
ENDBRANCH  17  18
ENDBRANCH   6  13
ENDBRANCH   3   4
ENDBRANCH   2   3
BRANCH   2  25
HETATM   25  C   UNL     1      -8.710   5.907  67.515  1.00  0.00    -0.104 A  
HETATM   26 CL   UNL     1      -9.847   6.363  70.006  1.00  0.00    -0.185 Cl 
HETATM   27  C   UNL     1      -7.996   5.028  66.661  1.00  0.00    -0.107 A  
HETATM   28 CL   UNL     1      -7.733   5.363  64.980  1.00  0.00    -0.084 Cl 
HETATM   29  F   UNL     1      -8.514   3.881  70.573  1.00  0.00    -0.068 F  
HETATM   30  C   UNL     1      -7.472   3.813  67.124  1.00  0.00    -0.072 A  
HETATM   31  C   UNL     1      -7.643   3.439  68.449  1.00  0.00    -0.056 A  
HETATM   32  C   UNL     1      -8.903   5.484  68.850  1.00  0.00    -0.107 A  
HETATM   33  C   UNL     1      -8.354   4.272  69.300  1.00  0.00    -0.073 A  
ENDBRANCH   2  25
TORSDOF 5
ENDMDL
MODEL      161
REMARK 921   NORMALIZED FREE ENERGY PREDICTED BY IDOCK:   -5.34 KCAL/MOL
REMARK 922        TOTAL FREE ENERGY PREDICTED BY IDOCK:   -7.58 KCAL/MOL
REMARK 923 INTER-LIGAND FREE ENERGY PREDICTED BY IDOCK:   -6.96 KCAL/MOL
REMARK 924 INTRA-LIGAND FREE ENERGY PREDICTED BY IDOCK:   -0.61 KCAL/MOL
REMARK 927      BINDING AFFINITY PREDICTED BY RF-SCORE:    0.00 PKD
ROOT
HETATM    1  C   UNL     1     -10.007  15.969  66.115  1.00  0.00    -0.347 C  
HETATM    2  C   UNL     1      -9.829  16.598  67.497  1.00  0.00    -0.253 C  
ENDROOT
BRANCH   2   3
HETATM    3  O   UNL     1      -9.478  15.538  68.389  1.00  0.00    -0.190 OA 
BRANCH   3   4
HETATM    4  C   UNL     1     -10.331  14.495  68.602  1.00  0.00    -0.242 A  
HETATM    5  C   UNL     1     -11.900  12.272  68.750  1.00  0.00    -0.306 A  
HETATM    6  C   UNL     1     -10.721  12.176  68.020  1.00  0.00    -0.242 A  
HETATM    7  H1  UNL     1     -13.006  15.609  70.376  1.00  0.00     0.000 HD 
HETATM    8  N   UNL     1     -12.323  13.391  69.383  1.00  0.00    -0.173 NA 
HETATM    9  C   UNL     1      -9.929  13.318  67.958  1.00  0.00    -0.233 A  
HETATM   10  C   UNL     1     -11.551  14.489  69.280  1.00  0.00    -0.302 A  
HETATM   11  H2  UNL     1     -12.173  16.336  69.164  1.00  0.00     0.000 HD 
HETATM   12  N   UNL     1     -12.114  15.612  69.880  1.00  0.00    -0.363 NA 
BRANCH   6  13
HETATM   13  C   UNL     1     -10.381  10.952  67.327  1.00  0.00    -0.255 A  
HETATM   14  N   UNL     1     -10.134   8.744  66.831  1.00  0.00    -0.252 NA 
HETATM   15  C   UNL     1     -10.603   9.617  67.717  1.00  0.00    -0.264 A  
HETATM   16  C   UNL     1      -9.739  10.848  66.108  1.00  0.00    -0.210 A  
HETATM   17  N   UNL     1      -9.592   9.507  65.866  1.00  0.00    -0.242 NA 
BRANCH  17  18
HETATM   18  C   UNL     1      -8.908   8.887  64.731  1.00  0.00    -0.086 C  
HETATM   19  C   UNL     1      -8.040   9.884  63.951  1.00  0.00    -0.152 C  
HETATM   20  C   UNL     1      -6.721  10.190  64.661  1.00  0.00    -0.120 C  
HETATM   21  N   UNL     1      -5.979   8.971  64.983  1.00  0.00    -0.059 NA 
HETATM   22  C   UNL     1      -6.763   8.051  65.810  1.00  0.00    -0.048 C  
HETATM   23  H   UNL     1      -5.084   9.188  65.421  1.00  0.00     0.000 HD 
HETATM   24  C   UNL     1      -8.079   7.663  65.138  1.00  0.00    -0.134 C  
ENDBRANCH  17  18
ENDBRANCH   6  13
ENDBRANCH   3   4
ENDBRANCH   2   3
BRANCH   2  25
HETATM   25  C   UNL     1      -8.779  17.710  67.452  1.00  0.00    -0.235 A  
HETATM   26 CL   UNL     1      -6.673  15.902  67.507  1.00  0.00    -0.196 Cl 
HETATM   27  C   UNL     1      -9.205  19.057  67.332  1.00  0.00    -0.289 A  
HETATM   28 CL   UNL     1     -10.876  19.504  67.210  1.00  0.00    -0.604 Cl 
HETATM   29  F   UNL     1      -5.161  18.346  67.505  1.00  0.00    -0.139 F  
HETATM   30  C   UNL     1      -8.290  20.119  67.281  1.00  0.00    -0.394 A  
HETATM   31  C   UNL     1      -6.928  19.870  67.352  1.00  0.00    -0.262 A  
HETATM   32  C   UNL     1      -7.385  17.481  67.483  1.00  0.00    -0.177 A  
HETATM   33  C   UNL     1      -6.485  18.559  67.450  1.00  0.00    -0.195 A  
ENDBRANCH   2  25
TORSDOF 5
ENDMDL
MODEL      162
REMARK 921   NORMALIZED FREE ENERGY PREDICTED BY IDOCK:   -5.34 KCAL/MOL
REMARK 922        TOTAL FREE ENERGY PREDICTED BY IDOCK:   -7.58 KCAL/MOL
REMARK 923 INTER-LIGAND FREE ENERGY PREDICTED BY IDOCK:   -6.72 KCAL/MOL
REMARK 924 INTRA-LIGAND FREE ENERGY PREDICTED BY IDOCK:   -0.85 KCAL/MOL
REMARK 927      BINDING AFFINITY PREDICTED BY RF-SCORE:    0.00 PKD
ROOT
HETATM    1  C   UNL     1     -10.756   5.920  67.306  1.00  0.00    -0.380 C  
HETATM    2  C   UNL     1      -9.568   5.759  66.356  1.00  0.00    -0.153 C  
ENDROOT
BRANCH   2   3
HETATM    3  O   UNL     1      -8.580   6.704  66.770  1.00  0.00    -0.113 OA 
BRANCH   3   4
HETATM    4  C   UNL     1      -8.170   7.697  65.929  1.00  0.00    -0.133 A  
HETATM    5  C   UNL     1      -7.678   9.754  64.212  1.00  0.00    -0.134 A  
HETATM    6  C   UNL     1      -8.895   9.757  64.883  1.00  0.00    -0.230 A  
HETATM    7  H1  UNL     1      -5.145   6.855  64.631  1.00  0.00     0.000 HD 
HETATM    8  N   UNL     1      -6.728   8.800  64.347  1.00  0.00    -0.071 NA 
HETATM    9  C   UNL     1      -9.129   8.703  65.758  1.00  0.00    -0.242 A  
HETATM   10  C   UNL     1      -6.994   7.776  65.179  1.00  0.00    -0.059 A  
HETATM   11  H2  UNL     1      -6.454   5.915  64.937  1.00  0.00     0.000 HD 
HETATM   12  N   UNL     1      -6.003   6.798  65.179  1.00  0.00    -0.034 NA 
BRANCH   6  13
HETATM   13  C   UNL     1      -9.874  10.792  64.628  1.00  0.00    -0.366 A  
HETATM   14  N   UNL     1     -11.227  12.274  63.551  1.00  0.00    -0.451 NA 
HETATM   15  C   UNL     1     -10.329  11.306  63.398  1.00  0.00    -0.391 A  
HETATM   16  C   UNL     1     -10.575  11.512  65.576  1.00  0.00    -0.281 A  
HETATM   17  N   UNL     1     -11.352  12.403  64.883  1.00  0.00    -0.308 NA 
BRANCH  17  18
HETATM   18  C   UNL     1     -12.223  13.435  65.446  1.00  0.00    -0.452 C  
HETATM   19  C   UNL     1     -11.972  13.665  66.942  1.00  0.00    -0.454 C  
HETATM   20  C   UNL     1     -10.715  14.494  67.204  1.00  0.00    -0.286 C  
HETATM   21  N   UNL     1     -10.729  15.756  66.462  1.00  0.00    -0.308 NA 
HETATM   22  C   UNL     1     -10.872  15.546  65.020  1.00  0.00    -0.450 C  
HETATM   23  H   UNL     1      -9.905  16.318  66.674  1.00  0.00     0.000 HD 
HETATM   24  C   UNL     1     -12.137  14.762  64.681  1.00  0.00    -0.437 C  
ENDBRANCH  17  18
ENDBRANCH   6  13
ENDBRANCH   3   4
ENDBRANCH   2   3
BRANCH   2  25
HETATM   25  C   UNL     1      -9.056   4.317  66.374  1.00  0.00    -0.130 A  
HETATM   26 CL   UNL     1      -7.926   4.612  68.893  1.00  0.00    -0.075 Cl 
HETATM   27  C   UNL     1      -9.373   3.458  65.291  1.00  0.00    -0.155 A  
HETATM   28 CL   UNL     1     -10.342   3.966  63.945  1.00  0.00    -0.227 Cl 
HETATM   29  F   UNL     1      -7.131   1.901  68.363  1.00  0.00    -0.038 F  
HETATM   30  C   UNL     1      -8.937   2.126  65.252  1.00  0.00    -0.123 A  
HETATM   31  C   UNL     1      -8.171   1.613  66.289  1.00  0.00    -0.084 A  
HETATM   32  C   UNL     1      -8.308   3.758  67.435  1.00  0.00    -0.095 A  
HETATM   33  C   UNL     1      -7.864   2.427  67.369  1.00  0.00    -0.065 A  
ENDBRANCH   2  25
TORSDOF 5
ENDMDL
MODEL      163
REMARK 921   NORMALIZED FREE ENERGY PREDICTED BY IDOCK:   -5.34 KCAL/MOL
REMARK 922        TOTAL FREE ENERGY PREDICTED BY IDOCK:   -7.57 KCAL/MOL
REMARK 923 INTER-LIGAND FREE ENERGY PREDICTED BY IDOCK:   -8.55 KCAL/MOL
REMARK 924 INTRA-LIGAND FREE ENERGY PREDICTED BY IDOCK:    0.98 KCAL/MOL
REMARK 927      BINDING AFFINITY PREDICTED BY RF-SCORE:    0.00 PKD
ROOT
HETATM    1  C   UNL     1      -9.473  11.965  67.217  1.00  0.00    -0.176 C  
HETATM    2  C   UNL     1     -10.614  12.415  66.304  1.00  0.00    -0.249 C  
ENDROOT
BRANCH   2   3
HETATM    3  O   UNL     1     -11.831  12.064  66.965  1.00  0.00    -0.573 OA 
BRANCH   3   4
HETATM    4  C   UNL     1     -11.978  12.260  68.307  1.00  0.00    -0.200 A  
HETATM    5  C   UNL     1     -12.374  12.330  71.002  1.00  0.00    -0.220 A  
HETATM    6  C   UNL     1     -12.198  11.083  70.413  1.00  0.00    -0.461 A  
HETATM    7  H1  UNL     1     -12.466  15.572  68.886  1.00  0.00     0.000 HD 
HETATM    8  N   UNL     1     -12.369  13.505  70.331  1.00  0.00    -0.341 NA 
HETATM    9  C   UNL     1     -11.993  11.065  69.038  1.00  0.00    -0.364 A  
HETATM   10  C   UNL     1     -12.198  13.455  68.996  1.00  0.00    -0.148 A  
HETATM   11  H2  UNL     1     -13.035  14.624  67.676  1.00  0.00     0.000 HD 
HETATM   12  N   UNL     1     -12.304  14.700  68.383  1.00  0.00    -0.066 NA 
BRANCH   6  13
HETATM   13  C   UNL     1     -12.278   9.876  71.206  1.00  0.00    -0.480 A  
HETATM   14  N   UNL     1     -13.009   8.292  72.670  1.00  0.00    -0.120 NA 
HETATM   15  C   UNL     1     -13.286   9.460  72.099  1.00  0.00    -0.460 A  
HETATM   16  C   UNL     1     -11.344   8.859  71.252  1.00  0.00    -0.300 A  
HETATM   17  N   UNL     1     -11.814   7.947  72.160  1.00  0.00    -0.316 NA 
BRANCH  17  18
HETATM   18  C   UNL     1     -11.145   6.727  72.611  1.00  0.00    -0.265 C  
HETATM   19  C   UNL     1     -10.245   6.116  71.528  1.00  0.00    -0.243 C  
HETATM   20  C   UNL     1      -8.919   6.864  71.380  1.00  0.00    -0.141 C  
HETATM   21  N   UNL     1      -8.215   6.986  72.657  1.00  0.00    -0.108 NA 
HETATM   22  C   UNL     1      -9.030   7.655  73.674  1.00  0.00    -0.256 C  
HETATM   23  H   UNL     1      -7.315   7.451  72.541  1.00  0.00     0.000 HD 
HETATM   24  C   UNL     1     -10.354   6.932  73.909  1.00  0.00    -0.398 C  
ENDBRANCH  17  18
ENDBRANCH   6  13
ENDBRANCH   3   4
ENDBRANCH   2   3
BRANCH   2  25
HETATM   25  C   UNL     1     -10.508  13.913  66.009  1.00  0.00    -0.299 A  
HETATM   26 CL   UNL     1      -8.625  14.307  68.010  1.00  0.00    -0.160 Cl 
HETATM   27  C   UNL     1     -11.243  14.457  64.924  1.00  0.00    -0.389 A  
HETATM   28 CL   UNL     1     -12.246  13.488  63.894  1.00  0.00    -0.488 Cl 
HETATM   29  F   UNL     1      -8.889  17.023  67.107  1.00  0.00    -0.203 F  
HETATM   30  C   UNL     1     -11.183  15.820  64.602  1.00  0.00    -0.373 A  
HETATM   31  C   UNL     1     -10.395  16.680  65.352  1.00  0.00    -0.214 A  
HETATM   32  C   UNL     1      -9.683  14.804  66.732  1.00  0.00    -0.254 A  
HETATM   33  C   UNL     1      -9.652  16.170  66.406  1.00  0.00    -0.287 A  
ENDBRANCH   2  25
TORSDOF 5
ENDMDL
MODEL      164
REMARK 921   NORMALIZED FREE ENERGY PREDICTED BY IDOCK:   -5.33 KCAL/MOL
REMARK 922        TOTAL FREE ENERGY PREDICTED BY IDOCK:   -7.56 KCAL/MOL
REMARK 923 INTER-LIGAND FREE ENERGY PREDICTED BY IDOCK:   -7.52 KCAL/MOL
REMARK 924 INTRA-LIGAND FREE ENERGY PREDICTED BY IDOCK:   -0.04 KCAL/MOL
REMARK 927      BINDING AFFINITY PREDICTED BY RF-SCORE:    0.00 PKD
ROOT
HETATM    1  C   UNL     1     -12.131  11.376  68.521  1.00  0.00    -0.168 C  
HETATM    2  C   UNL     1     -12.264  11.667  70.017  1.00  0.00    -0.263 C  
ENDROOT
BRANCH   2   3
HETATM    3  O   UNL     1     -11.296  10.854  70.681  1.00  0.00    -0.256 OA 
BRANCH   3   4
HETATM    4  C   UNL     1     -11.499   9.514  70.837  1.00  0.00    -0.334 A  
HETATM    5  C   UNL     1     -11.726   6.799  70.864  1.00  0.00    -0.372 A  
HETATM    6  C   UNL     1     -10.676   7.346  70.137  1.00  0.00    -0.254 A  
HETATM    7  H1  UNL     1     -14.333   9.037  72.650  1.00  0.00     0.000 HD 
HETATM    8  N   UNL     1     -12.644   7.519  71.550  1.00  0.00    -0.342 NA 
HETATM    9  C   UNL     1     -10.571   8.733  70.136  1.00  0.00    -0.237 A  
HETATM   10  C   UNL     1     -12.535   8.860  71.508  1.00  0.00    -0.324 A  
HETATM   11  H2  UNL     1     -14.008  10.141  71.481  1.00  0.00     0.000 HD 
HETATM   12  N   UNL     1     -13.576   9.515  72.160  1.00  0.00    -0.438 NA 
BRANCH   6  13
HETATM   13  C   UNL     1      -9.777   6.496  69.385  1.00  0.00    -0.155 A  
HETATM   14  N   UNL     1      -7.979   5.764  68.196  1.00  0.00    -0.103 NA 
HETATM   15  C   UNL     1      -8.509   6.793  68.849  1.00  0.00    -0.120 A  
HETATM   16  C   UNL     1      -9.998   5.181  69.026  1.00  0.00    -0.195 A  
HETATM   17  N   UNL     1      -8.905   4.795  68.295  1.00  0.00    -0.102 NA 
BRANCH  17  18
HETATM   18  C   UNL     1      -8.700   3.507  67.631  1.00  0.00    -0.109 C  
HETATM   19  C   UNL     1      -7.214   3.181  67.428  1.00  0.00    -0.058 C  
HETATM   20  C   UNL     1      -6.541   2.697  68.714  1.00  0.00    -0.029 C  
HETATM   21  N   UNL     1      -7.261   1.573  69.316  1.00  0.00    -0.036 NA 
HETATM   22  C   UNL     1      -8.658   1.904  69.603  1.00  0.00    -0.052 C  
HETATM   23  H   UNL     1      -6.783   1.233  70.150  1.00  0.00     0.000 HD 
HETATM   24  C   UNL     1      -9.406   2.352  68.349  1.00  0.00    -0.262 C  
ENDBRANCH  17  18
ENDBRANCH   6  13
ENDBRANCH   3   4
ENDBRANCH   2   3
BRANCH   2  25
HETATM   25  C   UNL     1     -12.077  13.161  70.293  1.00  0.00    -0.399 A  
HETATM   26 CL   UNL     1     -13.958  13.152  72.335  1.00  0.00    -0.600 Cl 
HETATM   27  C   UNL     1     -11.094  13.879  69.566  1.00  0.00    -0.128 A  
HETATM   28 CL   UNL     1     -10.070  13.130  68.384  1.00  0.00    -0.238 Cl 
HETATM   29  F   UNL     1     -13.285  15.946  72.361  1.00  0.00    -0.470 F  
HETATM   30  C   UNL     1     -10.873  15.247  69.777  1.00  0.00    -0.300 A  
HETATM   31  C   UNL     1     -11.625  15.939  70.715  1.00  0.00    -0.441 A  
HETATM   32  C   UNL     1     -12.802  13.880  71.269  1.00  0.00    -0.360 A  
HETATM   33  C   UNL     1     -12.580  15.255  71.452  1.00  0.00    -0.375 A  
ENDBRANCH   2  25
TORSDOF 5
ENDMDL
MODEL      165
REMARK 921   NORMALIZED FREE ENERGY PREDICTED BY IDOCK:   -5.33 KCAL/MOL
REMARK 922        TOTAL FREE ENERGY PREDICTED BY IDOCK:   -7.55 KCAL/MOL
REMARK 923 INTER-LIGAND FREE ENERGY PREDICTED BY IDOCK:   -6.49 KCAL/MOL
REMARK 924 INTRA-LIGAND FREE ENERGY PREDICTED BY IDOCK:   -1.07 KCAL/MOL
REMARK 927      BINDING AFFINITY PREDICTED BY RF-SCORE:    0.00 PKD
ROOT
HETATM    1  C   UNL     1     -10.871  16.157  66.009  1.00  0.00    -0.155 C  
HETATM    2  C   UNL     1      -9.985  15.343  66.953  1.00  0.00    -0.243 C  
ENDROOT
BRANCH   2   3
HETATM    3  O   UNL     1      -8.764  16.070  67.100  1.00  0.00    -0.174 OA 
BRANCH   3   4
HETATM    4  C   UNL     1      -7.616  15.436  67.477  1.00  0.00    -0.181 A  
HETATM    5  C   UNL     1      -5.516  13.896  68.279  1.00  0.00    -0.111 A  
HETATM    6  C   UNL     1      -6.648  13.241  67.811  1.00  0.00    -0.156 A  
HETATM    7  H1  UNL     1      -5.398  17.754  68.595  1.00  0.00     0.000 HD 
HETATM    8  N   UNL     1      -5.389  15.241  68.371  1.00  0.00    -0.099 NA 
HETATM    9  C   UNL     1      -7.709  14.040  67.401  1.00  0.00    -0.177 A  
HETATM   10  C   UNL     1      -6.443  15.989  67.995  1.00  0.00    -0.135 A  
HETATM   11  H2  UNL     1      -7.022  17.667  68.809  1.00  0.00     0.000 HD 
HETATM   12  N   UNL     1      -6.255  17.350  68.216  1.00  0.00    -0.159 NA 
BRANCH   6  13
HETATM   13  C   UNL     1      -6.714  11.795  67.805  1.00  0.00    -0.082 A  
HETATM   14  N   UNL     1      -6.192   9.607  67.452  1.00  0.00    -0.063 NA 
HETATM   15  C   UNL     1      -5.786  10.863  67.299  1.00  0.00    -0.049 A  
HETATM   16  C   UNL     1      -7.739  11.016  68.304  1.00  0.00    -0.113 A  
HETATM   17  N   UNL     1      -7.393   9.715  68.047  1.00  0.00    -0.081 NA 
BRANCH  17  18
HETATM   18  C   UNL     1      -8.191   8.520  68.322  1.00  0.00    -0.123 C  
HETATM   19  C   UNL     1      -9.062   8.671  69.576  1.00  0.00    -0.146 C  
HETATM   20  C   UNL     1     -10.308   9.521  69.323  1.00  0.00    -0.208 C  
HETATM   21  N   UNL     1     -11.085   9.026  68.185  1.00  0.00    -0.470 NA 
HETATM   22  C   UNL     1     -10.289   8.968  66.958  1.00  0.00    -0.269 C  
HETATM   23  H   UNL     1     -11.933   9.576  68.050  1.00  0.00     0.000 HD 
HETATM   24  C   UNL     1      -9.048   8.094  67.124  1.00  0.00    -0.163 C  
ENDBRANCH  17  18
ENDBRANCH   6  13
ENDBRANCH   3   4
ENDBRANCH   2   3
BRANCH   2  25
HETATM   25  C   UNL     1     -10.698  15.103  68.286  1.00  0.00    -0.251 A  
HETATM   26 CL   UNL     1     -10.227  17.697  69.154  1.00  0.00    -0.311 Cl 
HETATM   27  C   UNL     1     -11.319  13.850  68.521  1.00  0.00    -0.280 A  
HETATM   28 CL   UNL     1     -11.328  12.574  67.346  1.00  0.00    -0.343 Cl 
HETATM   29  F   UNL     1     -11.568  16.684  71.486  1.00  0.00    -0.459 F  
HETATM   30  C   UNL     1     -11.991  13.572  69.719  1.00  0.00    -0.405 A  
HETATM   31  C   UNL     1     -12.059  14.531  70.719  1.00  0.00    -0.398 A  
HETATM   32  C   UNL     1     -10.816  16.075  69.305  1.00  0.00    -0.300 A  
HETATM   33  C   UNL     1     -11.476  15.771  70.507  1.00  0.00    -0.381 A  
ENDBRANCH   2  25
TORSDOF 5
ENDMDL
MODEL      166
REMARK 921   NORMALIZED FREE ENERGY PREDICTED BY IDOCK:   -5.32 KCAL/MOL
REMARK 922        TOTAL FREE ENERGY PREDICTED BY IDOCK:   -7.55 KCAL/MOL
REMARK 923 INTER-LIGAND FREE ENERGY PREDICTED BY IDOCK:   -6.56 KCAL/MOL
REMARK 924 INTRA-LIGAND FREE ENERGY PREDICTED BY IDOCK:   -0.99 KCAL/MOL
REMARK 927      BINDING AFFINITY PREDICTED BY RF-SCORE:    0.00 PKD
ROOT
HETATM    1  C   UNL     1     -12.433   6.761  71.233  1.00  0.00    -0.365 C  
HETATM    2  C   UNL     1     -11.142   7.023  70.455  1.00  0.00    -0.287 C  
ENDROOT
BRANCH   2   3
HETATM    3  O   UNL     1     -10.308   7.818  71.300  1.00  0.00    -0.198 OA 
BRANCH   3   4
HETATM    4  C   UNL     1      -9.357   8.640  70.767  1.00  0.00    -0.191 A  
HETATM    5  C   UNL     1      -7.700  10.385  69.490  1.00  0.00    -0.156 A  
HETATM    6  C   UNL     1      -9.068  10.608  69.386  1.00  0.00    -0.064 A  
HETATM    7  H1  UNL     1      -6.291   7.312  71.378  1.00  0.00     0.000 HD 
HETATM    8  N   UNL     1      -7.138   9.360  70.173  1.00  0.00    -0.069 NA 
HETATM    9  C   UNL     1      -9.900   9.712  70.047  1.00  0.00    -0.286 A  
HETATM   10  C   UNL     1      -7.969   8.491  70.778  1.00  0.00    -0.107 A  
HETATM   11  H2  UNL     1      -7.694   6.568  70.970  1.00  0.00     0.000 HD 
HETATM   12  N   UNL     1      -7.305   7.421  71.371  1.00  0.00    -0.078 NA 
BRANCH   6  13
HETATM   13  C   UNL     1      -9.578  11.699  68.583  1.00  0.00    -0.139 A  
HETATM   14  N   UNL     1      -9.793  13.258  66.938  1.00  0.00    -0.241 NA 
HETATM   15  C   UNL     1      -9.067  12.239  67.386  1.00  0.00    -0.184 A  
HETATM   16  C   UNL     1     -10.700  12.459  68.847  1.00  0.00    -0.164 A  
HETATM   17  N   UNL     1     -10.773  13.394  67.848  1.00  0.00    -0.242 NA 
BRANCH  17  18
HETATM   18  C   UNL     1     -11.750  14.477  67.723  1.00  0.00    -0.374 C  
HETATM   19  C   UNL     1     -11.971  15.224  69.046  1.00  0.00    -0.304 C  
HETATM   20  C   UNL     1     -10.836  16.200  69.362  1.00  0.00    -0.320 C  
HETATM   21  N   UNL     1     -10.589  17.126  68.256  1.00  0.00    -0.366 NA 
HETATM   22  C   UNL     1     -10.282  16.425  67.008  1.00  0.00    -0.282 C  
HETATM   23  H   UNL     1      -9.858  17.796  68.492  1.00  0.00     0.000 HD 
HETATM   24  C   UNL     1     -11.399  15.464  66.604  1.00  0.00    -0.103 C  
ENDBRANCH  17  18
ENDBRANCH   6  13
ENDBRANCH   3   4
ENDBRANCH   2   3
BRANCH   2  25
HETATM   25  C   UNL     1     -10.486   5.705  70.041  1.00  0.00    -0.367 A  
HETATM   26 CL   UNL     1     -10.267   4.838  72.669  1.00  0.00    -0.232 Cl 
HETATM   27  C   UNL     1     -10.328   5.415  68.662  1.00  0.00    -0.158 A  
HETATM   28 CL   UNL     1     -10.872   6.487  67.411  1.00  0.00    -0.401 Cl 
HETATM   29  F   UNL     1      -9.010   2.610  71.360  1.00  0.00    -0.104 F  
HETATM   30  C   UNL     1      -9.739   4.222  68.220  1.00  0.00    -0.162 A  
HETATM   31  C   UNL     1      -9.286   3.286  69.139  1.00  0.00    -0.233 A  
HETATM   32  C   UNL     1     -10.052   4.718  70.954  1.00  0.00    -0.205 A  
HETATM   33  C   UNL     1      -9.446   3.538  70.494  1.00  0.00    -0.179 A  
ENDBRANCH   2  25
TORSDOF 5
ENDMDL
MODEL      167
REMARK 921   NORMALIZED FREE ENERGY PREDICTED BY IDOCK:   -5.32 KCAL/MOL
REMARK 922        TOTAL FREE ENERGY PREDICTED BY IDOCK:   -7.55 KCAL/MOL
REMARK 923 INTER-LIGAND FREE ENERGY PREDICTED BY IDOCK:   -7.08 KCAL/MOL
REMARK 924 INTRA-LIGAND FREE ENERGY PREDICTED BY IDOCK:   -0.47 KCAL/MOL
REMARK 927      BINDING AFFINITY PREDICTED BY RF-SCORE:    0.00 PKD
ROOT
HETATM    1  C   UNL     1      -9.115  11.520  68.269  1.00  0.00    -0.185 C  
HETATM    2  C   UNL     1     -10.089  10.807  67.330  1.00  0.00    -0.193 C  
ENDROOT
BRANCH   2   3
HETATM    3  O   UNL     1     -10.931   9.996  68.151  1.00  0.00    -0.255 OA 
BRANCH   3   4
HETATM    4  C   UNL     1     -10.496   8.791  68.620  1.00  0.00    -0.183 A  
HETATM    5  C   UNL     1      -9.607   6.289  69.233  1.00  0.00    -0.133 A  
HETATM    6  C   UNL     1      -9.341   6.769  67.955  1.00  0.00    -0.118 A  
HETATM    7  H1  UNL     1     -11.676   8.351  71.776  1.00  0.00     0.000 HD 
HETATM    8  N   UNL     1     -10.282   6.974  70.186  1.00  0.00    -0.191 NA 
HETATM    9  C   UNL     1      -9.797   8.048  67.660  1.00  0.00    -0.214 A  
HETATM   10  C   UNL     1     -10.737   8.199  69.861  1.00  0.00    -0.241 A  
HETATM   11  H2  UNL     1     -12.408   9.010  70.464  1.00  0.00     0.000 HD 
HETATM   12  N   UNL     1     -11.499   8.784  70.869  1.00  0.00    -0.280 NA 
BRANCH   6  13
HETATM   13  C   UNL     1      -8.662   5.938  66.983  1.00  0.00    -0.109 A  
HETATM   14  N   UNL     1      -7.036   4.796  65.873  1.00  0.00    -0.062 NA 
HETATM   15  C   UNL     1      -7.308   5.553  66.931  1.00  0.00    -0.079 A  
HETATM   16  C   UNL     1      -9.227   5.346  65.871  1.00  0.00    -0.156 A  
HETATM   17  N   UNL     1      -8.209   4.694  65.225  1.00  0.00    -0.114 NA 
BRANCH  17  18
HETATM   18  C   UNL     1      -8.290   3.974  63.954  1.00  0.00    -0.094 C  
HETATM   19  C   UNL     1      -8.000   2.475  64.109  1.00  0.00    -0.077 C  
HETATM   20  C   UNL     1      -9.188   1.707  64.691  1.00  0.00    -0.129 C  
HETATM   21  N   UNL     1     -10.416   1.941  63.930  1.00  0.00    -0.351 NA 
HETATM   22  C   UNL     1     -10.756   3.363  63.857  1.00  0.00    -0.218 C  
HETATM   23  H   UNL     1     -11.192   1.395  64.304  1.00  0.00     0.000 HD 
HETATM   24  C   UNL     1      -9.629   4.188  63.238  1.00  0.00    -0.132 C  
ENDBRANCH  17  18
ENDBRANCH   6  13
ENDBRANCH   3   4
ENDBRANCH   2   3
BRANCH   2  25
HETATM   25  C   UNL     1     -10.871  11.822  66.494  1.00  0.00    -0.323 A  
HETATM   26 CL   UNL     1     -10.094  10.648  64.102  1.00  0.00    -0.411 Cl 
HETATM   27  C   UNL     1     -11.660  12.799  67.155  1.00  0.00    -0.364 A  
HETATM   28 CL   UNL     1     -11.796  12.881  68.882  1.00  0.00    -0.353 Cl 
HETATM   29  F   UNL     1     -11.635  12.832  63.046  1.00  0.00    -0.538 F  
HETATM   30  C   UNL     1     -12.402  13.752  66.444  1.00  0.00    -0.460 A  
HETATM   31  C   UNL     1     -12.379  13.762  65.057  1.00  0.00    -0.456 A  
HETATM   32  C   UNL     1     -10.896  11.831  65.082  1.00  0.00    -0.297 A  
HETATM   33  C   UNL     1     -11.630  12.806  64.388  1.00  0.00    -0.361 A  
ENDBRANCH   2  25
TORSDOF 5
ENDMDL
MODEL      168
REMARK 921   NORMALIZED FREE ENERGY PREDICTED BY IDOCK:   -5.30 KCAL/MOL
REMARK 922        TOTAL FREE ENERGY PREDICTED BY IDOCK:   -7.52 KCAL/MOL
REMARK 923 INTER-LIGAND FREE ENERGY PREDICTED BY IDOCK:   -6.79 KCAL/MOL
REMARK 924 INTRA-LIGAND FREE ENERGY PREDICTED BY IDOCK:   -0.73 KCAL/MOL
REMARK 927      BINDING AFFINITY PREDICTED BY RF-SCORE:    0.00 PKD
ROOT
HETATM    1  C   UNL     1      -9.659   4.082  70.305  1.00  0.00    -0.271 C  
HETATM    2  C   UNL     1      -9.725   5.467  69.660  1.00  0.00    -0.177 C  
ENDROOT
BRANCH   2   3
HETATM    3  O   UNL     1      -9.412   6.412  70.685  1.00  0.00    -0.164 OA 
BRANCH   3   4
HETATM    4  C   UNL     1     -10.389   7.188  71.238  1.00  0.00    -0.198 A  
HETATM    5  C   UNL     1     -12.181   9.001  72.200  1.00  0.00    -0.357 A  
HETATM    6  C   UNL     1     -11.432   9.369  71.088  1.00  0.00    -0.422 A  
HETATM    7  H1  UNL     1     -11.632   5.602  73.973  1.00  0.00     0.000 HD 
HETATM    8  N   UNL     1     -12.075   7.813  72.839  1.00  0.00    -0.052 NA 
HETATM    9  C   UNL     1     -10.525   8.431  70.607  1.00  0.00    -0.227 A  
HETATM   10  C   UNL     1     -11.168   6.936  72.369  1.00  0.00    -0.266 A  
HETATM   11  H2  UNL     1     -10.088   5.705  73.432  1.00  0.00     0.000 HD 
HETATM   12  N   UNL     1     -11.064   5.786  73.147  1.00  0.00    -0.266 NA 
BRANCH   6  13
HETATM   13  C   UNL     1     -11.574  10.687  70.507  1.00  0.00    -0.444 A  
HETATM   14  N   UNL     1     -11.229  12.532  69.218  1.00  0.00    -0.225 NA 
HETATM   15  C   UNL     1     -10.824  11.293  69.480  1.00  0.00    -0.151 A  
HETATM   16  C   UNL     1     -12.499  11.647  70.864  1.00  0.00    -0.341 A  
HETATM   17  N   UNL     1     -12.237  12.742  70.083  1.00  0.00    -0.289 NA 
BRANCH  17  18
HETATM   18  C   UNL     1     -12.903  14.044  70.137  1.00  0.00    -0.024 C  
HETATM   19  C   UNL     1     -13.590  14.296  71.486  1.00  0.00    -0.431 C  
HETATM   20  C   UNL     1     -12.599  14.687  72.583  1.00  0.00    -0.334 C  
HETATM   21  N   UNL     1     -11.764  15.821  72.185  1.00  0.00    -0.446 NA 
HETATM   22  C   UNL     1     -11.027  15.555  70.948  1.00  0.00    -0.292 C  
HETATM   23  H   UNL     1     -11.134  16.097  72.938  1.00  0.00     0.000 HD 
HETATM   24  C   UNL     1     -11.961  15.204  69.793  1.00  0.00    -0.367 C  
ENDBRANCH  17  18
ENDBRANCH   6  13
ENDBRANCH   3   4
ENDBRANCH   2   3
BRANCH   2  25
HETATM   25  C   UNL     1      -8.773   5.549  68.465  1.00  0.00    -0.105 A  
HETATM   26 CL   UNL     1     -10.848   5.994  66.676  1.00  0.00    -0.343 Cl 
HETATM   27  C   UNL     1      -7.375   5.463  68.689  1.00  0.00    -0.075 A  
HETATM   28 CL   UNL     1      -6.688   5.291  70.272  1.00  0.00    -0.045 Cl 
HETATM   29  F   UNL     1      -8.657   5.963  64.816  1.00  0.00    -0.146 F  
HETATM   30  C   UNL     1      -6.453   5.537  67.635  1.00  0.00    -0.051 A  
HETATM   31  C   UNL     1      -6.896   5.694  66.330  1.00  0.00    -0.059 A  
HETATM   32  C   UNL     1      -9.195   5.748  67.131  1.00  0.00    -0.115 A  
HETATM   33  C   UNL     1      -8.257   5.800  66.087  1.00  0.00    -0.111 A  
ENDBRANCH   2  25
TORSDOF 5
ENDMDL
MODEL      169
REMARK 921   NORMALIZED FREE ENERGY PREDICTED BY IDOCK:   -5.30 KCAL/MOL
REMARK 922        TOTAL FREE ENERGY PREDICTED BY IDOCK:   -7.52 KCAL/MOL
REMARK 923 INTER-LIGAND FREE ENERGY PREDICTED BY IDOCK:   -7.39 KCAL/MOL
REMARK 924 INTRA-LIGAND FREE ENERGY PREDICTED BY IDOCK:   -0.13 KCAL/MOL
REMARK 927      BINDING AFFINITY PREDICTED BY RF-SCORE:    0.00 PKD
ROOT
HETATM    1  C   UNL     1     -10.911   7.762  68.958  1.00  0.00    -0.042 C  
HETATM    2  C   UNL     1      -9.915   8.891  69.226  1.00  0.00    -0.192 C  
ENDROOT
BRANCH   2   3
HETATM    3  O   UNL     1     -10.664  10.108  69.221  1.00  0.00    -0.205 OA 
BRANCH   3   4
HETATM    4  C   UNL     1     -10.492  11.028  68.228  1.00  0.00    -0.186 A  
HETATM    5  C   UNL     1     -10.301  13.086  66.452  1.00  0.00    -0.281 A  
HETATM    6  C   UNL     1     -10.462  13.411  67.794  1.00  0.00    -0.246 A  
HETATM    7  H1  UNL     1     -10.292   9.404  65.250  1.00  0.00     0.000 HD 
HETATM    8  N   UNL     1     -10.242  11.823  65.969  1.00  0.00    -0.222 NA 
HETATM    9  C   UNL     1     -10.553  12.350  68.688  1.00  0.00    -0.243 A  
HETATM   10  C   UNL     1     -10.363  10.816  66.854  1.00  0.00    -0.241 A  
HETATM   11  H2  UNL     1     -11.251   9.104  66.547  1.00  0.00     0.000 HD 
HETATM   12  N   UNL     1     -10.387   9.560  66.254  1.00  0.00    -0.209 NA 
BRANCH   6  13
HETATM   13  C   UNL     1     -10.574  14.793  68.209  1.00  0.00    -0.241 A  
HETATM   14  N   UNL     1     -10.908  16.648  69.485  1.00  0.00    -0.317 NA 
HETATM   15  C   UNL     1     -10.868  15.320  69.482  1.00  0.00    -0.271 A  
HETATM   16  C   UNL     1     -10.418  15.907  67.408  1.00  0.00    -0.306 A  
HETATM   17  N   UNL     1     -10.652  16.992  68.211  1.00  0.00    -0.357 NA 
BRANCH  17  18
HETATM   18  C   UNL     1     -10.676  18.398  67.808  1.00  0.00    -0.340 C  
HETATM   19  C   UNL     1      -9.919  19.304  68.788  1.00  0.00    -0.511 C  
HETATM   20  C   UNL     1      -8.403  19.215  68.615  1.00  0.00    -0.368 C  
HETATM   21  N   UNL     1      -7.997  19.464  67.231  1.00  0.00    -0.258 NA 
HETATM   22  C   UNL     1      -8.640  18.542  66.293  1.00  0.00    -0.205 C  
HETATM   23  H   UNL     1      -6.982  19.441  67.134  1.00  0.00     0.000 HD 
HETATM   24  C   UNL     1     -10.163  18.612  66.379  1.00  0.00    -0.461 C  
ENDBRANCH  17  18
ENDBRANCH   6  13
ENDBRANCH   3   4
ENDBRANCH   2   3
BRANCH   2  25
HETATM   25  C   UNL     1      -9.174   8.654  70.543  1.00  0.00    -0.201 A  
HETATM   26 CL   UNL     1     -11.517   8.048  71.904  1.00  0.00    -0.318 Cl 
HETATM   27  C   UNL     1      -7.758   8.738  70.564  1.00  0.00    -0.089 A  
HETATM   28 CL   UNL     1      -6.819   9.077  69.145  1.00  0.00    -0.054 Cl 
HETATM   29  F   UNL     1      -9.663   7.824  74.089  1.00  0.00    -0.273 F  
HETATM   30  C   UNL     1      -7.023   8.527  71.739  1.00  0.00    -0.099 A  
HETATM   31  C   UNL     1      -7.676   8.230  72.926  1.00  0.00    -0.171 A  
HETATM   32  C   UNL     1      -9.811   8.313  71.758  1.00  0.00    -0.218 A  
HETATM   33  C   UNL     1      -9.059   8.124  72.928  1.00  0.00    -0.267 A  
ENDBRANCH   2  25
TORSDOF 5
ENDMDL
MODEL      170
REMARK 921   NORMALIZED FREE ENERGY PREDICTED BY IDOCK:   -5.30 KCAL/MOL
REMARK 922        TOTAL FREE ENERGY PREDICTED BY IDOCK:   -7.52 KCAL/MOL
REMARK 923 INTER-LIGAND FREE ENERGY PREDICTED BY IDOCK:   -6.69 KCAL/MOL
REMARK 924 INTRA-LIGAND FREE ENERGY PREDICTED BY IDOCK:   -0.83 KCAL/MOL
REMARK 927      BINDING AFFINITY PREDICTED BY RF-SCORE:    0.00 PKD
ROOT
HETATM    1  C   UNL     1      -8.690   4.396  64.914  1.00  0.00    -0.135 C  
HETATM    2  C   UNL     1      -8.049   5.542  65.698  1.00  0.00    -0.118 C  
ENDROOT
BRANCH   2   3
HETATM    3  O   UNL     1      -8.465   6.755  65.067  1.00  0.00    -0.099 OA 
BRANCH   3   4
HETATM    4  C   UNL     1      -8.073   7.966  65.557  1.00  0.00    -0.130 A  
HETATM    5  C   UNL     1      -7.600  10.494  66.456  1.00  0.00    -0.128 A  
HETATM    6  C   UNL     1      -8.925  10.086  66.361  1.00  0.00    -0.164 A  
HETATM    7  H1  UNL     1      -4.691   8.199  65.331  1.00  0.00     0.000 HD 
HETATM    8  N   UNL     1      -6.534   9.728  66.126  1.00  0.00    -0.073 NA 
HETATM    9  C   UNL     1      -9.149   8.792  65.905  1.00  0.00    -0.271 A  
HETATM   10  C   UNL     1      -6.783   8.490  65.659  1.00  0.00    -0.060 A  
HETATM   11  H2  UNL     1      -5.770   7.546  64.283  1.00  0.00     0.000 HD 
HETATM   12  N   UNL     1      -5.633   7.816  65.257  1.00  0.00    -0.036 NA 
BRANCH   6  13
HETATM   13  C   UNL     1     -10.002  10.998  66.682  1.00  0.00    -0.249 A  
HETATM   14  N   UNL     1     -12.009  11.817  67.380  1.00  0.00    -0.612 NA 
HETATM   15  C   UNL     1     -11.264  10.724  67.246  1.00  0.00    -0.197 A  
HETATM   16  C   UNL     1     -10.008  12.364  66.483  1.00  0.00    -0.230 A  
HETATM   17  N   UNL     1     -11.239  12.806  66.893  1.00  0.00    -0.282 NA 
BRANCH  17  18
HETATM   18  C   UNL     1     -11.757  14.172  66.815  1.00  0.00    -0.410 C  
HETATM   19  C   UNL     1     -10.646  15.210  66.606  1.00  0.00    -0.304 C  
HETATM   20  C   UNL     1     -10.146  15.250  65.161  1.00  0.00    -0.288 C  
HETATM   21  N   UNL     1     -11.243  15.437  64.210  1.00  0.00    -0.711 NA 
HETATM   22  C   UNL     1     -12.265  14.397  64.334  1.00  0.00    -0.458 C  
HETATM   23  H   UNL     1     -10.895  15.501  63.253  1.00  0.00     0.000 HD 
HETATM   24  C   UNL     1     -12.844  14.332  65.745  1.00  0.00    -0.282 C  
ENDBRANCH  17  18
ENDBRANCH   6  13
ENDBRANCH   3   4
ENDBRANCH   2   3
BRANCH   2  25
HETATM   25  C   UNL     1      -8.448   5.473  67.174  1.00  0.00    -0.110 A  
HETATM   26 CL   UNL     1     -11.134   5.875  66.603  1.00  0.00    -0.245 Cl 
HETATM   27  C   UNL     1      -7.454   5.188  68.145  1.00  0.00    -0.076 A  
HETATM   28 CL   UNL     1      -5.797   4.888  67.729  1.00  0.00    -0.021 Cl 
HETATM   29  F   UNL     1     -11.303   5.755  69.469  1.00  0.00    -0.442 F  
HETATM   30  C   UNL     1      -7.758   5.108  69.511  1.00  0.00    -0.068 A  
HETATM   31  C   UNL     1      -9.058   5.312  69.950  1.00  0.00    -0.165 A  
HETATM   32  C   UNL     1      -9.770   5.639  67.644  1.00  0.00    -0.124 A  
HETATM   33  C   UNL     1     -10.051   5.574  69.018  1.00  0.00    -0.205 A  
ENDBRANCH   2  25
TORSDOF 5
ENDMDL
MODEL      171
REMARK 921   NORMALIZED FREE ENERGY PREDICTED BY IDOCK:   -5.27 KCAL/MOL
REMARK 922        TOTAL FREE ENERGY PREDICTED BY IDOCK:   -7.49 KCAL/MOL
REMARK 923 INTER-LIGAND FREE ENERGY PREDICTED BY IDOCK:   -9.20 KCAL/MOL
REMARK 924 INTRA-LIGAND FREE ENERGY PREDICTED BY IDOCK:    1.71 KCAL/MOL
REMARK 927      BINDING AFFINITY PREDICTED BY RF-SCORE:    0.00 PKD
ROOT
HETATM    1  C   UNL     1     -10.363  14.830  69.393  1.00  0.00    -0.171 C  
HETATM    2  C   UNL     1     -11.889  14.805  69.492  1.00  0.00    -0.326 C  
ENDROOT
BRANCH   2   3
HETATM    3  O   UNL     1     -12.387  14.765  68.153  1.00  0.00    -0.106 OA 
BRANCH   3   4
HETATM    4  C   UNL     1     -11.531  14.672  67.093  1.00  0.00    -0.368 A  
HETATM    5  C   UNL     1      -9.664  14.753  65.111  1.00  0.00     0.022 A  
HETATM    6  C   UNL     1      -9.344  15.364  66.318  1.00  0.00    -0.351 A  
HETATM    7  H1  UNL     1     -13.136  13.141  64.519  1.00  0.00     0.000 HD 
HETATM    8  N   UNL     1     -10.838  14.131  64.852  1.00  0.00    -0.389 NA 
HETATM    9  C   UNL     1     -10.305  15.310  67.321  1.00  0.00    -0.264 A  
HETATM   10  C   UNL     1     -11.762  14.120  65.832  1.00  0.00    -0.365 A  
HETATM   11  H2  UNL     1     -13.697  14.239  65.601  1.00  0.00     0.000 HD 
HETATM   12  N   UNL     1     -12.968  13.544  65.441  1.00  0.00    -0.661 NA 
BRANCH   6  13
HETATM   13  C   UNL     1      -8.084  16.057  66.481  1.00  0.00    -0.304 A  
HETATM   14  N   UNL     1      -5.935  16.531  67.064  1.00  0.00    -0.267 NA 
HETATM   15  C   UNL     1      -6.889  15.605  67.075  1.00  0.00     0.026 A  
HETATM   16  C   UNL     1      -7.798  17.347  66.080  1.00  0.00    -0.258 A  
HETATM   17  N   UNL     1      -6.508  17.593  66.473  1.00  0.00    -0.198 NA 
BRANCH  17  18
HETATM   18  C   UNL     1      -5.770  18.849  66.338  1.00  0.00    -0.157 C  
HETATM   19  C   UNL     1      -6.417  19.805  65.325  1.00  0.00    -0.311 C  
HETATM   20  C   UNL     1      -7.646  20.515  65.894  1.00  0.00     0.025 C  
HETATM   21  N   UNL     1      -7.349  21.192  67.157  1.00  0.00    -0.710 NA 
HETATM   22  C   UNL     1      -6.820  20.271  68.165  1.00  0.00    -0.289 C  
HETATM   23  H   UNL     1      -8.164  21.694  67.507  1.00  0.00     0.000 HD 
HETATM   24  C   UNL     1      -5.559  19.559  67.680  1.00  0.00    -0.187 C  
ENDBRANCH  17  18
ENDBRANCH   6  13
ENDBRANCH   3   4
ENDBRANCH   2   3
BRANCH   2  25
HETATM   25  C   UNL     1     -12.354  13.615  70.334  1.00  0.00    -0.415 A  
HETATM   26 CL   UNL     1     -11.003  11.789  68.740  1.00  0.00    -0.258 Cl 
HETATM   27  C   UNL     1     -13.126  13.855  71.500  1.00  0.00    -0.365 A  
HETATM   28 CL   UNL     1     -13.549  15.451  72.031  1.00  0.00    -0.534 Cl 
HETATM   29  F   UNL     1     -12.223   9.952  70.583  1.00  0.00    -0.317 F  
HETATM   30  C   UNL     1     -13.577  12.808  72.315  1.00  0.00    -0.563 A  
HETATM   31  C   UNL     1     -13.277  11.493  71.991  1.00  0.00    -0.443 A  
HETATM   32  C   UNL     1     -12.030  12.270  70.049  1.00  0.00    -0.304 A  
HETATM   33  C   UNL     1     -12.509  11.233  70.866  1.00  0.00    -0.394 A  
ENDBRANCH   2  25
TORSDOF 5
ENDMDL
MODEL      172
REMARK 921   NORMALIZED FREE ENERGY PREDICTED BY IDOCK:   -5.26 KCAL/MOL
REMARK 922        TOTAL FREE ENERGY PREDICTED BY IDOCK:   -7.47 KCAL/MOL
REMARK 923 INTER-LIGAND FREE ENERGY PREDICTED BY IDOCK:   -7.48 KCAL/MOL
REMARK 924 INTRA-LIGAND FREE ENERGY PREDICTED BY IDOCK:    0.01 KCAL/MOL
REMARK 927      BINDING AFFINITY PREDICTED BY RF-SCORE:    0.00 PKD
ROOT
HETATM    1  C   UNL     1     -12.220  13.867  67.113  1.00  0.00    -0.353 C  
HETATM    2  C   UNL     1     -11.401  13.830  68.404  1.00  0.00    -0.293 C  
ENDROOT
BRANCH   2   3
HETATM    3  O   UNL     1     -11.289  12.456  68.779  1.00  0.00    -0.249 OA 
BRANCH   3   4
HETATM    4  C   UNL     1     -11.849  12.002  69.939  1.00  0.00    -0.331 A  
HETATM    5  C   UNL     1     -12.923  10.786  72.127  1.00  0.00    -0.195 A  
HETATM    6  C   UNL     1     -12.083  10.027  71.320  1.00  0.00    -0.487 A  
HETATM    7  H1  UNL     1     -13.841  14.437  71.221  1.00  0.00     0.000 HD 
HETATM    8  N   UNL     1     -13.248  12.079  71.897  1.00  0.00    -0.450 NA 
HETATM    9  C   UNL     1     -11.540  10.664  70.210  1.00  0.00    -0.424 A  
HETATM   10  C   UNL     1     -12.731  12.661  70.798  1.00  0.00    -0.130 A  
HETATM   11  H2  UNL     1     -13.613  13.981  69.662  1.00  0.00     0.000 HD 
HETATM   12  N   UNL     1     -13.197  13.956  70.593  1.00  0.00    -0.086 NA 
BRANCH   6  13
HETATM   13  C   UNL     1     -11.841   8.631  71.616  1.00  0.00    -0.389 A  
HETATM   14  N   UNL     1     -11.921   6.357  71.538  1.00  0.00    -0.317 NA 
HETATM   15  C   UNL     1     -12.349   7.484  70.976  1.00  0.00    -0.235 A  
HETATM   16  C   UNL     1     -11.042   8.132  72.625  1.00  0.00    -0.380 A  
HETATM   17  N   UNL     1     -11.142   6.767  72.553  1.00  0.00    -0.255 NA 
BRANCH  17  18
HETATM   18  C   UNL     1     -10.533   5.790  73.457  1.00  0.00    -0.256 C  
HETATM   19  C   UNL     1     -10.511   4.374  72.863  1.00  0.00    -0.253 C  
HETATM   20  C   UNL     1      -9.404   4.195  71.822  1.00  0.00    -0.135 C  
HETATM   21  N   UNL     1      -8.093   4.578  72.349  1.00  0.00    -0.096 NA 
HETATM   22  C   UNL     1      -8.075   5.960  72.831  1.00  0.00    -0.114 C  
HETATM   23  H   UNL     1      -7.358   4.418  71.660  1.00  0.00     0.000 HD 
HETATM   24  C   UNL     1      -9.128   6.200  73.912  1.00  0.00    -0.133 C  
ENDBRANCH  17  18
ENDBRANCH   6  13
ENDBRANCH   3   4
ENDBRANCH   2   3
BRANCH   2  25
HETATM   25  C   UNL     1     -10.041  14.502  68.199  1.00  0.00    -0.227 A  
HETATM   26 CL   UNL     1     -10.764  16.719  69.705  1.00  0.00    -0.281 Cl 
HETATM   27  C   UNL     1      -9.029  13.809  67.487  1.00  0.00    -0.201 A  
HETATM   28 CL   UNL     1      -9.256  12.211  66.853  1.00  0.00    -0.197 Cl 
HETATM   29  F   UNL     1      -8.122  17.547  68.934  1.00  0.00    -0.266 F  
HETATM   30  C   UNL     1      -7.763  14.370  67.271  1.00  0.00    -0.164 A  
HETATM   31  C   UNL     1      -7.470  15.637  67.753  1.00  0.00    -0.163 A  
HETATM   32  C   UNL     1      -9.704  15.774  68.713  1.00  0.00    -0.213 A  
HETATM   33  C   UNL     1      -8.436  16.328  68.469  1.00  0.00    -0.206 A  
ENDBRANCH   2  25
TORSDOF 5
ENDMDL
MODEL      173
REMARK 921   NORMALIZED FREE ENERGY PREDICTED BY IDOCK:   -5.25 KCAL/MOL
REMARK 922        TOTAL FREE ENERGY PREDICTED BY IDOCK:   -7.46 KCAL/MOL
REMARK 923 INTER-LIGAND FREE ENERGY PREDICTED BY IDOCK:   -7.65 KCAL/MOL
REMARK 924 INTRA-LIGAND FREE ENERGY PREDICTED BY IDOCK:    0.19 KCAL/MOL
REMARK 927      BINDING AFFINITY PREDICTED BY RF-SCORE:    0.00 PKD
ROOT
HETATM    1  C   UNL     1     -11.853  11.407  68.342  1.00  0.00    -0.344 C  
HETATM    2  C   UNL     1     -12.093  11.620  69.837  1.00  0.00    -0.301 C  
ENDROOT
BRANCH   2   3
HETATM    3  O   UNL     1     -11.168  10.776  70.526  1.00  0.00    -0.282 OA 
BRANCH   3   4
HETATM    4  C   UNL     1     -11.313   9.419  70.503  1.00  0.00    -0.274 A  
HETATM    5  C   UNL     1     -11.479   6.724  70.143  1.00  0.00    -0.349 A  
HETATM    6  C   UNL     1     -10.603   7.426  69.324  1.00  0.00    -0.220 A  
HETATM    7  H1  UNL     1     -13.726   8.536  72.726  1.00  0.00     0.000 HD 
HETATM    8  N   UNL     1     -12.258   7.286  71.097  1.00  0.00    -0.337 NA 
HETATM    9  C   UNL     1     -10.526   8.800  69.524  1.00  0.00    -0.222 A  
HETATM   10  C   UNL     1     -12.184   8.622  71.247  1.00  0.00    -0.281 A  
HETATM   11  H2  UNL     1     -13.657   9.819  71.706  1.00  0.00     0.000 HD 
HETATM   12  N   UNL     1     -13.089   9.118  72.182  1.00  0.00    -0.415 NA 
BRANCH   6  13
HETATM   13  C   UNL     1      -9.854   6.745  68.290  1.00  0.00    -0.144 A  
HETATM   14  N   UNL     1      -8.997   6.172  66.260  1.00  0.00    -0.151 NA 
HETATM   15  C   UNL     1      -9.772   7.032  66.913  1.00  0.00    -0.175 A  
HETATM   16  C   UNL     1      -9.051   5.633  68.454  1.00  0.00    -0.117 A  
HETATM   17  N   UNL     1      -8.581   5.313  67.207  1.00  0.00    -0.106 NA 
BRANCH  17  18
HETATM   18  C   UNL     1      -7.745   4.168  66.848  1.00  0.00    -0.092 C  
HETATM   19  C   UNL     1      -8.033   2.934  67.715  1.00  0.00    -0.071 C  
HETATM   20  C   UNL     1      -9.314   2.212  67.295  1.00  0.00    -0.031 C  
HETATM   21  N   UNL     1      -9.310   1.877  65.870  1.00  0.00    -0.331 NA 
HETATM   22  C   UNL     1      -9.131   3.061  65.027  1.00  0.00    -0.146 C  
HETATM   23  H   UNL     1     -10.150   1.362  65.609  1.00  0.00     0.000 HD 
HETATM   24  C   UNL     1      -7.842   3.808  65.360  1.00  0.00    -0.089 C  
ENDBRANCH  17  18
ENDBRANCH   6  13
ENDBRANCH   3   4
ENDBRANCH   2   3
BRANCH   2  25
HETATM   25  C   UNL     1     -11.935  13.098  70.203  1.00  0.00    -0.381 A  
HETATM   26 CL   UNL     1     -10.363  13.616  67.975  1.00  0.00    -0.244 Cl 
HETATM   27  C   UNL     1     -12.619  13.605  71.337  1.00  0.00    -0.328 A  
HETATM   28 CL   UNL     1     -13.655  12.623  72.323  1.00  0.00    -0.611 Cl 
HETATM   29  F   UNL     1     -10.321  16.231  69.166  1.00  0.00    -0.211 F  
HETATM   30  C   UNL     1     -12.518  14.950  71.719  1.00  0.00    -0.405 A  
HETATM   31  C   UNL     1     -11.731  15.826  70.987  1.00  0.00    -0.462 A  
HETATM   32  C   UNL     1     -11.171  14.020  69.452  1.00  0.00    -0.237 A  
HETATM   33  C   UNL     1     -11.066  15.359  69.863  1.00  0.00    -0.293 A  
ENDBRANCH   2  25
TORSDOF 5
ENDMDL
MODEL      174
REMARK 921   NORMALIZED FREE ENERGY PREDICTED BY IDOCK:   -5.24 KCAL/MOL
REMARK 922        TOTAL FREE ENERGY PREDICTED BY IDOCK:   -7.44 KCAL/MOL
REMARK 923 INTER-LIGAND FREE ENERGY PREDICTED BY IDOCK:   -6.97 KCAL/MOL
REMARK 924 INTRA-LIGAND FREE ENERGY PREDICTED BY IDOCK:   -0.47 KCAL/MOL
REMARK 927      BINDING AFFINITY PREDICTED BY RF-SCORE:    0.00 PKD
ROOT
HETATM    1  C   UNL     1     -11.380   6.766  69.796  1.00  0.00    -0.350 C  
HETATM    2  C   UNL     1     -10.047   7.192  70.412  1.00  0.00    -0.191 C  
ENDROOT
BRANCH   2   3
HETATM    3  O   UNL     1     -10.344   8.214  71.365  1.00  0.00    -0.199 OA 
BRANCH   3   4
HETATM    4  C   UNL     1     -11.164   9.255  71.039  1.00  0.00    -0.321 A  
HETATM    5  C   UNL     1     -12.529  11.478  70.254  1.00  0.00    -0.205 A  
HETATM    6  C   UNL     1     -11.331  11.200  69.607  1.00  0.00    -0.366 A  
HETATM    7  H1  UNL     1     -13.806   9.280  73.176  1.00  0.00     0.000 HD 
HETATM    8  N   UNL     1     -13.057  10.728  71.249  1.00  0.00    -0.366 NA 
HETATM    9  C   UNL     1     -10.649  10.060  70.016  1.00  0.00    -0.344 A  
HETATM   10  C   UNL     1     -12.360   9.646  71.644  1.00  0.00    -0.404 A  
HETATM   11  H2  UNL     1     -12.224   8.958  73.467  1.00  0.00     0.000 HD 
HETATM   12  N   UNL     1     -12.932   8.994  72.734  1.00  0.00    -0.295 NA 
BRANCH   6  13
HETATM   13  C   UNL     1     -10.816  12.096  68.593  1.00  0.00    -0.268 A  
HETATM   14  N   UNL     1      -9.613  12.924  66.847  1.00  0.00    -0.234 NA 
HETATM   15  C   UNL     1      -9.855  11.851  67.593  1.00  0.00    -0.187 A  
HETATM   16  C   UNL     1     -11.172  13.417  68.406  1.00  0.00    -0.279 A  
HETATM   17  N   UNL     1     -10.408  13.877  67.366  1.00  0.00    -0.251 NA 
BRANCH  17  18
HETATM   18  C   UNL     1     -10.368  15.240  66.836  1.00  0.00    -0.278 C  
HETATM   19  C   UNL     1     -10.508  16.302  67.935  1.00  0.00    -0.295 C  
HETATM   20  C   UNL     1      -9.212  16.503  68.721  1.00  0.00    -0.252 C  
HETATM   21  N   UNL     1      -8.078  16.787  67.840  1.00  0.00    -0.182 NA 
HETATM   22  C   UNL     1      -7.874  15.732  66.846  1.00  0.00    -0.236 C  
HETATM   23  H   UNL     1      -7.227  16.958  68.376  1.00  0.00     0.000 HD 
HETATM   24  C   UNL     1      -9.119  15.509  65.989  1.00  0.00    -0.316 C  
ENDBRANCH  17  18
ENDBRANCH   6  13
ENDBRANCH   3   4
ENDBRANCH   2   3
BRANCH   2  25
HETATM   25  C   UNL     1      -9.332   5.990  71.033  1.00  0.00    -0.175 A  
HETATM   26 CL   UNL     1      -7.165   6.225  69.313  1.00  0.00    -0.083 Cl 
HETATM   27  C   UNL     1      -9.916   5.341  72.151  1.00  0.00    -0.184 A  
HETATM   28 CL   UNL     1     -11.404   5.868  72.868  1.00  0.00    -0.294 Cl 
HETATM   29  F   UNL     1      -6.331   3.888  70.763  1.00  0.00    -0.019 F  
HETATM   30  C   UNL     1      -9.306   4.238  72.766  1.00  0.00    -0.146 A  
HETATM   31  C   UNL     1      -8.102   3.748  72.283  1.00  0.00    -0.077 A  
HETATM   32  C   UNL     1      -8.086   5.494  70.586  1.00  0.00    -0.115 A  
HETATM   33  C   UNL     1      -7.502   4.376  71.202  1.00  0.00    -0.059 A  
ENDBRANCH   2  25
TORSDOF 5
ENDMDL
MODEL      175
REMARK 921   NORMALIZED FREE ENERGY PREDICTED BY IDOCK:   -5.22 KCAL/MOL
REMARK 922        TOTAL FREE ENERGY PREDICTED BY IDOCK:   -7.41 KCAL/MOL
REMARK 923 INTER-LIGAND FREE ENERGY PREDICTED BY IDOCK:   -7.56 KCAL/MOL
REMARK 924 INTRA-LIGAND FREE ENERGY PREDICTED BY IDOCK:    0.14 KCAL/MOL
REMARK 927      BINDING AFFINITY PREDICTED BY RF-SCORE:    0.00 PKD
ROOT
HETATM    1  C   UNL     1      -9.975   9.784  70.633  1.00  0.00    -0.215 C  
HETATM    2  C   UNL     1     -10.722   8.918  69.618  1.00  0.00    -0.217 C  
ENDROOT
BRANCH   2   3
HETATM    3  O   UNL     1     -11.896   9.643  69.246  1.00  0.00     0.240 OA 
BRANCH   3   4
HETATM    4  C   UNL     1     -12.094  10.921  69.682  1.00  0.00    -0.329 A  
HETATM    5  C   UNL     1     -12.245  13.562  70.334  1.00  0.00    -0.356 A  
HETATM    6  C   UNL     1     -11.690  13.237  69.102  1.00  0.00    -0.379 A  
HETATM    7  H1  UNL     1     -13.383  10.822  72.824  1.00  0.00     0.000 HD 
HETATM    8  N   UNL     1     -12.707  12.659  71.231  1.00  0.00    -0.328 NA 
HETATM    9  C   UNL     1     -11.624  11.886  68.782  1.00  0.00    -0.366 A  
HETATM   10  C   UNL     1     -12.603  11.357  70.907  1.00  0.00    -0.356 A  
HETATM   11  H2  UNL     1     -12.229   9.884  72.134  1.00  0.00     0.000 HD 
HETATM   12  N   UNL     1     -13.012  10.504  71.928  1.00  0.00    -0.466 NA 
BRANCH   6  13
HETATM   13  C   UNL     1     -11.169  14.271  68.233  1.00  0.00    -0.298 A  
HETATM   14  N   UNL     1     -10.783  15.566  66.400  1.00  0.00    -0.307 NA 
HETATM   15  C   UNL     1     -11.477  14.541  66.885  1.00  0.00    -0.364 A  
HETATM   16  C   UNL     1     -10.227  15.225  68.563  1.00  0.00    -0.224 A  
HETATM   17  N   UNL     1     -10.011  15.960  67.427  1.00  0.00    -0.236 NA 
BRANCH  17  18
HETATM   18  C   UNL     1      -9.046  17.045  67.250  1.00  0.00    -0.223 C  
HETATM   19  C   UNL     1      -9.395  17.954  66.064  1.00  0.00    -0.051 C  
HETATM   20  C   UNL     1     -10.527  18.930  66.389  1.00  0.00    -0.439 C  
HETATM   21  N   UNL     1     -10.247  19.707  67.597  1.00  0.00    -0.407 NA 
HETATM   22  C   UNL     1     -10.007  18.851  68.760  1.00  0.00    -0.408 C  
HETATM   23  H   UNL     1     -10.990  20.381  67.783  1.00  0.00     0.000 HD 
HETATM   24  C   UNL     1      -8.853  17.879  68.522  1.00  0.00    -0.293 C  
ENDBRANCH  17  18
ENDBRANCH   6  13
ENDBRANCH   3   4
ENDBRANCH   2   3
BRANCH   2  25
HETATM   25  C   UNL     1      -9.823   8.590  68.425  1.00  0.00    -0.189 A  
HETATM   26 CL   UNL     1      -8.426  10.977  68.654  1.00  0.00    -0.152 Cl 
HETATM   27  C   UNL     1      -9.959   7.332  67.784  1.00  0.00    -0.166 A  
HETATM   28 CL   UNL     1     -11.092   6.129  68.311  1.00  0.00    -0.403 Cl 
HETATM   29  F   UNL     1      -7.108   9.911  66.333  1.00  0.00    -0.087 F  
HETATM   30  C   UNL     1      -9.161   6.971  66.689  1.00  0.00    -0.189 A  
HETATM   31  C   UNL     1      -8.209   7.853  66.199  1.00  0.00    -0.117 A  
HETATM   32  C   UNL     1      -8.820   9.453  67.930  1.00  0.00    -0.124 A  
HETATM   33  C   UNL     1      -8.044   9.082  66.820  1.00  0.00    -0.111 A  
ENDBRANCH   2  25
TORSDOF 5
ENDMDL
MODEL      176
REMARK 921   NORMALIZED FREE ENERGY PREDICTED BY IDOCK:   -5.20 KCAL/MOL
REMARK 922        TOTAL FREE ENERGY PREDICTED BY IDOCK:   -7.39 KCAL/MOL
REMARK 923 INTER-LIGAND FREE ENERGY PREDICTED BY IDOCK:   -6.97 KCAL/MOL
REMARK 924 INTRA-LIGAND FREE ENERGY PREDICTED BY IDOCK:   -0.42 KCAL/MOL
REMARK 927      BINDING AFFINITY PREDICTED BY RF-SCORE:    0.00 PKD
ROOT
HETATM    1  C   UNL     1      -7.328  11.417  66.263  1.00  0.00     0.063 C  
HETATM    2  C   UNL     1      -8.495  10.438  66.126  1.00  0.00    -0.147 C  
ENDROOT
BRANCH   2   3
HETATM    3  O   UNL     1      -8.565   9.708  67.352  1.00  0.00    -0.125 OA 
BRANCH   3   4
HETATM    4  C   UNL     1      -9.205   8.504  67.412  1.00  0.00    -0.140 A  
HETATM    5  C   UNL     1     -10.455   6.127  67.869  1.00  0.00    -0.229 A  
HETATM    6  C   UNL     1     -10.436   7.051  68.907  1.00  0.00    -0.217 A  
HETATM    7  H1  UNL     1      -8.660   6.826  64.509  1.00  0.00     0.000 HD 
HETATM    8  N   UNL     1      -9.890   6.324  66.654  1.00  0.00    -0.163 NA 
HETATM    9  C   UNL     1      -9.798   8.260  68.657  1.00  0.00    -0.186 A  
HETATM   10  C   UNL     1      -9.254   7.493  66.451  1.00  0.00    -0.167 A  
HETATM   11  H2  UNL     1      -7.639   7.763  65.387  1.00  0.00     0.000 HD 
HETATM   12  N   UNL     1      -8.624   7.565  65.211  1.00  0.00    -0.063 NA 
BRANCH   6  13
HETATM   13  C   UNL     1     -11.017   6.726  70.192  1.00  0.00    -0.340 A  
HETATM   14  N   UNL     1     -12.368   6.751  72.025  1.00  0.00    -0.306 NA 
HETATM   15  C   UNL     1     -12.137   7.292  70.833  1.00  0.00    -0.288 A  
HETATM   16  C   UNL     1     -10.566   5.769  71.080  1.00  0.00    -0.251 A  
HETATM   17  N   UNL     1     -11.392   5.839  72.172  1.00  0.00    -0.278 NA 
BRANCH  17  18
HETATM   18  C   UNL     1     -11.279   5.073  73.413  1.00  0.00    -0.319 C  
HETATM   19  C   UNL     1     -10.736   3.656  73.182  1.00  0.00    -0.268 C  
HETATM   20  C   UNL     1      -9.222   3.640  72.960  1.00  0.00    -0.099 C  
HETATM   21  N   UNL     1      -8.505   4.321  74.039  1.00  0.00    -0.095 NA 
HETATM   22  C   UNL     1      -8.948   5.706  74.206  1.00  0.00    -0.122 C  
HETATM   23  H   UNL     1      -7.496   4.270  73.901  1.00  0.00     0.000 HD 
HETATM   24  C   UNL     1     -10.448   5.796  74.480  1.00  0.00    -0.143 C  
ENDBRANCH  17  18
ENDBRANCH   6  13
ENDBRANCH   3   4
ENDBRANCH   2   3
BRANCH   2  25
HETATM   25  C   UNL     1      -9.790  11.185  65.803  1.00  0.00    -0.279 A  
HETATM   26 CL   UNL     1      -9.896  12.352  68.320  1.00  0.00    -0.223 Cl 
HETATM   27  C   UNL     1     -10.337  11.088  64.498  1.00  0.00    -0.354 A  
HETATM   28 CL   UNL     1      -9.585  10.170  63.234  1.00  0.00    -0.310 Cl 
HETATM   29  F   UNL     1     -12.329  13.426  67.229  1.00  0.00    -0.379 F  
HETATM   30  C   UNL     1     -11.518  11.753  64.142  1.00  0.00    -0.409 A  
HETATM   31  C   UNL     1     -12.190  12.531  65.073  1.00  0.00    -0.519 A  
HETATM   32  C   UNL     1     -10.472  12.015  66.721  1.00  0.00    -0.214 A  
HETATM   33  C   UNL     1     -11.665  12.657  66.351  1.00  0.00    -0.405 A  
ENDBRANCH   2  25
TORSDOF 5
ENDMDL
MODEL      177
REMARK 921   NORMALIZED FREE ENERGY PREDICTED BY IDOCK:   -5.20 KCAL/MOL
REMARK 922        TOTAL FREE ENERGY PREDICTED BY IDOCK:   -7.38 KCAL/MOL
REMARK 923 INTER-LIGAND FREE ENERGY PREDICTED BY IDOCK:   -6.71 KCAL/MOL
REMARK 924 INTRA-LIGAND FREE ENERGY PREDICTED BY IDOCK:   -0.68 KCAL/MOL
REMARK 927      BINDING AFFINITY PREDICTED BY RF-SCORE:    0.00 PKD
ROOT
HETATM    1  C   UNL     1      -9.564   5.135  70.923  1.00  0.00    -0.235 C  
HETATM    2  C   UNL     1      -9.746   6.316  69.969  1.00  0.00    -0.168 C  
ENDROOT
BRANCH   2   3
HETATM    3  O   UNL     1      -9.459   7.498  70.719  1.00  0.00    -0.163 OA 
BRANCH   3   4
HETATM    4  C   UNL     1     -10.349   8.532  70.758  1.00  0.00    -0.198 A  
HETATM    5  C   UNL     1     -11.912  10.760  70.629  1.00  0.00    -0.367 A  
HETATM    6  C   UNL     1     -10.999  10.557  69.600  1.00  0.00    -0.333 A  
HETATM    7  H1  UNL     1     -12.120   8.348  73.651  1.00  0.00     0.000 HD 
HETATM    8  N   UNL     1     -12.071   9.933  71.689  1.00  0.00    -0.398 NA 
HETATM    9  C   UNL     1     -10.212   9.414  69.679  1.00  0.00    -0.225 A  
HETATM   10  C   UNL     1     -11.275   8.850  71.754  1.00  0.00    -0.362 A  
HETATM   11  H2  UNL     1     -10.531   8.055  73.374  1.00  0.00     0.000 HD 
HETATM   12  N   UNL     1     -11.444   8.115  72.924  1.00  0.00    -0.326 NA 
BRANCH   6  13
HETATM   13  C   UNL     1     -10.860  11.529  68.537  1.00  0.00    -0.254 A  
HETATM   14  N   UNL     1     -11.255  12.748  66.655  1.00  0.00    -0.288 NA 
HETATM   15  C   UNL     1     -11.718  11.789  67.450  1.00  0.00    -0.230 A  
HETATM   16  C   UNL     1      -9.817  12.418  68.366  1.00  0.00    -0.198 A  
HETATM   17  N   UNL     1     -10.086  13.108  67.213  1.00  0.00    -0.231 NA 
BRANCH  17  18
HETATM   18  C   UNL     1      -9.240  14.114  66.571  1.00  0.00    -0.224 C  
HETATM   19  C   UNL     1      -9.916  14.759  65.353  1.00  0.00    -0.369 C  
HETATM   20  C   UNL     1     -10.963  15.801  65.748  1.00  0.00    -0.214 C  
HETATM   21  N   UNL     1     -10.413  16.810  66.655  1.00  0.00    -0.290 NA 
HETATM   22  C   UNL     1      -9.850  16.214  67.868  1.00  0.00    -0.235 C  
HETATM   23  H   UNL     1     -11.107  17.521  66.881  1.00  0.00     0.000 HD 
HETATM   24  C   UNL     1      -8.759  15.194  67.548  1.00  0.00    -0.188 C  
ENDBRANCH  17  18
ENDBRANCH   6  13
ENDBRANCH   3   4
ENDBRANCH   2   3
BRANCH   2  25
HETATM   25  C   UNL     1      -8.847   6.159  68.741  1.00  0.00    -0.121 A  
HETATM   26 CL   UNL     1     -10.948   6.610  66.983  1.00  0.00    -0.480 Cl 
HETATM   27  C   UNL     1      -7.456   5.954  68.925  1.00  0.00    -0.085 A  
HETATM   28 CL   UNL     1      -6.717   5.894  70.493  1.00  0.00    -0.050 Cl 
HETATM   29  F   UNL     1      -8.860   6.134  65.067  1.00  0.00    -0.118 F  
HETATM   30  C   UNL     1      -6.581   5.807  67.839  1.00  0.00    -0.053 A  
HETATM   31  C   UNL     1      -7.066   5.858  66.541  1.00  0.00    -0.069 A  
HETATM   32  C   UNL     1      -9.308   6.246  67.408  1.00  0.00    -0.115 A  
HETATM   33  C   UNL     1      -8.420   6.078  66.334  1.00  0.00    -0.118 A  
ENDBRANCH   2  25
TORSDOF 5
ENDMDL
MODEL      178
REMARK 921   NORMALIZED FREE ENERGY PREDICTED BY IDOCK:   -5.17 KCAL/MOL
REMARK 922        TOTAL FREE ENERGY PREDICTED BY IDOCK:   -7.35 KCAL/MOL
REMARK 923 INTER-LIGAND FREE ENERGY PREDICTED BY IDOCK:   -7.48 KCAL/MOL
REMARK 924 INTRA-LIGAND FREE ENERGY PREDICTED BY IDOCK:    0.13 KCAL/MOL
REMARK 927      BINDING AFFINITY PREDICTED BY RF-SCORE:    0.00 PKD
ROOT
HETATM    1  C   UNL     1     -12.346  12.788  65.403  1.00  0.00    -0.528 C  
HETATM    2  C   UNL     1     -11.379  11.686  65.839  1.00  0.00    -0.199 C  
ENDROOT
BRANCH   2   3
HETATM    3  O   UNL     1     -10.087  12.059  65.354  1.00  0.00    -0.247 OA 
BRANCH   3   4
HETATM    4  C   UNL     1      -9.084  12.381  66.221  1.00  0.00    -0.097 A  
HETATM    5  C   UNL     1      -7.135  13.347  67.862  1.00  0.00    -0.137 A  
HETATM    6  C   UNL     1      -8.132  14.230  67.463  1.00  0.00    -0.200 A  
HETATM    7  H1  UNL     1      -7.027   9.699  66.565  1.00  0.00     0.000 HD 
HETATM    8  N   UNL     1      -7.063  12.048  67.487  1.00  0.00    -0.117 NA 
HETATM    9  C   UNL     1      -9.121  13.720  66.630  1.00  0.00    -0.196 A  
HETATM   10  C   UNL     1      -8.018  11.591  66.655  1.00  0.00    -0.127 A  
HETATM   11  H2  UNL     1      -7.781  10.279  65.229  1.00  0.00     0.000 HD 
HETATM   12  N   UNL     1      -7.806  10.276  66.249  1.00  0.00    -0.113 NA 
BRANCH   6  13
HETATM   13  C   UNL     1      -8.093  15.618  67.870  1.00  0.00    -0.149 A  
HETATM   14  N   UNL     1      -8.660  17.616  68.802  1.00  0.00    -0.246 NA 
HETATM   15  C   UNL     1      -9.017  16.346  68.645  1.00  0.00    -0.233 A  
HETATM   16  C   UNL     1      -7.111  16.538  67.560  1.00  0.00    -0.143 A  
HETATM   17  N   UNL     1      -7.507  17.725  68.119  1.00  0.00    -0.229 NA 
BRANCH  17  18
HETATM   18  C   UNL     1      -6.835  19.019  68.008  1.00  0.00    -0.233 C  
HETATM   19  C   UNL     1      -5.867  19.078  66.818  1.00  0.00    -0.167 C  
HETATM   20  C   UNL     1      -6.591  19.269  65.485  1.00  0.00    -0.270 C  
HETATM   21  N   UNL     1      -7.483  20.429  65.510  1.00  0.00    -0.526 NA 
HETATM   22  C   UNL     1      -8.475  20.339  66.583  1.00  0.00    -0.226 C  
HETATM   23  H   UNL     1      -7.931  20.570  64.604  1.00  0.00     0.000 HD 
HETATM   24  C   UNL     1      -7.818  20.194  67.954  1.00  0.00    -0.277 C  
ENDBRANCH  17  18
ENDBRANCH   6  13
ENDBRANCH   3   4
ENDBRANCH   2   3
BRANCH   2  25
HETATM   25  C   UNL     1     -11.416  11.507  67.358  1.00  0.00    -0.349 A  
HETATM   26 CL   UNL     1     -12.230  14.127  67.778  1.00  0.00    -0.307 Cl 
HETATM   27  C   UNL     1     -11.140  10.230  67.909  1.00  0.00    -0.276 A  
HETATM   28 CL   UNL     1     -10.784   8.844  66.930  1.00  0.00    -0.247 Cl 
HETATM   29  F   UNL     1     -12.039  13.276  70.516  1.00  0.00    -0.388 F  
HETATM   30  C   UNL     1     -11.163  10.002  69.292  1.00  0.00    -0.213 A  
HETATM   31  C   UNL     1     -11.456  11.040  70.165  1.00  0.00    -0.383 A  
HETATM   32  C   UNL     1     -11.749  12.536  68.266  1.00  0.00    -0.340 A  
HETATM   33  C   UNL     1     -11.747  12.294  69.650  1.00  0.00    -0.316 A  
ENDBRANCH   2  25
TORSDOF 5
ENDMDL
MODEL      179
REMARK 921   NORMALIZED FREE ENERGY PREDICTED BY IDOCK:   -5.15 KCAL/MOL
REMARK 922        TOTAL FREE ENERGY PREDICTED BY IDOCK:   -7.33 KCAL/MOL
REMARK 923 INTER-LIGAND FREE ENERGY PREDICTED BY IDOCK:   -6.52 KCAL/MOL
REMARK 924 INTRA-LIGAND FREE ENERGY PREDICTED BY IDOCK:   -0.81 KCAL/MOL
REMARK 927      BINDING AFFINITY PREDICTED BY RF-SCORE:    0.00 PKD
ROOT
HETATM    1  C   UNL     1     -10.971   6.514  68.919  1.00  0.00    -0.376 C  
HETATM    2  C   UNL     1     -10.080   7.462  69.724  1.00  0.00    -0.193 C  
ENDROOT
BRANCH   2   3
HETATM    3  O   UNL     1     -10.705   7.632  70.997  1.00  0.00    -0.224 OA 
BRANCH   3   4
HETATM    4  C   UNL     1     -11.871   8.331  71.114  1.00  0.00    -0.275 A  
HETATM    5  C   UNL     1     -14.006   9.999  71.401  1.00  0.00     0.207 A  
HETATM    6  C   UNL     1     -12.785  10.573  71.066  1.00  0.00    -0.504 A  
HETATM    7  H1  UNL     1     -14.338   6.199  72.067  1.00  0.00     0.000 HD 
HETATM    8  N   UNL     1     -14.204   8.675  71.601  1.00  0.00    -0.414 NA 
HETATM    9  C   UNL     1     -11.707   9.708  70.919  1.00  0.00    -0.412 A  
HETATM   10  C   UNL     1     -13.135   7.865  71.481  1.00  0.00    -0.311 A  
HETATM   11  H2  UNL     1     -12.770   6.266  72.539  1.00  0.00     0.000 HD 
HETATM   12  N   UNL     1     -13.415   6.539  71.799  1.00  0.00     0.018 NA 
BRANCH   6  13
HETATM   13  C   UNL     1     -12.659  12.008  70.930  1.00  0.00    -0.347 A  
HETATM   14  N   UNL     1     -12.787  14.242  71.354  1.00  0.00    -0.325 NA 
HETATM   15  C   UNL     1     -13.041  13.026  71.826  1.00  0.00    -0.373 A  
HETATM   16  C   UNL     1     -12.127  12.688  69.852  1.00  0.00    -0.252 A  
HETATM   17  N   UNL     1     -12.248  14.022  70.142  1.00  0.00    -0.341 NA 
BRANCH  17  18
HETATM   18  C   UNL     1     -11.892  15.148  69.278  1.00  0.00    -0.320 C  
HETATM   19  C   UNL     1     -10.711  15.959  69.826  1.00  0.00    -0.324 C  
HETATM   20  C   UNL     1      -9.367  15.270  69.588  1.00  0.00    -0.155 C  
HETATM   21  N   UNL     1      -9.173  14.925  68.178  1.00  0.00    -0.181 NA 
HETATM   22  C   UNL     1     -10.246  14.070  67.668  1.00  0.00    -0.241 C  
HETATM   23  H   UNL     1      -8.259  14.501  68.024  1.00  0.00     0.000 HD 
HETATM   24  C   UNL     1     -11.619  14.719  67.831  1.00  0.00    -0.373 C  
ENDBRANCH  17  18
ENDBRANCH   6  13
ENDBRANCH   3   4
ENDBRANCH   2   3
BRANCH   2  25
HETATM   25  C   UNL     1      -8.658   6.906  69.829  1.00  0.00    -0.141 A  
HETATM   26 CL   UNL     1      -9.445   4.860  71.533  1.00  0.00    -0.196 Cl 
HETATM   27  C   UNL     1      -7.625   7.503  69.063  1.00  0.00    -0.108 A  
HETATM   28 CL   UNL     1      -7.907   8.832  67.985  1.00  0.00    -0.102 Cl 
HETATM   29  F   UNL     1      -6.626   4.308  71.446  1.00  0.00    -0.023 F  
HETATM   30  C   UNL     1      -6.304   7.035  69.113  1.00  0.00    -0.035 A  
HETATM   31  C   UNL     1      -5.974   5.963  69.929  1.00  0.00    -0.025 A  
HETATM   32  C   UNL     1      -8.303   5.792  70.622  1.00  0.00    -0.120 A  
HETATM   33  C   UNL     1      -6.971   5.350  70.674  1.00  0.00    -0.056 A  
ENDBRANCH   2  25
TORSDOF 5
ENDMDL
MODEL      180
REMARK 921   NORMALIZED FREE ENERGY PREDICTED BY IDOCK:   -5.13 KCAL/MOL
REMARK 922        TOTAL FREE ENERGY PREDICTED BY IDOCK:   -7.30 KCAL/MOL
REMARK 923 INTER-LIGAND FREE ENERGY PREDICTED BY IDOCK:   -7.09 KCAL/MOL
REMARK 924 INTRA-LIGAND FREE ENERGY PREDICTED BY IDOCK:   -0.21 KCAL/MOL
REMARK 927      BINDING AFFINITY PREDICTED BY RF-SCORE:    0.00 PKD
ROOT
HETATM    1  C   UNL     1     -12.214  14.231  67.369  1.00  0.00    -0.267 C  
HETATM    2  C   UNL     1     -12.023  13.028  68.294  1.00  0.00    -0.267 C  
ENDROOT
BRANCH   2   3
HETATM    3  O   UNL     1     -10.679  12.579  68.111  1.00  0.00    -0.212 OA 
BRANCH   3   4
HETATM    4  C   UNL     1     -10.376  11.655  67.153  1.00  0.00    -0.217 A  
HETATM    5  C   UNL     1      -9.690   9.604  65.496  1.00  0.00    -0.301 A  
HETATM    6  C   UNL     1     -10.008   9.286  66.811  1.00  0.00    -0.312 A  
HETATM    7  H1  UNL     1      -9.614  13.276  64.267  1.00  0.00     0.000 HD 
HETATM    8  N   UNL     1      -9.689  10.859  64.987  1.00  0.00    -0.246 NA 
HETATM    9  C   UNL     1     -10.361  10.343  67.643  1.00  0.00    -0.260 A  
HETATM   10  C   UNL     1     -10.006  11.865  65.824  1.00  0.00    -0.236 A  
HETATM   11  H2  UNL     1      -9.241  13.661  65.816  1.00  0.00     0.000 HD 
HETATM   12  N   UNL     1      -9.885  13.122  65.238  1.00  0.00    -0.143 NA 
BRANCH   6  13
HETATM   13  C   UNL     1      -9.923   7.919  67.280  1.00  0.00    -0.280 A  
HETATM   14  N   UNL     1      -9.640   5.661  67.324  1.00  0.00    -0.114 NA 
HETATM   15  C   UNL     1      -9.600   6.750  66.563  1.00  0.00    -0.140 A  
HETATM   16  C   UNL     1     -10.159   7.475  68.566  1.00  0.00    -0.184 A  
HETATM   17  N   UNL     1     -10.001   6.114  68.537  1.00  0.00    -0.140 NA 
BRANCH  17  18
HETATM   18  C   UNL     1     -10.215   5.178  69.641  1.00  0.00    -0.267 C  
HETATM   19  C   UNL     1      -9.309   3.942  69.547  1.00  0.00    -0.246 C  
HETATM   20  C   UNL     1      -7.874   4.234  69.988  1.00  0.00    -0.052 C  
HETATM   21  N   UNL     1      -7.825   4.835  71.321  1.00  0.00    -0.085 NA 
HETATM   22  C   UNL     1      -8.609   6.070  71.399  1.00  0.00    -0.129 C  
HETATM   23  H   UNL     1      -6.863   4.990  71.622  1.00  0.00     0.000 HD 
HETATM   24  C   UNL     1     -10.070   5.842  71.015  1.00  0.00    -0.252 C  
ENDBRANCH  17  18
ENDBRANCH   6  13
ENDBRANCH   3   4
ENDBRANCH   2   3
BRANCH   2  25
HETATM   25  C   UNL     1     -12.330  13.409  69.744  1.00  0.00    -0.219 A  
HETATM   26 CL   UNL     1     -11.958  16.115  69.249  1.00  0.00    -0.198 Cl 
HETATM   27  C   UNL     1     -12.717  12.395  70.657  1.00  0.00    -0.050 A  
HETATM   28 CL   UNL     1     -12.882  10.732  70.195  1.00  0.00    -0.247 Cl 
HETATM   29  F   UNL     1     -12.516  16.251  72.065  1.00  0.00    -0.483 F  
HETATM   30  C   UNL     1     -13.015  12.683  71.996  1.00  0.00    -0.379 A  
HETATM   31  C   UNL     1     -12.934  13.986  72.465  1.00  0.00    -0.480 A  
HETATM   32  C   UNL     1     -12.292  14.733  70.238  1.00  0.00    -0.345 A  
HETATM   33  C   UNL     1     -12.575  14.998  71.587  1.00  0.00    -0.339 A  
ENDBRANCH   2  25
TORSDOF 5
ENDMDL
MODEL      181
REMARK 921   NORMALIZED FREE ENERGY PREDICTED BY IDOCK:   -5.12 KCAL/MOL
REMARK 922        TOTAL FREE ENERGY PREDICTED BY IDOCK:   -7.29 KCAL/MOL
REMARK 923 INTER-LIGAND FREE ENERGY PREDICTED BY IDOCK:   -7.21 KCAL/MOL
REMARK 924 INTRA-LIGAND FREE ENERGY PREDICTED BY IDOCK:   -0.08 KCAL/MOL
REMARK 927      BINDING AFFINITY PREDICTED BY RF-SCORE:    0.00 PKD
ROOT
HETATM    1  C   UNL     1     -11.005  15.139  66.357  1.00  0.00    -0.329 C  
HETATM    2  C   UNL     1     -10.369  15.919  67.509  1.00  0.00    -0.283 C  
ENDROOT
BRANCH   2   3
HETATM    3  O   UNL     1      -9.926  14.952  68.463  1.00  0.00    -0.211 OA 
BRANCH   3   4
HETATM    4  C   UNL     1     -10.825  14.226  69.189  1.00  0.00    -0.242 A  
HETATM    5  C   UNL     1     -12.518  12.508  70.456  1.00  0.00    -0.185 A  
HETATM    6  C   UNL     1     -11.412  11.961  69.816  1.00  0.00    -0.303 A  
HETATM    7  H1  UNL     1     -13.267  16.305  70.308  1.00  0.00     0.000 HD 
HETATM    8  N   UNL     1     -12.815  13.828  70.485  1.00  0.00    -0.205 NA 
HETATM    9  C   UNL     1     -10.555  12.851  69.178  1.00  0.00     0.009 A  
HETATM   10  C   UNL     1     -11.983  14.663  69.834  1.00  0.00    -0.329 A  
HETATM   11  H2  UNL     1     -12.491  16.280  68.864  1.00  0.00     0.000 HD 
HETATM   12  N   UNL     1     -12.421  15.985  69.838  1.00  0.00    -0.119 NA 
BRANCH   6  13
HETATM   13  C   UNL     1     -11.210  10.529  69.789  1.00  0.00    -0.361 A  
HETATM   14  N   UNL     1     -11.039   8.355  70.444  1.00  0.00    -0.244 NA 
HETATM   15  C   UNL     1     -11.318   9.593  70.837  1.00  0.00    -0.360 A  
HETATM   16  C   UNL     1     -10.849   9.770  68.693  1.00  0.00    -0.188 A  
HETATM   17  N   UNL     1     -10.735   8.480  69.140  1.00  0.00    -0.165 NA 
BRANCH  17  18
HETATM   18  C   UNL     1     -10.305   7.314  68.368  1.00  0.00    -0.185 C  
HETATM   19  C   UNL     1     -10.412   7.540  66.854  1.00  0.00    -0.385 C  
HETATM   20  C   UNL     1      -9.271   8.400  66.309  1.00  0.00    -0.208 C  
HETATM   21  N   UNL     1      -7.960   7.867  66.681  1.00  0.00    -0.101 NA 
HETATM   22  C   UNL     1      -7.809   7.737  68.132  1.00  0.00    -0.121 C  
HETATM   23  H   UNL     1      -7.206   8.426  66.281  1.00  0.00     0.000 HD 
HETATM   24  C   UNL     1      -8.892   6.847  68.739  1.00  0.00    -0.132 C  
ENDBRANCH  17  18
ENDBRANCH   6  13
ENDBRANCH   3   4
ENDBRANCH   2   3
BRANCH   2  25
HETATM   25  C   UNL     1      -9.236  16.810  66.995  1.00  0.00    -0.238 A  
HETATM   26 CL   UNL     1     -10.862  19.058  66.919  1.00  0.00    -0.461 Cl 
HETATM   27  C   UNL     1      -7.937  16.259  66.847  1.00  0.00    -0.243 A  
HETATM   28 CL   UNL     1      -7.567  14.612  67.247  1.00  0.00    -0.213 Cl 
HETATM   29  F   UNL     1      -8.444  20.224  65.894  1.00  0.00    -0.301 F  
HETATM   30  C   UNL     1      -6.858  17.026  66.386  1.00  0.00    -0.248 A  
HETATM   31  C   UNL     1      -7.042  18.360  66.055  1.00  0.00    -0.307 A  
HETATM   32  C   UNL     1      -9.386  18.181  66.689  1.00  0.00    -0.297 A  
HETATM   33  C   UNL     1      -8.298  18.928  66.209  1.00  0.00    -0.260 A  
ENDBRANCH   2  25
TORSDOF 5
ENDMDL
MODEL      182
REMARK 921   NORMALIZED FREE ENERGY PREDICTED BY IDOCK:   -5.11 KCAL/MOL
REMARK 922        TOTAL FREE ENERGY PREDICTED BY IDOCK:   -7.27 KCAL/MOL
REMARK 923 INTER-LIGAND FREE ENERGY PREDICTED BY IDOCK:   -6.89 KCAL/MOL
REMARK 924 INTRA-LIGAND FREE ENERGY PREDICTED BY IDOCK:   -0.38 KCAL/MOL
REMARK 927      BINDING AFFINITY PREDICTED BY RF-SCORE:    0.00 PKD
ROOT
HETATM    1  C   UNL     1     -13.241  13.804  64.920  1.00  0.00     0.282 C  
HETATM    2  C   UNL     1     -11.736  13.891  65.176  1.00  0.00    -0.350 C  
ENDROOT
BRANCH   2   3
HETATM    3  O   UNL     1     -11.538  14.962  66.101  1.00  0.00    -0.324 OA 
BRANCH   3   4
HETATM    4  C   UNL     1     -10.346  15.624  66.156  1.00  0.00    -0.316 A  
HETATM    5  C   UNL     1      -7.890  16.745  66.527  1.00  0.00    -0.303 A  
HETATM    6  C   UNL     1      -8.093  15.466  67.032  1.00  0.00    -0.265 A  
HETATM    7  H1  UNL     1     -10.745  18.716  64.805  1.00  0.00     0.000 HD 
HETATM    8  N   UNL     1      -8.827  17.471  65.874  1.00  0.00    -0.529 NA 
HETATM    9  C   UNL     1      -9.350  14.906  66.831  1.00  0.00    -0.258 A  
HETATM   10  C   UNL     1     -10.044  16.915  65.720  1.00  0.00    -0.229 A  
HETATM   11  H2  UNL     1     -11.758  17.850  65.762  1.00  0.00     0.000 HD 
HETATM   12  N   UNL     1     -10.966  17.772  65.124  1.00  0.00    -0.609 NA 
BRANCH   6  13
HETATM   13  C   UNL     1      -7.047  14.790  67.769  1.00  0.00    -0.191 A  
HETATM   14  N   UNL     1      -5.158  14.400  68.979  1.00  0.00    -0.082 NA 
HETATM   15  C   UNL     1      -5.919  15.333  68.415  1.00  0.00    -0.107 A  
HETATM   16  C   UNL     1      -6.941  13.431  67.986  1.00  0.00    -0.127 A  
HETATM   17  N   UNL     1      -5.782  13.244  68.693  1.00  0.00    -0.075 NA 
BRANCH  17  18
HETATM   18  C   UNL     1      -5.194  11.969  69.102  1.00  0.00    -0.055 C  
HETATM   19  C   UNL     1      -5.903  11.358  70.319  1.00  0.00    -0.154 C  
HETATM   20  C   UNL     1      -7.234  10.700  69.951  1.00  0.00    -0.102 C  
HETATM   21  N   UNL     1      -7.078   9.722  68.873  1.00  0.00    -0.065 NA 
HETATM   22  C   UNL     1      -6.490  10.314  67.671  1.00  0.00    -0.058 C  
HETATM   23  H   UNL     1      -7.963   9.261  68.662  1.00  0.00     0.000 HD 
HETATM   24  C   UNL     1      -5.132  10.952  67.956  1.00  0.00    -0.036 C  
ENDBRANCH  17  18
ENDBRANCH   6  13
ENDBRANCH   3   4
ENDBRANCH   2   3
BRANCH   2  25
HETATM   25  C   UNL     1     -11.199  12.553  65.691  1.00  0.00    -0.352 A  
HETATM   26 CL   UNL     1     -10.101  11.896  63.228  1.00  0.00    -0.451 Cl 
HETATM   27  C   UNL     1     -11.364  12.225  67.061  1.00  0.00    -0.334 A  
HETATM   28 CL   UNL     1     -12.132  13.291  68.194  1.00  0.00    -0.324 Cl 
HETATM   29  F   UNL     1      -9.413   9.509  64.673  1.00  0.00    -0.309 F  
HETATM   30  C   UNL     1     -10.890  11.018  67.593  1.00  0.00    -0.306 A  
HETATM   31  C   UNL     1     -10.243  10.102  66.777  1.00  0.00    -0.289 A  
HETATM   32  C   UNL     1     -10.502  11.621  64.891  1.00  0.00    -0.288 A  
HETATM   33  C   UNL     1     -10.053  10.408  65.438  1.00  0.00    -0.284 A  
ENDBRANCH   2  25
TORSDOF 5
ENDMDL
MODEL      183
REMARK 921   NORMALIZED FREE ENERGY PREDICTED BY IDOCK:   -5.11 KCAL/MOL
REMARK 922        TOTAL FREE ENERGY PREDICTED BY IDOCK:   -7.27 KCAL/MOL
REMARK 923 INTER-LIGAND FREE ENERGY PREDICTED BY IDOCK:   -7.07 KCAL/MOL
REMARK 924 INTRA-LIGAND FREE ENERGY PREDICTED BY IDOCK:   -0.21 KCAL/MOL
REMARK 927      BINDING AFFINITY PREDICTED BY RF-SCORE:    0.00 PKD
ROOT
HETATM    1  C   UNL     1      -8.107   8.259  72.835  1.00  0.00    -0.211 C  
HETATM    2  C   UNL     1      -8.922   7.481  71.802  1.00  0.00    -0.122 C  
ENDROOT
BRANCH   2   3
HETATM    3  O   UNL     1      -8.021   7.122  70.753  1.00  0.00    -0.098 OA 
BRANCH   3   4
HETATM    4  C   UNL     1      -7.918   7.890  69.629  1.00  0.00    -0.118 A  
HETATM    5  C   UNL     1      -8.045   9.476  67.418  1.00  0.00    -0.110 A  
HETATM    6  C   UNL     1      -9.057   9.611  68.362  1.00  0.00    -0.123 A  
HETATM    7  H1  UNL     1      -5.243   6.834  67.821  1.00  0.00     0.000 HD 
HETATM    8  N   UNL     1      -7.011   8.608  67.517  1.00  0.00    -0.077 NA 
HETATM    9  C   UNL     1      -8.975   8.798  69.486  1.00  0.00    -0.145 A  
HETATM   10  C   UNL     1      -6.974   7.813  68.603  1.00  0.00    -0.067 A  
HETATM   11  H2  UNL     1      -6.348   5.964  68.663  1.00  0.00     0.000 HD 
HETATM   12  N   UNL     1      -5.932   6.891  68.570  1.00  0.00    -0.024 NA 
BRANCH   6  13
HETATM   13  C   UNL     1     -10.155  10.526  68.139  1.00  0.00    -0.180 A  
HETATM   14  N   UNL     1     -12.112  11.662  68.396  1.00  0.00    -0.518 NA 
HETATM   15  C   UNL     1     -11.300  10.754  68.928  1.00  0.00    -0.284 A  
HETATM   16  C   UNL     1     -10.308  11.382  67.065  1.00  0.00    -0.223 A  
HETATM   17  N   UNL     1     -11.505  12.022  67.252  1.00  0.00    -0.383 NA 
BRANCH  17  18
HETATM   18  C   UNL     1     -12.145  12.975  66.346  1.00  0.00    -0.358 C  
HETATM   19  C   UNL     1     -11.483  14.360  66.386  1.00  0.00    -0.365 C  
HETATM   20  C   UNL     1     -10.170  14.402  65.604  1.00  0.00    -0.350 C  
HETATM   21  N   UNL     1     -10.337  13.926  64.230  1.00  0.00    -0.679 NA 
HETATM   22  C   UNL     1     -10.880  12.567  64.179  1.00  0.00    -0.382 C  
HETATM   23  H   UNL     1      -9.465  13.995  63.706  1.00  0.00     0.000 HD 
HETATM   24  C   UNL     1     -12.220  12.462  64.903  1.00  0.00    -0.485 C  
ENDBRANCH  17  18
ENDBRANCH   6  13
ENDBRANCH   3   4
ENDBRANCH   2   3
BRANCH   2  25
HETATM   25  C   UNL     1      -9.595   6.268  72.449  1.00  0.00    -0.156 A  
HETATM   26 CL   UNL     1     -12.119   7.049  71.596  1.00  0.00    -0.362 Cl 
HETATM   27  C   UNL     1      -8.789   5.289  73.083  1.00  0.00    -0.119 A  
HETATM   28 CL   UNL     1      -7.058   5.393  73.140  1.00  0.00    -0.083 Cl 
HETATM   29  F   UNL     1     -12.853   4.683  73.053  1.00  0.00    -0.117 F  
HETATM   30  C   UNL     1      -9.346   4.154  73.690  1.00  0.00    -0.113 A  
HETATM   31  C   UNL     1     -10.720   3.964  73.684  1.00  0.00    -0.310 A  
HETATM   32  C   UNL     1     -10.987   6.031  72.424  1.00  0.00    -0.260 A  
HETATM   33  C   UNL     1     -11.528   4.898  73.054  1.00  0.00    -0.243 A  
ENDBRANCH   2  25
TORSDOF 5
ENDMDL
MODEL      184
REMARK 921   NORMALIZED FREE ENERGY PREDICTED BY IDOCK:   -5.10 KCAL/MOL
REMARK 922        TOTAL FREE ENERGY PREDICTED BY IDOCK:   -7.26 KCAL/MOL
REMARK 923 INTER-LIGAND FREE ENERGY PREDICTED BY IDOCK:   -6.50 KCAL/MOL
REMARK 924 INTRA-LIGAND FREE ENERGY PREDICTED BY IDOCK:   -0.76 KCAL/MOL
REMARK 927      BINDING AFFINITY PREDICTED BY RF-SCORE:    0.00 PKD
ROOT
HETATM    1  C   UNL     1      -6.061   6.101  70.991  1.00  0.00    -0.035 C  
HETATM    2  C   UNL     1      -7.357   6.647  70.390  1.00  0.00    -0.082 C  
ENDROOT
BRANCH   2   3
HETATM    3  O   UNL     1      -7.413   6.181  69.041  1.00  0.00    -0.083 OA 
BRANCH   3   4
HETATM    4  C   UNL     1      -8.472   6.492  68.238  1.00  0.00    -0.116 A  
HETATM    5  C   UNL     1     -10.661   7.354  66.864  1.00  0.00    -0.305 A  
HETATM    6  C   UNL     1     -10.086   8.237  67.771  1.00  0.00    -0.262 A  
HETATM    7  H1  UNL     1      -9.316   3.750  66.420  1.00  0.00     0.000 HD 
HETATM    8  N   UNL     1     -10.214   6.099  66.624  1.00  0.00    -0.190 NA 
HETATM    9  C   UNL     1      -8.967   7.784  68.461  1.00  0.00    -0.133 A  
HETATM   10  C   UNL     1      -9.147   5.677  67.328  1.00  0.00    -0.110 A  
HETATM   11  H2  UNL     1      -8.835   3.865  67.983  1.00  0.00     0.000 HD 
HETATM   12  N   UNL     1      -8.822   4.346  67.084  1.00  0.00    -0.111 NA 
BRANCH   6  13
HETATM   13  C   UNL     1     -10.671   9.540  68.003  1.00  0.00    -0.266 A  
HETATM   14  N   UNL     1     -11.684  11.307  69.020  1.00  0.00    -0.314 NA 
HETATM   15  C   UNL     1     -11.215  10.074  69.187  1.00  0.00    -0.149 A  
HETATM   16  C   UNL     1     -10.824  10.550  67.073  1.00  0.00    -0.225 A  
HETATM   17  N   UNL     1     -11.457  11.577  67.723  1.00  0.00    -0.406 NA 
BRANCH  17  18
HETATM   18  C   UNL     1     -11.904  12.843  67.144  1.00  0.00    -0.362 C  
HETATM   19  C   UNL     1     -11.733  14.024  68.109  1.00  0.00    -0.387 C  
HETATM   20  C   UNL     1     -10.283  14.503  68.196  1.00  0.00    -0.230 C  
HETATM   21  N   UNL     1      -9.729  14.805  66.875  1.00  0.00    -0.233 NA 
HETATM   22  C   UNL     1      -9.798  13.654  65.972  1.00  0.00    -0.276 C  
HETATM   23  H   UNL     1      -8.775  15.160  66.948  1.00  0.00     0.000 HD 
HETATM   24  C   UNL     1     -11.230  13.150  65.801  1.00  0.00    -0.309 C  
ENDBRANCH  17  18
ENDBRANCH   6  13
ENDBRANCH   3   4
ENDBRANCH   2   3
BRANCH   2  25
HETATM   25  C   UNL     1      -8.563   6.207  71.222  1.00  0.00    -0.129 A  
HETATM   26 CL   UNL     1      -9.218   8.819  71.895  1.00  0.00    -0.343 Cl 
HETATM   27  C   UNL     1      -8.904   4.831  71.270  1.00  0.00    -0.127 A  
HETATM   28 CL   UNL     1      -8.021   3.617  70.401  1.00  0.00    -0.050 Cl 
HETATM   29  F   UNL     1     -11.267   7.452  73.376  1.00  0.00    -0.376 F  
HETATM   30  C   UNL     1     -10.000   4.367  72.011  1.00  0.00    -0.252 A  
HETATM   31  C   UNL     1     -10.785   5.258  72.727  1.00  0.00    -0.292 A  
HETATM   32  C   UNL     1      -9.402   7.097  71.930  1.00  0.00    -0.138 A  
HETATM   33  C   UNL     1     -10.484   6.611  72.682  1.00  0.00    -0.212 A  
ENDBRANCH   2  25
TORSDOF 5
ENDMDL
MODEL      185
REMARK 921   NORMALIZED FREE ENERGY PREDICTED BY IDOCK:   -5.04 KCAL/MOL
REMARK 922        TOTAL FREE ENERGY PREDICTED BY IDOCK:   -7.18 KCAL/MOL
REMARK 923 INTER-LIGAND FREE ENERGY PREDICTED BY IDOCK:   -6.39 KCAL/MOL
REMARK 924 INTRA-LIGAND FREE ENERGY PREDICTED BY IDOCK:   -0.79 KCAL/MOL
REMARK 927      BINDING AFFINITY PREDICTED BY RF-SCORE:    0.00 PKD
ROOT
HETATM    1  C   UNL     1      -7.923   8.249  73.813  1.00  0.00    -0.241 C  
HETATM    2  C   UNL     1      -8.692   7.891  72.540  1.00  0.00    -0.154 C  
ENDROOT
BRANCH   2   3
HETATM    3  O   UNL     1      -7.725   7.781  71.494  1.00  0.00    -0.081 OA 
BRANCH   3   4
HETATM    4  C   UNL     1      -7.977   8.296  70.255  1.00  0.00    -0.102 A  
HETATM    5  C   UNL     1      -8.760   9.456  67.918  1.00  0.00    -0.120 A  
HETATM    6  C   UNL     1      -9.284   9.974  69.097  1.00  0.00    -0.196 A  
HETATM    7  H1  UNL     1      -6.408   6.379  67.930  1.00  0.00     0.000 HD 
HETATM    8  N   UNL     1      -7.897   8.415  67.852  1.00  0.00    -0.106 NA 
HETATM    9  C   UNL     1      -8.871   9.374  70.281  1.00  0.00    -0.269 A  
HETATM   10  C   UNL     1      -7.538   7.835  69.013  1.00  0.00    -0.100 A  
HETATM   11  H2  UNL     1      -7.193   5.935  69.300  1.00  0.00     0.000 HD 
HETATM   12  N   UNL     1      -6.728   6.717  68.838  1.00  0.00    -0.054 NA 
BRANCH   6  13
HETATM   13  C   UNL     1     -10.247  11.053  69.063  1.00  0.00    -0.217 A  
HETATM   14  N   UNL     1     -12.013  12.394  69.580  1.00  0.00    -0.298 NA 
HETATM   15  C   UNL     1     -11.322  11.316  69.935  1.00  0.00    -0.249 A  
HETATM   16  C   UNL     1     -10.311  12.070  68.131  1.00  0.00    -0.198 A  
HETATM   17  N   UNL     1     -11.398  12.833  68.468  1.00  0.00    -0.268 NA 
BRANCH  17  18
HETATM   18  C   UNL     1     -11.924  13.988  67.741  1.00  0.00    -0.357 C  
HETATM   19  C   UNL     1     -11.288  15.308  68.195  1.00  0.00    -0.346 C  
HETATM   20  C   UNL     1      -9.884  15.508  67.622  1.00  0.00    -0.213 C  
HETATM   21  N   UNL     1      -9.866  15.376  66.165  1.00  0.00    -0.288 NA 
HETATM   22  C   UNL     1     -10.382  14.080  65.722  1.00  0.00    -0.319 C  
HETATM   23  H   UNL     1      -8.933  15.549  65.790  1.00  0.00     0.000 HD 
HETATM   24  C   UNL     1     -11.805  13.833  66.220  1.00  0.00    -0.426 C  
ENDBRANCH  17  18
ENDBRANCH   6  13
ENDBRANCH   3   4
ENDBRANCH   2   3
BRANCH   2  25
HETATM   25  C   UNL     1      -9.499   6.607  72.742  1.00  0.00    -0.153 A  
HETATM   26 CL   UNL     1      -7.219   5.089  73.193  1.00  0.00    -0.084 Cl 
HETATM   27  C   UNL     1     -10.916   6.670  72.711  1.00  0.00    -0.258 A  
HETATM   28 CL   UNL     1     -11.782   8.154  72.476  1.00  0.00    -0.460 Cl 
HETATM   29  F   UNL     1      -9.187   3.003  73.382  1.00  0.00    -0.084 F  
HETATM   30  C   UNL     1     -11.710   5.529  72.894  1.00  0.00    -0.216 A  
HETATM   31  C   UNL     1     -11.117   4.294  73.108  1.00  0.00    -0.293 A  
HETATM   32  C   UNL     1      -8.922   5.344  73.001  1.00  0.00    -0.119 A  
HETATM   33  C   UNL     1      -9.733   4.209  73.162  1.00  0.00    -0.125 A  
ENDBRANCH   2  25
TORSDOF 5
ENDMDL
MODEL      186
REMARK 921   NORMALIZED FREE ENERGY PREDICTED BY IDOCK:   -5.04 KCAL/MOL
REMARK 922        TOTAL FREE ENERGY PREDICTED BY IDOCK:   -7.18 KCAL/MOL
REMARK 923 INTER-LIGAND FREE ENERGY PREDICTED BY IDOCK:   -6.34 KCAL/MOL
REMARK 924 INTRA-LIGAND FREE ENERGY PREDICTED BY IDOCK:   -0.84 KCAL/MOL
REMARK 927      BINDING AFFINITY PREDICTED BY RF-SCORE:    0.00 PKD
ROOT
HETATM    1  C   UNL     1     -12.335  13.422  65.087  1.00  0.00    -0.501 C  
HETATM    2  C   UNL     1     -10.869  13.241  65.484  1.00  0.00    -0.284 C  
ENDROOT
BRANCH   2   3
HETATM    3  O   UNL     1     -10.636  14.104  66.598  1.00  0.00    -0.275 OA 
BRANCH   3   4
HETATM    4  C   UNL     1      -9.370  14.495  66.926  1.00  0.00    -0.245 A  
HETATM    5  C   UNL     1      -6.870  15.067  67.845  1.00  0.00    -0.156 A  
HETATM    6  C   UNL     1      -7.449  13.875  68.265  1.00  0.00    -0.118 A  
HETATM    7  H1  UNL     1      -8.789  17.565  65.592  1.00  0.00     0.000 HD 
HETATM    8  N   UNL     1      -7.464  15.962  67.021  1.00  0.00    -0.219 NA 
HETATM    9  C   UNL     1      -8.723  13.595  67.783  1.00  0.00    -0.184 A  
HETATM   10  C   UNL     1      -8.709  15.679  66.595  1.00  0.00    -0.298 A  
HETATM   11  H2  UNL     1     -10.147  16.962  66.286  1.00  0.00     0.000 HD 
HETATM   12  N   UNL     1      -9.272  16.699  65.833  1.00  0.00    -0.512 NA 
BRANCH   6  13
HETATM   13  C   UNL     1      -6.760  13.008  69.195  1.00  0.00    -0.087 A  
HETATM   14  N   UNL     1      -5.655  12.253  71.038  1.00  0.00    -0.349 NA 
HETATM   15  C   UNL     1      -6.250  13.300  70.476  1.00  0.00     0.066 A  
HETATM   16  C   UNL     1      -6.446  11.677  69.001  1.00  0.00    -0.082 A  
HETATM   17  N   UNL     1      -5.764  11.277  70.120  1.00  0.00    -0.104 NA 
BRANCH  17  18
HETATM   18  C   UNL     1      -5.157   9.967  70.361  1.00  0.00    -0.039 C  
HETATM   19  C   UNL     1      -5.424   9.448  71.781  1.00  0.00    -0.073 C  
HETATM   20  C   UNL     1      -6.840   8.893  71.944  1.00  0.00    -0.001 C  
HETATM   21  N   UNL     1      -7.147   7.878  70.934  1.00  0.00    -0.048 NA 
HETATM   22  C   UNL     1      -6.989   8.391  69.572  1.00  0.00    -0.045 C  
HETATM   23  H   UNL     1      -8.078   7.487  71.076  1.00  0.00     0.000 HD 
HETATM   24  C   UNL     1      -5.578   8.920  69.323  1.00  0.00    -0.035 C  
ENDBRANCH  17  18
ENDBRANCH   6  13
ENDBRANCH   3   4
ENDBRANCH   2   3
BRANCH   2  25
HETATM   25  C   UNL     1     -10.574  11.773  65.798  1.00  0.00    -0.312 A  
HETATM   26 CL   UNL     1     -11.666  11.961  68.343  1.00  0.00    -0.376 Cl 
HETATM   27  C   UNL     1     -10.007  10.952  64.789  1.00  0.00    -0.307 A  
HETATM   28 CL   UNL     1      -9.653  11.536  63.195  1.00  0.00    -0.383 Cl 
HETATM   29  F   UNL     1     -10.807   9.220  68.429  1.00  0.00    -0.246 F  
HETATM   30  C   UNL     1      -9.719   9.598  65.015  1.00  0.00    -0.234 A  
HETATM   31  C   UNL     1      -9.981   9.026  66.250  1.00  0.00    -0.352 A  
HETATM   32  C   UNL     1     -10.867  11.154  67.034  1.00  0.00    -0.284 A  
HETATM   33  C   UNL     1     -10.552   9.803  67.247  1.00  0.00    -0.255 A  
ENDBRANCH   2  25
TORSDOF 5
ENDMDL
MODEL      187
REMARK 921   NORMALIZED FREE ENERGY PREDICTED BY IDOCK:   -5.03 KCAL/MOL
REMARK 922        TOTAL FREE ENERGY PREDICTED BY IDOCK:   -7.17 KCAL/MOL
REMARK 923 INTER-LIGAND FREE ENERGY PREDICTED BY IDOCK:   -7.14 KCAL/MOL
REMARK 924 INTRA-LIGAND FREE ENERGY PREDICTED BY IDOCK:   -0.03 KCAL/MOL
REMARK 927      BINDING AFFINITY PREDICTED BY RF-SCORE:    0.00 PKD
ROOT
HETATM    1  C   UNL     1     -12.082  11.135  68.385  1.00  0.00    -0.069 C  
HETATM    2  C   UNL     1     -12.116  11.540  69.859  1.00  0.00    -0.316 C  
ENDROOT
BRANCH   2   3
HETATM    3  O   UNL     1     -11.131  10.748  70.525  1.00  0.00    -0.233 OA 
BRANCH   3   4
HETATM    4  C   UNL     1     -11.201   9.385  70.503  1.00  0.00    -0.275 A  
HETATM    5  C   UNL     1     -11.189   6.682  70.159  1.00  0.00    -0.360 A  
HETATM    6  C   UNL     1     -10.269   7.425  69.428  1.00  0.00    -0.201 A  
HETATM    7  H1  UNL     1     -13.785   8.388  72.472  1.00  0.00     0.000 HD 
HETATM    8  N   UNL     1     -12.091   7.208  71.020  1.00  0.00    -0.347 NA 
HETATM    9  C   UNL     1     -10.285   8.803  69.618  1.00  0.00    -0.210 A  
HETATM   10  C   UNL     1     -12.103   8.547  71.162  1.00  0.00    -0.252 A  
HETATM   11  H2  UNL     1     -13.676   9.667  71.451  1.00  0.00     0.000 HD 
HETATM   12  N   UNL     1     -13.125   9.000  71.991  1.00  0.00    -0.381 NA 
BRANCH   6  13
HETATM   13  C   UNL     1      -9.382   6.779  68.485  1.00  0.00    -0.126 A  
HETATM   14  N   UNL     1      -7.636   6.382  67.078  1.00  0.00    -0.094 NA 
HETATM   15  C   UNL     1      -8.174   7.247  67.932  1.00  0.00    -0.119 A  
HETATM   16  C   UNL     1      -9.555   5.533  67.915  1.00  0.00    -0.124 A  
HETATM   17  N   UNL     1      -8.498   5.351  67.062  1.00  0.00    -0.107 NA 
BRANCH  17  18
HETATM   18  C   UNL     1      -8.271   4.214  66.170  1.00  0.00    -0.105 C  
HETATM   19  C   UNL     1      -9.563   3.451  65.848  1.00  0.00    -0.067 C  
HETATM   20  C   UNL     1     -10.424   4.172  64.810  1.00  0.00    -0.174 C  
HETATM   21  N   UNL     1      -9.668   4.485  63.597  1.00  0.00    -0.357 NA 
HETATM   22  C   UNL     1      -8.481   5.295  63.879  1.00  0.00    -0.100 C  
HETATM   23  H   UNL     1     -10.260   4.930  62.897  1.00  0.00     0.000 HD 
HETATM   24  C   UNL     1      -7.549   4.611  64.877  1.00  0.00    -0.077 C  
ENDBRANCH  17  18
ENDBRANCH   6  13
ENDBRANCH   3   4
ENDBRANCH   2   3
BRANCH   2  25
HETATM   25  C   UNL     1     -11.871  13.043  70.011  1.00  0.00    -0.355 A  
HETATM   26 CL   UNL     1     -13.767  13.282  72.024  1.00  0.00    -0.545 Cl 
HETATM   27  C   UNL     1     -10.854  13.658  69.237  1.00  0.00    -0.082 A  
HETATM   28 CL   UNL     1      -9.851  12.772  68.134  1.00  0.00    -0.222 Cl 
HETATM   29  F   UNL     1     -12.983  16.040  71.822  1.00  0.00    -0.494 F  
HETATM   30  C   UNL     1     -10.580  15.030  69.334  1.00  0.00    -0.262 A  
HETATM   31  C   UNL     1     -11.312  15.828  70.202  1.00  0.00    -0.361 A  
HETATM   32  C   UNL     1     -12.575  13.871  70.914  1.00  0.00    -0.361 A  
HETATM   33  C   UNL     1     -12.299  15.246  70.983  1.00  0.00    -0.367 A  
ENDBRANCH   2  25
TORSDOF 5
ENDMDL
MODEL      188
REMARK 921   NORMALIZED FREE ENERGY PREDICTED BY IDOCK:   -5.02 KCAL/MOL
REMARK 922        TOTAL FREE ENERGY PREDICTED BY IDOCK:   -7.15 KCAL/MOL
REMARK 923 INTER-LIGAND FREE ENERGY PREDICTED BY IDOCK:   -7.97 KCAL/MOL
REMARK 924 INTRA-LIGAND FREE ENERGY PREDICTED BY IDOCK:    0.82 KCAL/MOL
REMARK 927      BINDING AFFINITY PREDICTED BY RF-SCORE:    0.00 PKD
ROOT
HETATM    1  C   UNL     1      -8.996  11.670  66.921  1.00  0.00    -0.191 C  
HETATM    2  C   UNL     1     -10.173  12.082  66.034  1.00  0.00    -0.226 C  
ENDROOT
BRANCH   2   3
HETATM    3  O   UNL     1     -11.351  11.551  66.643  1.00  0.00    -0.344 OA 
BRANCH   3   4
HETATM    4  C   UNL     1     -11.450  11.452  68.001  1.00  0.00    -0.307 A  
HETATM    5  C   UNL     1     -11.714  10.926  70.661  1.00  0.00    -0.316 A  
HETATM    6  C   UNL     1     -11.425   9.856  69.822  1.00  0.00    -0.194 A  
HETATM    7  H1  UNL     1     -12.290  14.492  69.265  1.00  0.00     0.000 HD 
HETATM    8  N   UNL     1     -11.880  12.204  70.248  1.00  0.00    -0.304 NA 
HETATM    9  C   UNL     1     -11.289  10.142  68.468  1.00  0.00    -0.172 A  
HETATM   10  C   UNL     1     -11.773  12.446  68.927  1.00  0.00    -0.324 A  
HETATM   11  H2  UNL     1     -12.807  13.744  67.900  1.00  0.00     0.000 HD 
HETATM   12  N   UNL     1     -12.054  13.766  68.588  1.00  0.00    -0.355 NA 
BRANCH   6  13
HETATM   13  C   UNL     1     -11.323   8.512  70.350  1.00  0.00    -0.193 A  
HETATM   14  N   UNL     1     -11.875   6.474  71.202  1.00  0.00    -0.343 NA 
HETATM   15  C   UNL     1     -12.348   7.628  70.741  1.00  0.00    -0.041 A  
HETATM   16  C   UNL     1     -10.158   7.810  70.591  1.00  0.00    -0.191 A  
HETATM   17  N   UNL     1     -10.540   6.606  71.123  1.00  0.00    -0.224 NA 
BRANCH  17  18
HETATM   18  C   UNL     1      -9.664   5.540  71.610  1.00  0.00    -0.161 C  
HETATM   19  C   UNL     1      -8.478   6.079  72.422  1.00  0.00    -0.116 C  
HETATM   20  C   UNL     1      -8.878   6.485  73.841  1.00  0.00    -0.133 C  
HETATM   21  N   UNL     1      -9.564   5.400  74.546  1.00  0.00    -0.150 NA 
HETATM   22  C   UNL     1     -10.754   4.941  73.827  1.00  0.00    -0.301 C  
HETATM   23  H   UNL     1      -9.791   5.667  75.503  1.00  0.00     0.000 HD 
HETATM   24  C   UNL     1     -10.419   4.474  72.412  1.00  0.00    -0.235 C  
ENDBRANCH  17  18
ENDBRANCH   6  13
ENDBRANCH   3   4
ENDBRANCH   2   3
BRANCH   2  25
HETATM   25  C   UNL     1     -10.219  13.603  65.874  1.00  0.00    -0.318 A  
HETATM   26 CL   UNL     1     -12.153  13.466  63.888  1.00  0.00    -0.517 Cl 
HETATM   27  C   UNL     1      -9.432  14.412  66.733  1.00  0.00    -0.267 A  
HETATM   28 CL   UNL     1      -8.427  13.750  67.983  1.00  0.00    -0.165 Cl 
HETATM   29  F   UNL     1     -11.770  16.314  63.940  1.00  0.00    -0.435 F  
HETATM   30  C   UNL     1      -9.435  15.810  66.638  1.00  0.00    -0.279 A  
HETATM   31  C   UNL     1     -10.219  16.443  65.685  1.00  0.00    -0.349 A  
HETATM   32  C   UNL     1     -11.038  14.274  64.939  1.00  0.00    -0.390 A  
HETATM   33  C   UNL     1     -11.013  15.675  64.846  1.00  0.00    -0.431 A  
ENDBRANCH   2  25
TORSDOF 5
ENDMDL
MODEL      189
REMARK 921   NORMALIZED FREE ENERGY PREDICTED BY IDOCK:   -5.01 KCAL/MOL
REMARK 922        TOTAL FREE ENERGY PREDICTED BY IDOCK:   -7.14 KCAL/MOL
REMARK 923 INTER-LIGAND FREE ENERGY PREDICTED BY IDOCK:   -7.41 KCAL/MOL
REMARK 924 INTRA-LIGAND FREE ENERGY PREDICTED BY IDOCK:    0.27 KCAL/MOL
REMARK 927      BINDING AFFINITY PREDICTED BY RF-SCORE:    0.00 PKD
ROOT
HETATM    1  C   UNL     1     -10.401  14.874  69.637  1.00  0.00    -0.144 C  
HETATM    2  C   UNL     1     -11.929  14.897  69.697  1.00  0.00    -0.320 C  
ENDROOT
BRANCH   2   3
HETATM    3  O   UNL     1     -12.393  14.868  68.346  1.00  0.00    -0.090 OA 
BRANCH   3   4
HETATM    4  C   UNL     1     -11.510  14.821  67.306  1.00  0.00    -0.366 A  
HETATM    5  C   UNL     1      -9.676  14.412  65.333  1.00  0.00    -0.121 A  
HETATM    6  C   UNL     1     -10.236  13.288  65.930  1.00  0.00    -0.295 A  
HETATM    7  H1  UNL     1     -10.557  17.988  66.531  1.00  0.00     0.000 HD 
HETATM    8  N   UNL     1      -9.973  15.689  65.669  1.00  0.00    -0.347 NA 
HETATM    9  C   UNL     1     -11.173  13.514  66.932  1.00  0.00    -0.329 A  
HETATM   10  C   UNL     1     -10.862  15.877  66.663  1.00  0.00    -0.213 A  
HETATM   11  H2  UNL     1     -10.825  17.302  67.996  1.00  0.00     0.000 HD 
HETATM   12  N   UNL     1     -11.031  17.216  67.001  1.00  0.00    -0.025 NA 
BRANCH   6  13
HETATM   13  C   UNL     1      -9.811  11.960  65.544  1.00  0.00    -0.257 A  
HETATM   14  N   UNL     1      -9.719   9.931  64.515  1.00  0.00    -0.242 NA 
HETATM   15  C   UNL     1     -10.369  11.089  64.588  1.00  0.00    -0.345 A  
HETATM   16  C   UNL     1      -8.741  11.256  66.061  1.00  0.00    -0.164 A  
HETATM   17  N   UNL     1      -8.742  10.039  65.432  1.00  0.00    -0.150 NA 
BRANCH  17  18
HETATM   18  C   UNL     1      -7.844   8.913  65.689  1.00  0.00    -0.096 C  
HETATM   19  C   UNL     1      -7.253   8.944  67.105  1.00  0.00    -0.083 C  
HETATM   20  C   UNL     1      -8.249   8.473  68.165  1.00  0.00    -0.120 C  
HETATM   21  N   UNL     1      -8.805   7.158  67.844  1.00  0.00    -0.125 NA 
HETATM   22  C   UNL     1      -9.459   7.140  66.534  1.00  0.00    -0.156 C  
HETATM   23  H   UNL     1      -9.438   6.836  68.576  1.00  0.00     0.000 HD 
HETATM   24  C   UNL     1      -8.504   7.556  65.416  1.00  0.00    -0.105 C  
ENDBRANCH  17  18
ENDBRANCH   6  13
ENDBRANCH   3   4
ENDBRANCH   2   3
BRANCH   2  25
HETATM   25  C   UNL     1     -12.452  13.726  70.531  1.00  0.00    -0.409 A  
HETATM   26 CL   UNL     1     -11.009  11.864  69.063  1.00  0.00    -0.270 Cl 
HETATM   27  C   UNL     1     -13.296  13.992  71.640  1.00  0.00    -0.367 A  
HETATM   28 CL   UNL     1     -13.746  15.599  72.111  1.00  0.00    -0.570 Cl 
HETATM   29  F   UNL     1     -12.353  10.069  70.860  1.00  0.00    -0.339 F  
HETATM   30  C   UNL     1     -13.803  12.962  72.445  1.00  0.00    -0.443 A  
HETATM   31  C   UNL     1     -13.489  11.640  72.167  1.00  0.00    -0.238 A  
HETATM   32  C   UNL     1     -12.116  12.375  70.294  1.00  0.00    -0.297 A  
HETATM   33  C   UNL     1     -12.651  11.355  71.099  1.00  0.00    -0.386 A  
ENDBRANCH   2  25
TORSDOF 5
ENDMDL
MODEL      190
REMARK 921   NORMALIZED FREE ENERGY PREDICTED BY IDOCK:   -5.01 KCAL/MOL
REMARK 922        TOTAL FREE ENERGY PREDICTED BY IDOCK:   -7.14 KCAL/MOL
REMARK 923 INTER-LIGAND FREE ENERGY PREDICTED BY IDOCK:   -7.72 KCAL/MOL
REMARK 924 INTRA-LIGAND FREE ENERGY PREDICTED BY IDOCK:    0.58 KCAL/MOL
REMARK 927      BINDING AFFINITY PREDICTED BY RF-SCORE:    0.00 PKD
ROOT
HETATM    1  C   UNL     1      -8.859  11.522  66.798  1.00  0.00    -0.183 C  
HETATM    2  C   UNL     1     -10.076  11.997  66.004  1.00  0.00    -0.230 C  
ENDROOT
BRANCH   2   3
HETATM    3  O   UNL     1     -11.221  11.386  66.602  1.00  0.00    -0.303 OA 
BRANCH   3   4
HETATM    4  C   UNL     1     -11.212  11.028  67.919  1.00  0.00    -0.310 A  
HETATM    5  C   UNL     1     -11.230   9.995  70.440  1.00  0.00    -0.323 A  
HETATM    6  C   UNL     1     -10.900   9.136  69.399  1.00  0.00    -0.165 A  
HETATM    7  H1  UNL     1     -12.248  13.673  69.782  1.00  0.00     0.000 HD 
HETATM    8  N   UNL     1     -11.549  11.302  70.288  1.00  0.00    -0.304 NA 
HETATM    9  C   UNL     1     -10.891   9.680  68.119  1.00  0.00    -0.241 A  
HETATM   10  C   UNL     1     -11.561  11.793  69.034  1.00  0.00    -0.311 A  
HETATM   11  H2  UNL     1     -12.787  13.139  68.329  1.00  0.00     0.000 HD 
HETATM   12  N   UNL     1     -11.993  13.115  68.968  1.00  0.00    -0.308 NA 
BRANCH   6  13
HETATM   13  C   UNL     1     -10.631   7.737  69.654  1.00  0.00    -0.242 A  
HETATM   14  N   UNL     1     -10.859   5.582  70.352  1.00  0.00    -0.252 NA 
HETATM   15  C   UNL     1     -11.449   6.770  70.270  1.00  0.00    -0.360 A  
HETATM   16  C   UNL     1      -9.473   7.053  69.342  1.00  0.00    -0.145 A  
HETATM   17  N   UNL     1      -9.648   5.774  69.801  1.00  0.00    -0.153 NA 
BRANCH  17  18
HETATM   18  C   UNL     1      -8.671   4.685  69.771  1.00  0.00    -0.081 C  
HETATM   19  C   UNL     1      -9.270   3.372  69.248  1.00  0.00    -0.221 C  
HETATM   20  C   UNL     1      -9.422   3.364  67.726  1.00  0.00    -0.176 C  
HETATM   21  N   UNL     1      -8.164   3.686  67.051  1.00  0.00    -0.094 NA 
HETATM   22  C   UNL     1      -7.629   4.983  67.471  1.00  0.00    -0.087 C  
HETATM   23  H   UNL     1      -8.266   3.640  66.038  1.00  0.00     0.000 HD 
HETATM   24  C   UNL     1      -7.408   5.046  68.980  1.00  0.00    -0.057 C  
ENDBRANCH  17  18
ENDBRANCH   6  13
ENDBRANCH   3   4
ENDBRANCH   2   3
BRANCH   2  25
HETATM   25  C   UNL     1     -10.152  13.525  65.998  1.00  0.00    -0.316 A  
HETATM   26 CL   UNL     1     -11.914  13.559  63.853  1.00  0.00    -0.504 Cl 
HETATM   27  C   UNL     1      -9.460  14.255  66.998  1.00  0.00    -0.254 A  
HETATM   28 CL   UNL     1      -8.543  13.485  68.253  1.00  0.00    -0.170 Cl 
HETATM   29  F   UNL     1     -11.617  16.393  64.229  1.00  0.00    -0.530 F  
HETATM   30  C   UNL     1      -9.496  15.655  67.048  1.00  0.00    -0.236 A  
HETATM   31  C   UNL     1     -10.217  16.369  66.102  1.00  0.00    -0.363 A  
HETATM   32  C   UNL     1     -10.911  14.274  65.071  1.00  0.00    -0.403 A  
HETATM   33  C   UNL     1     -10.918  15.678  65.125  1.00  0.00    -0.398 A  
ENDBRANCH   2  25
TORSDOF 5
ENDMDL
MODEL      191
REMARK 921   NORMALIZED FREE ENERGY PREDICTED BY IDOCK:   -5.00 KCAL/MOL
REMARK 922        TOTAL FREE ENERGY PREDICTED BY IDOCK:   -7.13 KCAL/MOL
REMARK 923 INTER-LIGAND FREE ENERGY PREDICTED BY IDOCK:   -6.40 KCAL/MOL
REMARK 924 INTRA-LIGAND FREE ENERGY PREDICTED BY IDOCK:   -0.74 KCAL/MOL
REMARK 927      BINDING AFFINITY PREDICTED BY RF-SCORE:    0.00 PKD
ROOT
HETATM    1  C   UNL     1     -11.138  16.313  69.301  1.00  0.00    -0.325 C  
HETATM    2  C   UNL     1      -9.952  15.766  68.505  1.00  0.00    -0.208 C  
ENDROOT
BRANCH   2   3
HETATM    3  O   UNL     1     -10.421  15.536  67.175  1.00  0.00    -0.275 OA 
BRANCH   3   4
HETATM    4  C   UNL     1     -10.608  14.266  66.712  1.00  0.00    -0.278 A  
HETATM    5  C   UNL     1     -10.736  11.639  66.000  1.00  0.00    -0.280 A  
HETATM    6  C   UNL     1     -10.174  11.941  67.235  1.00  0.00    -0.220 A  
HETATM    7  H1  UNL     1     -11.925  14.423  63.584  1.00  0.00     0.000 HD 
HETATM    8  N   UNL     1     -11.215  12.557  65.128  1.00  0.00    -0.296 NA 
HETATM    9  C   UNL     1     -10.120  13.286  67.585  1.00  0.00    -0.229 A  
HETATM   10  C   UNL     1     -11.122  13.853  65.481  1.00  0.00    -0.304 A  
HETATM   11  H2  UNL     1     -10.775  15.357  64.286  1.00  0.00     0.000 HD 
HETATM   12  N   UNL     1     -11.550  14.725  64.483  1.00  0.00    -0.385 NA 
BRANCH   6  13
HETATM   13  C   UNL     1      -9.635  10.894  68.075  1.00  0.00    -0.170 A  
HETATM   14  N   UNL     1      -9.415   9.343  69.727  1.00  0.00    -0.188 NA 
HETATM   15  C   UNL     1     -10.220  10.251  69.183  1.00  0.00    -0.218 A  
HETATM   16  C   UNL     1      -8.392  10.303  67.956  1.00  0.00    -0.114 A  
HETATM   17  N   UNL     1      -8.298   9.399  68.982  1.00  0.00    -0.120 NA 
BRANCH  17  18
HETATM   18  C   UNL     1      -7.140   8.573  69.325  1.00  0.00    -0.059 C  
HETATM   19  C   UNL     1      -7.538   7.265  70.024  1.00  0.00    -0.090 C  
HETATM   20  C   UNL     1      -8.074   6.219  69.046  1.00  0.00    -0.110 C  
HETATM   21  N   UNL     1      -7.145   5.977  67.942  1.00  0.00    -0.073 NA 
HETATM   22  C   UNL     1      -6.831   7.203  67.206  1.00  0.00    -0.073 C  
HETATM   23  H   UNL     1      -7.494   5.250  67.318  1.00  0.00     0.000 HD 
HETATM   24  C   UNL     1      -6.244   8.280  68.116  1.00  0.00    -0.051 C  
ENDBRANCH  17  18
ENDBRANCH   6  13
ENDBRANCH   3   4
ENDBRANCH   2   3
BRANCH   2  25
HETATM   25  C   UNL     1      -8.772  16.739  68.560  1.00  0.00    -0.245 A  
HETATM   26 CL   UNL     1      -7.047  14.797  69.541  1.00  0.00    -0.170 Cl 
HETATM   27  C   UNL     1      -8.946  18.062  68.081  1.00  0.00    -0.283 A  
HETATM   28 CL   UNL     1     -10.442  18.626  67.408  1.00  0.00    -0.441 Cl 
HETATM   29  F   UNL     1      -5.240  17.032  69.525  1.00  0.00    -0.135 F  
HETATM   30  C   UNL     1      -7.903  18.998  68.101  1.00  0.00    -0.334 A  
HETATM   31  C   UNL     1      -6.658  18.644  68.601  1.00  0.00    -0.273 A  
HETATM   32  C   UNL     1      -7.484  16.393  69.028  1.00  0.00    -0.227 A  
HETATM   33  C   UNL     1      -6.457  17.350  69.058  1.00  0.00    -0.226 A  
ENDBRANCH   2  25
TORSDOF 5
ENDMDL
MODEL      192
REMARK 921   NORMALIZED FREE ENERGY PREDICTED BY IDOCK:   -5.00 KCAL/MOL
REMARK 922        TOTAL FREE ENERGY PREDICTED BY IDOCK:   -7.13 KCAL/MOL
REMARK 923 INTER-LIGAND FREE ENERGY PREDICTED BY IDOCK:   -7.42 KCAL/MOL
REMARK 924 INTRA-LIGAND FREE ENERGY PREDICTED BY IDOCK:    0.29 KCAL/MOL
REMARK 927      BINDING AFFINITY PREDICTED BY RF-SCORE:    0.00 PKD
ROOT
HETATM    1  C   UNL     1     -11.829  11.060  68.475  1.00  0.00    -0.286 C  
HETATM    2  C   UNL     1     -12.196  11.497  69.894  1.00  0.00    -0.258 C  
ENDROOT
BRANCH   2   3
HETATM    3  O   UNL     1     -11.368  10.745  70.783  1.00  0.00    -0.256 OA 
BRANCH   3   4
HETATM    4  C   UNL     1     -11.613   9.422  71.012  1.00  0.00    -0.330 A  
HETATM    5  C   UNL     1     -11.911   6.720  71.197  1.00  0.00    -0.370 A  
HETATM    6  C   UNL     1     -10.819   7.197  70.482  1.00  0.00    -0.269 A  
HETATM    7  H1  UNL     1     -14.529   9.127  72.731  1.00  0.00     0.000 HD 
HETATM    8  N   UNL     1     -12.837   7.504  71.798  1.00  0.00    -0.334 NA 
HETATM    9  C   UNL     1     -10.678   8.578  70.401  1.00  0.00    -0.246 A  
HETATM   10  C   UNL     1     -12.692   8.837  71.678  1.00  0.00    -0.348 A  
HETATM   11  H2  UNL     1     -14.129  10.148  71.511  1.00  0.00     0.000 HD 
HETATM   12  N   UNL     1     -13.741   9.555  72.245  1.00  0.00    -0.422 NA 
BRANCH   6  13
HETATM   13  C   UNL     1      -9.913   6.280  69.823  1.00  0.00    -0.204 A  
HETATM   14  N   UNL     1      -9.073   4.423  68.809  1.00  0.00    -0.115 NA 
HETATM   15  C   UNL     1     -10.156   4.977  69.345  1.00  0.00    -0.218 A  
HETATM   16  C   UNL     1      -8.583   6.507  69.529  1.00  0.00    -0.134 A  
HETATM   17  N   UNL     1      -8.117   5.358  68.946  1.00  0.00    -0.093 NA 
BRANCH  17  18
HETATM   18  C   UNL     1      -6.746   5.079  68.521  1.00  0.00    -0.050 C  
HETATM   19  C   UNL     1      -6.685   4.127  67.319  1.00  0.00    -0.047 C  
HETATM   20  C   UNL     1      -7.017   4.828  66.001  1.00  0.00    -0.066 C  
HETATM   21  N   UNL     1      -6.186   6.014  65.789  1.00  0.00    -0.036 NA 
HETATM   22  C   UNL     1      -6.309   6.976  66.886  1.00  0.00    -0.052 C  
HETATM   23  H   UNL     1      -6.388   6.451  64.891  1.00  0.00     0.000 HD 
HETATM   24  C   UNL     1      -5.944   6.354  68.233  1.00  0.00    -0.017 C  
ENDBRANCH  17  18
ENDBRANCH   6  13
ENDBRANCH   3   4
ENDBRANCH   2   3
BRANCH   2  25
HETATM   25  C   UNL     1     -12.020  13.009  70.054  1.00  0.00    -0.383 A  
HETATM   26 CL   UNL     1     -13.761  13.115  72.213  1.00  0.00    -0.662 Cl 
HETATM   27  C   UNL     1     -11.102  13.689  69.214  1.00  0.00    -0.193 A  
HETATM   28 CL   UNL     1     -10.143  12.875  68.020  1.00  0.00    -0.228 Cl 
HETATM   29  F   UNL     1     -13.143  15.914  72.002  1.00  0.00    -0.466 F  
HETATM   30  C   UNL     1     -10.894  15.072  69.315  1.00  0.00    -0.263 A  
HETATM   31  C   UNL     1     -11.596  15.817  70.252  1.00  0.00    -0.377 A  
HETATM   32  C   UNL     1     -12.693  13.784  71.024  1.00  0.00    -0.343 A  
HETATM   33  C   UNL     1     -12.486  15.171  71.097  1.00  0.00    -0.352 A  
ENDBRANCH   2  25
TORSDOF 5
ENDMDL
MODEL      193
REMARK 921   NORMALIZED FREE ENERGY PREDICTED BY IDOCK:   -4.99 KCAL/MOL
REMARK 922        TOTAL FREE ENERGY PREDICTED BY IDOCK:   -7.11 KCAL/MOL
REMARK 923 INTER-LIGAND FREE ENERGY PREDICTED BY IDOCK:   -6.32 KCAL/MOL
REMARK 924 INTRA-LIGAND FREE ENERGY PREDICTED BY IDOCK:   -0.80 KCAL/MOL
REMARK 927      BINDING AFFINITY PREDICTED BY RF-SCORE:    0.00 PKD
ROOT
HETATM    1  C   UNL     1     -11.547   6.258  71.839  1.00  0.00    -0.369 C  
HETATM    2  C   UNL     1     -10.667   5.968  70.622  1.00  0.00    -0.276 C  
ENDROOT
BRANCH   2   3
HETATM    3  O   UNL     1     -11.298   6.592  69.502  1.00  0.00    -0.362 OA 
BRANCH   3   4
HETATM    4  C   UNL     1     -10.602   6.825  68.351  1.00  0.00    -0.227 A  
HETATM    5  C   UNL     1      -9.404   7.569  66.020  1.00  0.00     0.001 A  
HETATM    6  C   UNL     1     -10.065   8.555  66.743  1.00  0.00    -0.369 A  
HETATM    7  H1  UNL     1      -9.400   3.873  67.176  1.00  0.00     0.000 HD 
HETATM    8  N   UNL     1      -9.322   6.269  66.389  1.00  0.00    -0.159 NA 
HETATM    9  C   UNL     1     -10.667   8.160  67.933  1.00  0.00    -0.138 A  
HETATM   10  C   UNL     1      -9.940   5.911  67.530  1.00  0.00    -0.143 A  
HETATM   11  H2  UNL     1     -10.844   4.215  67.874  1.00  0.00     0.000 HD 
HETATM   12  N   UNL     1      -9.883   4.541  67.776  1.00  0.00    -0.142 NA 
BRANCH   6  13
HETATM   13  C   UNL     1     -10.149   9.908  66.237  1.00  0.00    -0.311 A  
HETATM   14  N   UNL     1      -9.831  11.763  64.956  1.00  0.00    -0.246 NA 
HETATM   15  C   UNL     1      -9.542  10.474  65.098  1.00  0.00    -0.260 A  
HETATM   16  C   UNL     1     -10.860  10.952  66.797  1.00  0.00    -0.224 A  
HETATM   17  N   UNL     1     -10.618  12.047  66.008  1.00  0.00    -0.258 NA 
BRANCH  17  18
HETATM   18  C   UNL     1     -11.092  13.413  66.228  1.00  0.00    -0.293 C  
HETATM   19  C   UNL     1     -11.706  13.605  67.622  1.00  0.00    -0.398 C  
HETATM   20  C   UNL     1     -10.645  13.729  68.716  1.00  0.00    -0.239 C  
HETATM   21  N   UNL     1      -9.667  14.774  68.412  1.00  0.00    -0.208 NA 
HETATM   22  C   UNL     1      -9.003  14.551  67.126  1.00  0.00    -0.230 C  
HETATM   23  H   UNL     1      -8.987  14.875  69.165  1.00  0.00     0.000 HD 
HETATM   24  C   UNL     1     -10.003  14.464  65.976  1.00  0.00    -0.337 C  
ENDBRANCH  17  18
ENDBRANCH   6  13
ENDBRANCH   3   4
ENDBRANCH   2   3
BRANCH   2  25
HETATM   25  C   UNL     1      -9.241   6.469  70.857  1.00  0.00    -0.155 A  
HETATM   26 CL   UNL     1     -10.076   9.099  71.162  1.00  0.00    -0.364 Cl 
HETATM   27  C   UNL     1      -8.179   5.531  70.908  1.00  0.00    -0.118 A  
HETATM   28 CL   UNL     1      -8.429   3.823  70.738  1.00  0.00    -0.092 Cl 
HETATM   29  F   UNL     1      -7.243   9.496  71.443  1.00  0.00    -0.067 F  
HETATM   30  C   UNL     1      -6.852   5.928  71.125  1.00  0.00    -0.066 A  
HETATM   31  C   UNL     1      -6.545   7.270  71.293  1.00  0.00    -0.043 A  
HETATM   32  C   UNL     1      -8.905   7.825  71.070  1.00  0.00    -0.141 A  
HETATM   33  C   UNL     1      -7.568   8.206  71.266  1.00  0.00    -0.083 A  
ENDBRANCH   2  25
TORSDOF 5
ENDMDL
MODEL      194
REMARK 921   NORMALIZED FREE ENERGY PREDICTED BY IDOCK:   -4.96 KCAL/MOL
REMARK 922        TOTAL FREE ENERGY PREDICTED BY IDOCK:   -7.08 KCAL/MOL
REMARK 923 INTER-LIGAND FREE ENERGY PREDICTED BY IDOCK:   -5.91 KCAL/MOL
REMARK 924 INTRA-LIGAND FREE ENERGY PREDICTED BY IDOCK:   -1.17 KCAL/MOL
REMARK 927      BINDING AFFINITY PREDICTED BY RF-SCORE:    0.00 PKD
ROOT
HETATM    1  C   UNL     1     -11.450  14.679  66.799  1.00  0.00    -0.371 C  
HETATM    2  C   UNL     1     -10.682  13.873  67.848  1.00  0.00    -0.240 C  
ENDROOT
BRANCH   2   3
HETATM    3  O   UNL     1      -9.321  14.305  67.781  1.00  0.00    -0.189 OA 
BRANCH   3   4
HETATM    4  C   UNL     1      -8.316  13.519  68.266  1.00  0.00    -0.165 A  
HETATM    5  C   UNL     1      -6.546  11.716  69.285  1.00  0.00    -0.111 A  
HETATM    6  C   UNL     1      -7.744  11.223  68.779  1.00  0.00    -0.138 A  
HETATM    7  H1  UNL     1      -5.812  15.517  69.400  1.00  0.00     0.000 HD 
HETATM    8  N   UNL     1      -6.205  13.025  69.313  1.00  0.00    -0.098 NA 
HETATM    9  C   UNL     1      -8.634  12.155  68.259  1.00  0.00    -0.175 A  
HETATM   10  C   UNL     1      -7.099  13.908  68.829  1.00  0.00    -0.109 A  
HETATM   11  H2  UNL     1      -7.437  15.705  69.512  1.00  0.00     0.000 HD 
HETATM   12  N   UNL     1      -6.701  15.233  68.988  1.00  0.00    -0.114 NA 
BRANCH   6  13
HETATM   13  C   UNL     1      -8.046   9.809  68.847  1.00  0.00    -0.101 A  
HETATM   14  N   UNL     1      -9.142   7.820  68.682  1.00  0.00    -0.136 NA 
HETATM   15  C   UNL     1      -9.212   9.127  68.450  1.00  0.00    -0.132 A  
HETATM   16  C   UNL     1      -7.223   8.816  69.341  1.00  0.00    -0.061 A  
HETATM   17  N   UNL     1      -7.932   7.647  69.244  1.00  0.00    -0.124 NA 
BRANCH  17  18
HETATM   18  C   UNL     1      -7.516   6.322  69.704  1.00  0.00    -0.085 C  
HETATM   19  C   UNL     1      -8.251   5.189  68.976  1.00  0.00    -0.088 C  
HETATM   20  C   UNL     1      -7.701   4.943  67.570  1.00  0.00    -0.091 C  
HETATM   21  N   UNL     1      -6.253   4.724  67.582  1.00  0.00    -0.034 NA 
HETATM   22  C   UNL     1      -5.531   5.844  68.189  1.00  0.00    -0.004 C  
HETATM   23  H   UNL     1      -5.903   4.523  66.646  1.00  0.00     0.000 HD 
HETATM   24  C   UNL     1      -5.999   6.116  69.617  1.00  0.00    -0.025 C  
ENDBRANCH  17  18
ENDBRANCH   6  13
ENDBRANCH   3   4
ENDBRANCH   2   3
BRANCH   2  25
HETATM   25  C   UNL     1     -11.300  14.067  69.234  1.00  0.00    -0.318 A  
HETATM   26 CL   UNL     1     -10.632  16.761  69.300  1.00  0.00    -0.335 Cl 
HETATM   27  C   UNL     1     -11.964  12.977  69.852  1.00  0.00    -0.311 A  
HETATM   28 CL   UNL     1     -12.129  11.427  69.091  1.00  0.00    -0.371 Cl 
HETATM   29  F   UNL     1     -11.837  16.538  71.900  1.00  0.00    -0.512 F  
HETATM   30  C   UNL     1     -12.553  13.094  71.119  1.00  0.00    -0.403 A  
HETATM   31  C   UNL     1     -12.495  14.297  71.807  1.00  0.00    -0.396 A  
HETATM   32  C   UNL     1     -11.289  15.291  69.940  1.00  0.00    -0.289 A  
HETATM   33  C   UNL     1     -11.868  15.383  71.216  1.00  0.00    -0.380 A  
ENDBRANCH   2  25
TORSDOF 5
ENDMDL
MODEL      195
REMARK 921   NORMALIZED FREE ENERGY PREDICTED BY IDOCK:   -4.93 KCAL/MOL
REMARK 922        TOTAL FREE ENERGY PREDICTED BY IDOCK:   -7.05 KCAL/MOL
REMARK 923 INTER-LIGAND FREE ENERGY PREDICTED BY IDOCK:   -6.03 KCAL/MOL
REMARK 924 INTRA-LIGAND FREE ENERGY PREDICTED BY IDOCK:   -1.02 KCAL/MOL
REMARK 927      BINDING AFFINITY PREDICTED BY RF-SCORE:    0.00 PKD
ROOT
HETATM    1  C   UNL     1      -5.816  10.108  64.616  1.00  0.00    -0.124 C  
HETATM    2  C   UNL     1      -7.080   9.248  64.661  1.00  0.00    -0.096 C  
ENDROOT
BRANCH   2   3
HETATM    3  O   UNL     1      -6.852   8.234  65.641  1.00  0.00    -0.064 OA 
BRANCH   3   4
HETATM    4  C   UNL     1      -7.729   7.199  65.791  1.00  0.00    -0.099 A  
HETATM    5  C   UNL     1      -9.385   5.128  66.415  1.00  0.00    -0.146 A  
HETATM    6  C   UNL     1      -8.960   5.944  67.457  1.00  0.00    -0.107 A  
HETATM    7  H1  UNL     1      -8.140   5.665  62.788  1.00  0.00     0.000 HD 
HETATM    8  N   UNL     1      -9.028   5.287  65.119  1.00  0.00    -0.139 NA 
HETATM    9  C   UNL     1      -8.119   6.999  67.121  1.00  0.00    -0.118 A  
HETATM   10  C   UNL     1      -8.189   6.299  64.828  1.00  0.00    -0.100 A  
HETATM   11  H2  UNL     1      -6.785   6.286  63.472  1.00  0.00     0.000 HD 
HETATM   12  N   UNL     1      -7.804   6.323  63.491  1.00  0.00    -0.112 NA 
BRANCH   6  13
HETATM   13  C   UNL     1      -9.348   5.659  68.821  1.00  0.00    -0.145 A  
HETATM   14  N   UNL     1      -9.328   4.872  70.958  1.00  0.00    -0.146 NA 
HETATM   15  C   UNL     1      -8.647   4.954  69.819  1.00  0.00    -0.086 A  
HETATM   16  C   UNL     1     -10.529   6.029  69.434  1.00  0.00    -0.267 A  
HETATM   17  N   UNL     1     -10.481   5.513  70.703  1.00  0.00    -0.266 NA 
BRANCH  17  18
HETATM   18  C   UNL     1     -11.531   5.575  71.720  1.00  0.00     0.050 C  
HETATM   19  C   UNL     1     -11.022   5.184  73.114  1.00  0.00    -0.368 C  
HETATM   20  C   UNL     1     -10.223   6.305  73.781  1.00  0.00    -0.273 C  
HETATM   21  N   UNL     1     -10.972   7.563  73.815  1.00  0.00    -0.498 NA 
HETATM   22  C   UNL     1     -11.381   7.997  72.478  1.00  0.00    -0.406 C  
HETATM   23  H   UNL     1     -10.446   8.292  74.295  1.00  0.00     0.000 HD 
HETATM   24  C   UNL     1     -12.226   6.941  71.770  1.00  0.00    -0.396 C  
ENDBRANCH  17  18
ENDBRANCH   6  13
ENDBRANCH   3   4
ENDBRANCH   2   3
BRANCH   2  25
HETATM   25  C   UNL     1      -8.307  10.109  64.971  1.00  0.00    -0.158 A  
HETATM   26 CL   UNL     1      -7.359  10.785  67.491  1.00  0.00    -0.090 Cl 
HETATM   27  C   UNL     1      -9.296  10.287  63.969  1.00  0.00    -0.289 A  
HETATM   28 CL   UNL     1      -9.165   9.586  62.389  1.00  0.00    -0.262 Cl 
HETATM   29  F   UNL     1      -9.876  12.168  67.577  1.00  0.00    -0.184 F  
HETATM   30  C   UNL     1     -10.439  11.068  64.192  1.00  0.00    -0.434 A  
HETATM   31  C   UNL     1     -10.632  11.690  65.417  1.00  0.00    -0.331 A  
HETATM   32  C   UNL     1      -8.509  10.785  66.195  1.00  0.00    -0.167 A  
HETATM   33  C   UNL     1      -9.670  11.546  66.406  1.00  0.00    -0.207 A  
ENDBRANCH   2  25
TORSDOF 5
ENDMDL
MODEL      196
REMARK 921   NORMALIZED FREE ENERGY PREDICTED BY IDOCK:   -4.93 KCAL/MOL
REMARK 922        TOTAL FREE ENERGY PREDICTED BY IDOCK:   -7.04 KCAL/MOL
REMARK 923 INTER-LIGAND FREE ENERGY PREDICTED BY IDOCK:   -6.71 KCAL/MOL
REMARK 924 INTRA-LIGAND FREE ENERGY PREDICTED BY IDOCK:   -0.33 KCAL/MOL
REMARK 927      BINDING AFFINITY PREDICTED BY RF-SCORE:    0.00 PKD
ROOT
HETATM    1  C   UNL     1      -5.980  19.378  70.086  1.00  0.00    -0.282 C  
HETATM    2  C   UNL     1      -6.591  18.358  69.124  1.00  0.00    -0.268 C  
ENDROOT
BRANCH   2   3
HETATM    3  O   UNL     1      -8.009  18.449  69.276  1.00  0.00    -0.050 OA 
BRANCH   3   4
HETATM    4  C   UNL     1      -8.846  17.941  68.325  1.00  0.00    -0.275 A  
HETATM    5  C   UNL     1     -10.352  16.634  66.469  1.00  0.00    -0.299 A  
HETATM    6  C   UNL     1      -9.692  15.861  67.417  1.00  0.00    -0.227 A  
HETATM    7  H1  UNL     1      -9.941  20.483  66.356  1.00  0.00     0.000 HD 
HETATM    8  N   UNL     1     -10.292  17.984  66.401  1.00  0.00    -0.384 NA 
HETATM    9  C   UNL     1      -8.931  16.543  68.360  1.00  0.00    -0.219 A  
HETATM   10  C   UNL     1      -9.523  18.616  67.308  1.00  0.00    -0.298 A  
HETATM   11  H2  UNL     1      -8.458  20.224  67.006  1.00  0.00     0.000 HD 
HETATM   12  N   UNL     1      -9.447  19.990  67.099  1.00  0.00    -0.362 NA 
BRANCH   6  13
HETATM   13  C   UNL     1      -9.770  14.417  67.375  1.00  0.00    -0.220 A  
HETATM   14  N   UNL     1     -10.581  12.290  67.443  1.00  0.00    -0.219 NA 
HETATM   15  C   UNL     1     -10.894  13.580  67.521  1.00  0.00    -0.264 A  
HETATM   16  C   UNL     1      -8.718  13.542  67.184  1.00  0.00    -0.215 A  
HETATM   17  N   UNL     1      -9.249  12.281  67.258  1.00  0.00    -0.179 NA 
BRANCH  17  18
HETATM   18  C   UNL     1      -8.523  11.013  67.189  1.00  0.00    -0.137 C  
HETATM   19  C   UNL     1      -9.239   9.884  67.944  1.00  0.00    -0.138 C  
HETATM   20  C   UNL     1     -10.425   9.319  67.162  1.00  0.00    -0.249 C  
HETATM   21  N   UNL     1     -10.041   8.904  65.812  1.00  0.00    -0.348 NA 
HETATM   22  C   UNL     1      -9.443  10.000  65.047  1.00  0.00    -0.277 C  
HETATM   23  H   UNL     1     -10.830   8.493  65.314  1.00  0.00     0.000 HD 
HETATM   24  C   UNL     1      -8.219  10.583  65.749  1.00  0.00    -0.160 C  
ENDBRANCH  17  18
ENDBRANCH   6  13
ENDBRANCH   3   4
ENDBRANCH   2   3
BRANCH   2  25
HETATM   25  C   UNL     1      -6.128  18.626  67.690  1.00  0.00    -0.187 A  
HETATM   26 CL   UNL     1      -6.575  21.356  67.916  1.00  0.00    -0.163 Cl 
HETATM   27  C   UNL     1      -5.633  17.548  66.912  1.00  0.00    -0.158 A  
HETATM   28 CL   UNL     1      -5.507  15.930  67.526  1.00  0.00    -0.140 Cl 
HETATM   29  F   UNL     1      -5.710  21.272  65.177  1.00  0.00    -0.266 F  
HETATM   30  C   UNL     1      -5.191  17.731  65.595  1.00  0.00    -0.160 A  
HETATM   31  C   UNL     1      -5.231  18.990  65.014  1.00  0.00    -0.210 A  
HETATM   32  C   UNL     1      -6.122  19.904  67.088  1.00  0.00    -0.182 A  
HETATM   33  C   UNL     1      -5.693  20.063  65.760  1.00  0.00    -0.169 A  
ENDBRANCH   2  25
TORSDOF 5
ENDMDL
MODEL      197
REMARK 921   NORMALIZED FREE ENERGY PREDICTED BY IDOCK:   -4.92 KCAL/MOL
REMARK 922        TOTAL FREE ENERGY PREDICTED BY IDOCK:   -7.03 KCAL/MOL
REMARK 923 INTER-LIGAND FREE ENERGY PREDICTED BY IDOCK:   -6.77 KCAL/MOL
REMARK 924 INTRA-LIGAND FREE ENERGY PREDICTED BY IDOCK:   -0.25 KCAL/MOL
REMARK 927      BINDING AFFINITY PREDICTED BY RF-SCORE:    0.00 PKD
ROOT
HETATM    1  C   UNL     1     -10.696  12.821  68.275  1.00  0.00    -0.257 C  
HETATM    2  C   UNL     1      -9.661  13.474  67.357  1.00  0.00    -0.229 C  
ENDROOT
BRANCH   2   3
HETATM    3  O   UNL     1      -8.881  12.414  66.800  1.00  0.00    -0.207 OA 
BRANCH   3   4
HETATM    4  C   UNL     1      -7.998  11.718  67.572  1.00  0.00    -0.148 A  
HETATM    5  C   UNL     1      -6.505  10.187  69.260  1.00  0.00    -0.047 A  
HETATM    6  C   UNL     1      -7.808   9.776  69.007  1.00  0.00    -0.087 A  
HETATM    7  H1  UNL     1      -5.091  13.467  67.763  1.00  0.00     0.000 HD 
HETATM    8  N   UNL     1      -5.932  11.294  68.734  1.00  0.00    -0.043 NA 
HETATM    9  C   UNL     1      -8.555  10.566  68.140  1.00  0.00    -0.123 A  
HETATM   10  C   UNL     1      -6.689  12.056  67.921  1.00  0.00    -0.080 A  
HETATM   11  H2  UNL     1      -6.641  14.002  67.782  1.00  0.00     0.000 HD 
HETATM   12  N   UNL     1      -6.047  13.220  67.508  1.00  0.00    -0.295 NA 
BRANCH   6  13
HETATM   13  C   UNL     1      -8.353   8.607  69.664  1.00  0.00    -0.123 A  
HETATM   14  N   UNL     1      -8.969   6.459  70.096  1.00  0.00    -0.153 NA 
HETATM   15  C   UNL     1      -8.354   7.265  69.237  1.00  0.00    -0.132 A  
HETATM   16  C   UNL     1      -9.011   8.578  70.878  1.00  0.00    -0.172 A  
HETATM   17  N   UNL     1      -9.382   7.275  71.082  1.00  0.00    -0.156 NA 
BRANCH  17  18
HETATM   18  C   UNL     1     -10.168   6.747  72.197  1.00  0.00    -0.193 C  
HETATM   19  C   UNL     1     -10.705   7.854  73.114  1.00  0.00    -0.331 C  
HETATM   20  C   UNL     1     -11.917   8.570  72.517  1.00  0.00    -0.331 C  
HETATM   21  N   UNL     1     -12.972   7.631  72.134  1.00  0.00    -0.502 NA 
HETATM   22  C   UNL     1     -12.496   6.625  71.183  1.00  0.00    -0.198 C  
HETATM   23  H   UNL     1     -13.790   8.121  71.773  1.00  0.00     0.000 HD 
HETATM   24  C   UNL     1     -11.311   5.835  71.735  1.00  0.00    -0.240 C  
ENDBRANCH  17  18
ENDBRANCH   6  13
ENDBRANCH   3   4
ENDBRANCH   2   3
BRANCH   2  25
HETATM   25  C   UNL     1     -10.350  14.329  66.292  1.00  0.00    -0.297 A  
HETATM   26 CL   UNL     1      -9.216  16.673  67.254  1.00  0.00    -0.222 Cl 
HETATM   27  C   UNL     1     -11.135  13.693  65.296  1.00  0.00    -0.301 A  
HETATM   28 CL   UNL     1     -11.333  11.972  65.218  1.00  0.00    -0.378 Cl 
HETATM   29  F   UNL     1     -10.803  17.786  65.132  1.00  0.00    -0.394 F  
HETATM   30  C   UNL     1     -11.786  14.422  64.292  1.00  0.00    -0.385 A  
HETATM   31  C   UNL     1     -11.677  15.805  64.251  1.00  0.00    -0.162 A  
HETATM   32  C   UNL     1     -10.224  15.734  66.204  1.00  0.00    -0.315 A  
HETATM   33  C   UNL     1     -10.900  16.449  65.202  1.00  0.00    -0.275 A  
ENDBRANCH   2  25
TORSDOF 5
ENDMDL
MODEL      198
REMARK 921   NORMALIZED FREE ENERGY PREDICTED BY IDOCK:   -4.91 KCAL/MOL
REMARK 922        TOTAL FREE ENERGY PREDICTED BY IDOCK:   -7.02 KCAL/MOL
REMARK 923 INTER-LIGAND FREE ENERGY PREDICTED BY IDOCK:   -7.42 KCAL/MOL
REMARK 924 INTRA-LIGAND FREE ENERGY PREDICTED BY IDOCK:    0.40 KCAL/MOL
REMARK 927      BINDING AFFINITY PREDICTED BY RF-SCORE:    0.00 PKD
ROOT
HETATM    1  C   UNL     1     -10.242   9.402  66.089  1.00  0.00    -0.264 C  
HETATM    2  C   UNL     1     -10.596   9.997  67.453  1.00  0.00    -0.271 C  
ENDROOT
BRANCH   2   3
HETATM    3  O   UNL     1      -9.427   9.884  68.266  1.00  0.00    -0.138 OA 
BRANCH   3   4
HETATM    4  C   UNL     1      -8.282  10.549  67.936  1.00  0.00    -0.107 A  
HETATM    5  C   UNL     1      -6.180  12.161  67.297  1.00  0.00    -0.152 A  
HETATM    6  C   UNL     1      -7.251  12.741  67.966  1.00  0.00    -0.115 A  
HETATM    7  H1  UNL     1      -6.239   8.438  66.229  1.00  0.00     0.000 HD 
HETATM    8  N   UNL     1      -6.113  10.858  66.936  1.00  0.00    -0.069 NA 
HETATM    9  C   UNL     1      -8.314  11.905  68.289  1.00  0.00    -0.159 A  
HETATM   10  C   UNL     1      -7.170  10.078  67.236  1.00  0.00    -0.086 A  
HETATM   11  H2  UNL     1      -7.868   8.610  66.156  1.00  0.00     0.000 HD 
HETATM   12  N   UNL     1      -7.051   8.782  66.741  1.00  0.00    -0.080 NA 
BRANCH   6  13
HETATM   13  C   UNL     1      -7.257  14.158  68.258  1.00  0.00    -0.116 A  
HETATM   14  N   UNL     1      -7.097  16.140  69.368  1.00  0.00    -0.222 NA 
HETATM   15  C   UNL     1      -6.970  14.821  69.468  1.00  0.00    -0.176 A  
HETATM   16  C   UNL     1      -7.566  15.177  67.378  1.00  0.00    -0.203 A  
HETATM   17  N   UNL     1      -7.480  16.342  68.095  1.00  0.00    -0.146 NA 
BRANCH  17  18
HETATM   18  C   UNL     1      -7.786  17.692  67.623  1.00  0.00    -0.205 C  
HETATM   19  C   UNL     1      -8.492  17.692  66.260  1.00  0.00    -0.237 C  
HETATM   20  C   UNL     1      -9.973  17.327  66.369  1.00  0.00    -0.311 C  
HETATM   21  N   UNL     1     -10.674  18.173  67.337  1.00  0.00    -0.384 NA 
HETATM   22  C   UNL     1     -10.066  18.107  68.668  1.00  0.00    -0.392 C  
HETATM   23  H   UNL     1     -11.667  17.947  67.374  1.00  0.00     0.000 HD 
HETATM   24  C   UNL     1      -8.592  18.507  68.641  1.00  0.00    -0.323 C  
ENDBRANCH  17  18
ENDBRANCH   6  13
ENDBRANCH   3   4
ENDBRANCH   2   3
BRANCH   2  25
HETATM   25  C   UNL     1     -11.079  11.441  67.302  1.00  0.00    -0.363 A  
HETATM   26 CL   UNL     1     -10.725  11.410  64.549  1.00  0.00    -0.387 Cl 
HETATM   27  C   UNL     1     -11.542  12.137  68.448  1.00  0.00    -0.327 A  
HETATM   28 CL   UNL     1     -11.608  11.412  70.022  1.00  0.00    -0.388 Cl 
HETATM   29  F   UNL     1     -11.608  14.128  64.853  1.00  0.00    -0.326 F  
HETATM   30  C   UNL     1     -12.001  13.460  68.373  1.00  0.00    -0.359 A  
HETATM   31  C   UNL     1     -12.009  14.127  67.157  1.00  0.00    -0.460 A  
HETATM   32  C   UNL     1     -11.134  12.130  66.070  1.00  0.00    -0.313 A  
HETATM   33  C   UNL     1     -11.579  13.462  66.018  1.00  0.00    -0.344 A  
ENDBRANCH   2  25
TORSDOF 5
ENDMDL
MODEL      199
REMARK 921   NORMALIZED FREE ENERGY PREDICTED BY IDOCK:   -4.88 KCAL/MOL
REMARK 922        TOTAL FREE ENERGY PREDICTED BY IDOCK:   -6.98 KCAL/MOL
REMARK 923 INTER-LIGAND FREE ENERGY PREDICTED BY IDOCK:   -7.44 KCAL/MOL
REMARK 924 INTRA-LIGAND FREE ENERGY PREDICTED BY IDOCK:    0.46 KCAL/MOL
REMARK 927      BINDING AFFINITY PREDICTED BY RF-SCORE:    0.00 PKD
ROOT
HETATM    1  C   UNL     1      -8.093  11.047  65.644  1.00  0.00     0.004 C  
HETATM    2  C   UNL     1      -9.482  11.042  65.004  1.00  0.00    -0.233 C  
ENDROOT
BRANCH   2   3
HETATM    3  O   UNL     1     -10.001   9.720  65.159  1.00  0.00    -0.309 OA 
BRANCH   3   4
HETATM    4  C   UNL     1      -9.327   8.788  65.895  1.00  0.00    -0.218 A  
HETATM    5  C   UNL     1      -8.011   7.143  67.622  1.00  0.00    -0.114 A  
HETATM    6  C   UNL     1      -8.845   8.111  68.169  1.00  0.00    -0.132 A  
HETATM    7  H1  UNL     1      -7.442   6.891  63.800  1.00  0.00     0.000 HD 
HETATM    8  N   UNL     1      -7.803   6.968  66.296  1.00  0.00    -0.101 NA 
HETATM    9  C   UNL     1      -9.513   8.939  67.275  1.00  0.00    -0.195 A  
HETATM   10  C   UNL     1      -8.440   7.804  65.455  1.00  0.00    -0.110 A  
HETATM   11  H2  UNL     1      -7.744   8.503  63.770  1.00  0.00     0.000 HD 
HETATM   12  N   UNL     1      -8.090   7.610  64.121  1.00  0.00    -0.103 NA 
BRANCH   6  13
HETATM   13  C   UNL     1      -8.958   8.260  69.604  1.00  0.00    -0.149 A  
HETATM   14  N   UNL     1      -8.440   8.649  71.787  1.00  0.00    -0.243 NA 
HETATM   15  C   UNL     1      -7.976   8.638  70.541  1.00  0.00    -0.106 A  
HETATM   16  C   UNL     1     -10.090   8.045  70.366  1.00  0.00    -0.194 A  
HETATM   17  N   UNL     1      -9.723   8.266  71.668  1.00  0.00    -0.179 NA 
BRANCH  17  18
HETATM   18  C   UNL     1     -10.556   8.097  72.859  1.00  0.00    -0.257 C  
HETATM   19  C   UNL     1     -12.041   7.915  72.517  1.00  0.00    -0.298 C  
HETATM   20  C   UNL     1     -12.358   6.505  72.018  1.00  0.00    -0.260 C  
HETATM   21  N   UNL     1     -11.892   5.478  72.952  1.00  0.00    -0.529 NA 
HETATM   22  C   UNL     1     -10.455   5.581  73.213  1.00  0.00    -0.225 C  
HETATM   23  H   UNL     1     -12.142   4.544  72.629  1.00  0.00     0.000 HD 
HETATM   24  C   UNL     1     -10.072   6.954  73.761  1.00  0.00    -0.373 C  
ENDBRANCH  17  18
ENDBRANCH   6  13
ENDBRANCH   3   4
ENDBRANCH   2   3
BRANCH   2  25
HETATM   25  C   UNL     1     -10.372  12.109  65.644  1.00  0.00    -0.289 A  
HETATM   26 CL   UNL     1      -8.631  12.473  67.774  1.00  0.00    -0.166 Cl 
HETATM   27  C   UNL     1     -11.550  12.521  64.968  1.00  0.00    -0.349 A  
HETATM   28 CL   UNL     1     -12.017  11.881  63.425  1.00  0.00    -0.573 Cl 
HETATM   29  F   UNL     1     -10.692  14.313  68.565  1.00  0.00    -0.228 F  
HETATM   30  C   UNL     1     -12.403  13.498  65.501  1.00  0.00    -0.524 A  
HETATM   31  C   UNL     1     -12.111  14.089  66.721  1.00  0.00    -0.480 A  
HETATM   32  C   UNL     1     -10.078  12.755  66.865  1.00  0.00    -0.232 A  
HETATM   33  C   UNL     1     -10.956  13.717  67.392  1.00  0.00    -0.276 A  
ENDBRANCH   2  25
TORSDOF 5
ENDMDL
MODEL      200
REMARK 921   NORMALIZED FREE ENERGY PREDICTED BY IDOCK:   -4.85 KCAL/MOL
REMARK 922        TOTAL FREE ENERGY PREDICTED BY IDOCK:   -6.94 KCAL/MOL
REMARK 923 INTER-LIGAND FREE ENERGY PREDICTED BY IDOCK:   -6.15 KCAL/MOL
REMARK 924 INTRA-LIGAND FREE ENERGY PREDICTED BY IDOCK:   -0.79 KCAL/MOL
REMARK 927      BINDING AFFINITY PREDICTED BY RF-SCORE:    0.00 PKD
ROOT
HETATM    1  C   UNL     1      -9.686   6.920  71.052  1.00  0.00    -0.178 C  
HETATM    2  C   UNL     1     -10.271   8.050  70.204  1.00  0.00    -0.203 C  
ENDROOT
BRANCH   2   3
HETATM    3  O   UNL     1     -10.205   9.236  70.999  1.00  0.00    -0.271 OA 
BRANCH   3   4
HETATM    4  C   UNL     1     -11.272  10.083  71.077  1.00  0.00    -0.314 A  
HETATM    5  C   UNL     1     -13.186  12.021  71.150  1.00  0.00     0.139 A  
HETATM    6  C   UNL     1     -12.037  12.283  70.413  1.00  0.00    -0.385 A  
HETATM    7  H1  UNL     1     -13.591   8.737  73.163  1.00  0.00     0.000 HD 
HETATM    8  N   UNL     1     -13.414  10.877  71.837  1.00  0.00    -0.293 NA 
HETATM    9  C   UNL     1     -11.072  11.283  70.382  1.00  0.00     0.278 A  
HETATM   10  C   UNL     1     -12.449   9.939  71.813  1.00  0.00    -0.397 A  
HETATM   11  H2  UNL     1     -11.956   8.748  73.279  1.00  0.00     0.000 HD 
HETATM   12  N   UNL     1     -12.732   8.843  72.624  1.00  0.00    -0.314 NA 
BRANCH   6  13
HETATM   13  C   UNL     1     -11.857  13.561  69.759  1.00  0.00    -0.395 A  
HETATM   14  N   UNL     1     -12.083  15.757  69.200  1.00  0.00    -0.294 NA 
HETATM   15  C   UNL     1     -12.486  14.794  70.023  1.00  0.00    -0.281 A  
HETATM   16  C   UNL     1     -11.009  13.832  68.703  1.00  0.00    -0.266 A  
HETATM   17  N   UNL     1     -11.198  15.152  68.388  1.00  0.00    -0.284 NA 
BRANCH  17  18
HETATM   18  C   UNL     1     -10.578  15.894  67.290  1.00  0.00    -0.314 C  
HETATM   19  C   UNL     1      -9.137  15.443  67.016  1.00  0.00    -0.247 C  
HETATM   20  C   UNL     1      -9.074  14.124  66.244  1.00  0.00    -0.040 C  
HETATM   21  N   UNL     1      -9.864  14.174  65.013  1.00  0.00    -0.566 NA 
HETATM   22  C   UNL     1     -11.266  14.510  65.271  1.00  0.00    -0.352 C  
HETATM   23  H   UNL     1      -9.784  13.304  64.488  1.00  0.00     0.000 HD 
HETATM   24  C   UNL     1     -11.407  15.844  66.000  1.00  0.00     0.212 C  
ENDBRANCH  17  18
ENDBRANCH   6  13
ENDBRANCH   3   4
ENDBRANCH   2   3
BRANCH   2  25
HETATM   25  C   UNL     1      -9.512   8.179  68.881  1.00  0.00    -0.151 A  
HETATM   26 CL   UNL     1      -7.731  10.031  69.931  1.00  0.00    -0.171 Cl 
HETATM   27  C   UNL     1      -9.891   7.361  67.786  1.00  0.00    -0.152 A  
HETATM   28 CL   UNL     1     -11.172   6.196  67.886  1.00  0.00    -0.305 Cl 
HETATM   29  F   UNL     1      -6.750   9.952  67.231  1.00  0.00    -0.070 F  
HETATM   30  C   UNL     1      -9.232   7.430  66.550  1.00  0.00    -0.206 A  
HETATM   31  C   UNL     1      -8.180   8.316  66.369  1.00  0.00    -0.107 A  
HETATM   32  C   UNL     1      -8.413   9.044  68.681  1.00  0.00    -0.128 A  
HETATM   33  C   UNL     1      -7.778   9.113  67.431  1.00  0.00    -0.092 A  
ENDBRANCH   2  25
TORSDOF 5
ENDMDL
MODEL      201
REMARK 921   NORMALIZED FREE ENERGY PREDICTED BY IDOCK:   -4.81 KCAL/MOL
REMARK 922        TOTAL FREE ENERGY PREDICTED BY IDOCK:   -6.88 KCAL/MOL
REMARK 923 INTER-LIGAND FREE ENERGY PREDICTED BY IDOCK:   -5.96 KCAL/MOL
REMARK 924 INTRA-LIGAND FREE ENERGY PREDICTED BY IDOCK:   -0.92 KCAL/MOL
REMARK 927      BINDING AFFINITY PREDICTED BY RF-SCORE:    0.00 PKD
ROOT
HETATM    1  C   UNL     1     -12.029  14.265  67.597  1.00  0.00    -0.400 C  
HETATM    2  C   UNL     1     -11.516  13.382  68.736  1.00  0.00    -0.305 C  
ENDROOT
BRANCH   2   3
HETATM    3  O   UNL     1     -10.095  13.315  68.595  1.00  0.00    -0.221 OA 
BRANCH   3   4
HETATM    4  C   UNL     1      -9.505  12.255  67.971  1.00  0.00    -0.206 A  
HETATM    5  C   UNL     1      -8.240  10.031  67.034  1.00  0.00    -0.117 A  
HETATM    6  C   UNL     1      -8.661  10.018  68.359  1.00  0.00    -0.117 A  
HETATM    7  H1  UNL     1      -8.692  13.162  64.800  1.00  0.00     0.000 HD 
HETATM    8  N   UNL     1      -8.408  11.071  66.184  1.00  0.00    -0.169 NA 
HETATM    9  C   UNL     1      -9.309  11.158  68.820  1.00  0.00    -0.156 A  
HETATM   10  C   UNL     1      -9.012  12.173  66.667  1.00  0.00    -0.198 A  
HETATM   11  H2  UNL     1      -8.601  14.022  66.193  1.00  0.00     0.000 HD 
HETATM   12  N   UNL     1      -9.053  13.221  65.752  1.00  0.00     0.320 NA 
BRANCH   6  13
HETATM   13  C   UNL     1      -8.384   8.880  69.208  1.00  0.00    -0.119 A  
HETATM   14  N   UNL     1      -7.918   6.764  69.907  1.00  0.00    -0.118 NA 
HETATM   15  C   UNL     1      -8.103   7.547  68.849  1.00  0.00    -0.127 A  
HETATM   16  C   UNL     1      -8.348   8.875  70.589  1.00  0.00    -0.166 A  
HETATM   17  N   UNL     1      -8.090   7.581  70.961  1.00  0.00    -0.099 NA 
BRANCH  17  18
HETATM   18  C   UNL     1      -8.025   7.052  72.323  1.00  0.00    -0.092 C  
HETATM   19  C   UNL     1      -7.027   5.893  72.457  1.00  0.00    -0.079 C  
HETATM   20  C   UNL     1      -5.577   6.375  72.508  1.00  0.00    -0.037 C  
HETATM   21  N   UNL     1      -5.373   7.383  73.550  1.00  0.00    -0.045 NA 
HETATM   22  C   UNL     1      -6.254   8.540  73.378  1.00  0.00    -0.105 C  
HETATM   23  H   UNL     1      -4.395   7.669  73.601  1.00  0.00     0.000 HD 
HETATM   24  C   UNL     1      -7.727   8.136  73.365  1.00  0.00    -0.212 C  
ENDBRANCH  17  18
ENDBRANCH   6  13
ENDBRANCH   3   4
ENDBRANCH   2   3
BRANCH   2  25
HETATM   25  C   UNL     1     -11.954  13.942  70.091  1.00  0.00    -0.402 A  
HETATM   26 CL   UNL     1     -10.950  16.466  69.519  1.00  0.00    -0.323 Cl 
HETATM   27  C   UNL     1     -12.680  13.109  70.980  1.00  0.00    -0.277 A  
HETATM   28 CL   UNL     1     -13.118  11.477  70.588  1.00  0.00     0.000 Cl 
HETATM   29  F   UNL     1     -11.890  16.956  72.191  1.00  0.00    -0.471 F  
HETATM   30  C   UNL     1     -13.112  13.566  72.233  1.00  0.00    -0.488 A  
HETATM   31  C   UNL     1     -12.831  14.862  72.637  1.00  0.00    -0.483 A  
HETATM   32  C   UNL     1     -11.715  15.269  70.511  1.00  0.00    -0.318 A  
HETATM   33  C   UNL     1     -12.138  15.703  71.778  1.00  0.00    -0.431 A  
ENDBRANCH   2  25
TORSDOF 5
ENDMDL
MODEL      202
REMARK 921   NORMALIZED FREE ENERGY PREDICTED BY IDOCK:   -4.79 KCAL/MOL
REMARK 922        TOTAL FREE ENERGY PREDICTED BY IDOCK:   -6.85 KCAL/MOL
REMARK 923 INTER-LIGAND FREE ENERGY PREDICTED BY IDOCK:   -7.16 KCAL/MOL
REMARK 924 INTRA-LIGAND FREE ENERGY PREDICTED BY IDOCK:    0.31 KCAL/MOL
REMARK 927      BINDING AFFINITY PREDICTED BY RF-SCORE:    0.00 PKD
ROOT
HETATM    1  C   UNL     1     -10.549  12.581  68.293  1.00  0.00    -0.245 C  
HETATM    2  C   UNL     1      -9.666  12.640  67.046  1.00  0.00    -0.225 C  
ENDROOT
BRANCH   2   3
HETATM    3  O   UNL     1      -8.866  11.456  67.054  1.00  0.00    -0.158 OA 
BRANCH   3   4
HETATM    4  C   UNL     1      -8.134  11.116  68.154  1.00  0.00    -0.128 A  
HETATM    5  C   UNL     1      -6.966  10.337  70.489  1.00  0.00     0.017 A  
HETATM    6  C   UNL     1      -8.206   9.790  70.180  1.00  0.00    -0.202 A  
HETATM    7  H1  UNL     1      -5.302  12.991  68.212  1.00  0.00     0.000 HD 
HETATM    8  N   UNL     1      -6.306  11.232  69.717  1.00  0.00    -0.123 NA 
HETATM    9  C   UNL     1      -8.786  10.194  68.983  1.00  0.00    -0.166 A  
HETATM   10  C   UNL     1      -6.906  11.627  68.578  1.00  0.00    -0.073 A  
HETATM   11  H2  UNL     1      -6.829  13.410  67.788  1.00  0.00     0.000 HD 
HETATM   12  N   UNL     1      -6.199  12.617  67.902  1.00  0.00    -0.093 NA 
BRANCH   6  13
HETATM   13  C   UNL     1      -8.861   8.884  71.099  1.00  0.00    -0.297 A  
HETATM   14  N   UNL     1     -10.450   7.880  72.384  1.00  0.00    -0.252 NA 
HETATM   15  C   UNL     1     -10.210   8.847  71.504  1.00  0.00    -0.328 A  
HETATM   16  C   UNL     1      -8.270   7.845  71.790  1.00  0.00    -0.117 A  
HETATM   17  N   UNL     1      -9.256   7.290  72.564  1.00  0.00    -0.137 NA 
BRANCH  17  18
HETATM   18  C   UNL     1      -9.109   6.202  73.531  1.00  0.00    -0.127 C  
HETATM   19  C   UNL     1     -10.461   5.648  74.001  1.00  0.00    -0.297 C  
HETATM   20  C   UNL     1     -11.107   4.726  72.966  1.00  0.00    -0.274 C  
HETATM   21  N   UNL     1     -10.201   3.653  72.551  1.00  0.00    -0.170 NA 
HETATM   22  C   UNL     1      -8.944   4.172  72.010  1.00  0.00    -0.119 C  
HETATM   23  H   UNL     1     -10.655   3.022  71.890  1.00  0.00     0.000 HD 
HETATM   24  C   UNL     1      -8.219   5.067  73.013  1.00  0.00    -0.105 C  
ENDBRANCH  17  18
ENDBRANCH   6  13
ENDBRANCH   3   4
ENDBRANCH   2   3
BRANCH   2  25
HETATM   25  C   UNL     1     -10.523  12.770  65.785  1.00  0.00    -0.294 A  
HETATM   26 CL   UNL     1     -11.057  15.451  66.268  1.00  0.00    -0.278 Cl 
HETATM   27  C   UNL     1     -10.644  11.657  64.915  1.00  0.00    -0.296 A  
HETATM   28 CL   UNL     1      -9.839  10.149  65.205  1.00  0.00    -0.367 Cl 
HETATM   29  F   UNL     1     -12.612  15.112  63.875  1.00  0.00    -0.432 F  
HETATM   30  C   UNL     1     -11.411  11.717  63.743  1.00  0.00    -0.524 A  
HETATM   31  C   UNL     1     -12.081  12.884  63.406  1.00  0.00    -0.610 A  
HETATM   32  C   UNL     1     -11.183  13.958  65.399  1.00  0.00    -0.306 A  
HETATM   33  C   UNL     1     -11.963  13.992  64.231  1.00  0.00    -0.435 A  
ENDBRANCH   2  25
TORSDOF 5
ENDMDL
MODEL      203
REMARK 921   NORMALIZED FREE ENERGY PREDICTED BY IDOCK:   -4.78 KCAL/MOL
REMARK 922        TOTAL FREE ENERGY PREDICTED BY IDOCK:   -6.85 KCAL/MOL
REMARK 923 INTER-LIGAND FREE ENERGY PREDICTED BY IDOCK:   -6.17 KCAL/MOL
REMARK 924 INTRA-LIGAND FREE ENERGY PREDICTED BY IDOCK:   -0.68 KCAL/MOL
REMARK 927      BINDING AFFINITY PREDICTED BY RF-SCORE:    0.00 PKD
ROOT
HETATM    1  C   UNL     1      -9.283   4.505  69.508  1.00  0.00    -0.192 C  
HETATM    2  C   UNL     1      -9.130   5.204  68.156  1.00  0.00    -0.112 C  
ENDROOT
BRANCH   2   3
HETATM    3  O   UNL     1      -8.124   6.204  68.322  1.00  0.00    -0.109 OA 
BRANCH   3   4
HETATM    4  C   UNL     1      -8.388   7.351  69.014  1.00  0.00    -0.126 A  
HETATM    5  C   UNL     1      -8.988   9.779  70.094  1.00  0.00    -0.195 A  
HETATM    6  C   UNL     1      -9.510   9.490  68.839  1.00  0.00    -0.155 A  
HETATM    7  H1  UNL     1      -6.633   7.307  71.922  1.00  0.00     0.000 HD 
HETATM    8  N   UNL     1      -8.198   8.944  70.809  1.00  0.00    -0.153 NA 
HETATM    9  C   UNL     1      -9.199   8.245  68.304  1.00  0.00    -0.135 A  
HETATM   10  C   UNL     1      -7.889   7.757  70.253  1.00  0.00    -0.091 A  
HETATM   11  H2  UNL     1      -6.194   6.805  70.424  1.00  0.00     0.000 HD 
HETATM   12  N   UNL     1      -6.998   7.010  71.017  1.00  0.00    -0.064 NA 
BRANCH   6  13
HETATM   13  C   UNL     1     -10.297  10.472  68.125  1.00  0.00    -0.201 A  
HETATM   14  N   UNL     1     -12.031  11.794  67.469  1.00  0.00    -0.607 NA 
HETATM   15  C   UNL     1     -11.630  10.875  68.341  1.00  0.00    -0.276 A  
HETATM   16  C   UNL     1      -9.885  11.229  67.045  1.00  0.00    -0.191 A  
HETATM   17  N   UNL     1     -10.965  11.986  66.673  1.00  0.00    -0.272 NA 
BRANCH  17  18
HETATM   18  C   UNL     1     -11.050  12.900  65.534  1.00  0.00    -0.278 C  
HETATM   19  C   UNL     1     -10.065  12.535  64.414  1.00  0.00    -0.284 C  
HETATM   20  C   UNL     1     -10.543  11.348  63.578  1.00  0.00    -0.402 C  
HETATM   21  N   UNL     1     -11.895  11.556  63.058  1.00  0.00    -0.897 NA 
HETATM   22  C   UNL     1     -12.864  11.810  64.126  1.00  0.00     0.037 C  
HETATM   23  H   UNL     1     -12.190  10.776  62.470  1.00  0.00     0.000 HD 
HETATM   24  C   UNL     1     -12.473  13.017  64.975  1.00  0.00    -0.534 C  
ENDBRANCH  17  18
ENDBRANCH   6  13
ENDBRANCH   3   4
ENDBRANCH   2   3
BRANCH   2  25
HETATM   25  C   UNL     1      -8.787   4.191  67.062  1.00  0.00    -0.125 A  
HETATM   26 CL   UNL     1     -11.113   4.733  65.647  1.00  0.00    -0.085 Cl 
HETATM   27  C   UNL     1      -7.546   3.505  67.121  1.00  0.00    -0.079 A  
HETATM   28 CL   UNL     1      -6.381   3.784  68.375  1.00  0.00    -0.035 Cl 
HETATM   29  F   UNL     1     -10.035   2.673  63.958  1.00  0.00    -0.139 F  
HETATM   30  C   UNL     1      -7.173   2.569  66.146  1.00  0.00    -0.065 A  
HETATM   31  C   UNL     1      -8.025   2.287  65.088  1.00  0.00    -0.078 A  
HETATM   32  C   UNL     1      -9.618   3.913  65.954  1.00  0.00    -0.181 A  
HETATM   33  C   UNL     1      -9.236   2.957  64.998  1.00  0.00    -0.148 A  
ENDBRANCH   2  25
TORSDOF 5
ENDMDL
MODEL      204
REMARK 921   NORMALIZED FREE ENERGY PREDICTED BY IDOCK:   -4.77 KCAL/MOL
REMARK 922        TOTAL FREE ENERGY PREDICTED BY IDOCK:   -6.84 KCAL/MOL
REMARK 923 INTER-LIGAND FREE ENERGY PREDICTED BY IDOCK:   -6.82 KCAL/MOL
REMARK 924 INTRA-LIGAND FREE ENERGY PREDICTED BY IDOCK:   -0.02 KCAL/MOL
REMARK 927      BINDING AFFINITY PREDICTED BY RF-SCORE:    0.00 PKD
ROOT
HETATM    1  C   UNL     1     -10.855   4.597  73.878  1.00  0.00    -0.359 C  
HETATM    2  C   UNL     1     -11.215   5.873  73.116  1.00  0.00    -0.174 C  
ENDROOT
BRANCH   2   3
HETATM    3  O   UNL     1     -10.491   6.938  73.736  1.00  0.00    -0.342 OA 
BRANCH   3   4
HETATM    4  C   UNL     1      -9.319   7.389  73.200  1.00  0.00    -0.188 A  
HETATM    5  C   UNL     1      -7.161   8.369  71.858  1.00  0.00    -0.092 A  
HETATM    6  C   UNL     1      -8.418   8.798  71.449  1.00  0.00    -0.245 A  
HETATM    7  H1  UNL     1      -6.736   5.756  74.684  1.00  0.00     0.000 HD 
HETATM    8  N   UNL     1      -6.937   7.496  72.868  1.00  0.00    -0.065 NA 
HETATM    9  C   UNL     1      -9.509   8.292  72.147  1.00  0.00    -0.328 A  
HETATM   10  C   UNL     1      -8.013   7.000  73.506  1.00  0.00    -0.106 A  
HETATM   11  H2  UNL     1      -8.205   5.194  74.222  1.00  0.00     0.000 HD 
HETATM   12  N   UNL     1      -7.690   6.040  74.461  1.00  0.00    -0.096 NA 
BRANCH   6  13
HETATM   13  C   UNL     1      -8.560   9.689  70.318  1.00  0.00    -0.234 A  
HETATM   14  N   UNL     1      -8.073  11.129  68.623  1.00  0.00    -0.145 NA 
HETATM   15  C   UNL     1      -7.566  10.378  69.595  1.00  0.00    -0.153 A  
HETATM   16  C   UNL     1      -9.743  10.061  69.708  1.00  0.00    -0.226 A  
HETATM   17  N   UNL     1      -9.401  10.943  68.716  1.00  0.00    -0.186 NA 
BRANCH  17  18
HETATM   18  C   UNL     1     -10.312  11.672  67.833  1.00  0.00    -0.188 C  
HETATM   19  C   UNL     1     -11.735  11.763  68.403  1.00  0.00    -0.389 C  
HETATM   20  C   UNL     1     -11.857  12.818  69.503  1.00  0.00    -0.316 C  
HETATM   21  N   UNL     1     -11.370  14.125  69.063  1.00  0.00    -0.259 NA 
HETATM   22  C   UNL     1      -9.980  14.071  68.606  1.00  0.00    -0.203 C  
HETATM   23  H   UNL     1     -11.491  14.829  69.790  1.00  0.00     0.000 HD 
HETATM   24  C   UNL     1      -9.793  13.068  67.470  1.00  0.00    -0.209 C  
ENDBRANCH  17  18
ENDBRANCH   6  13
ENDBRANCH   3   4
ENDBRANCH   2   3
BRANCH   2  25
HETATM   25  C   UNL     1     -10.891   5.721  71.628  1.00  0.00    -0.316 A  
HETATM   26 CL   UNL     1      -9.009   3.738  72.106  1.00  0.00    -0.134 Cl 
HETATM   27  C   UNL     1     -11.626   6.480  70.682  1.00  0.00    -0.381 A  
HETATM   28 CL   UNL     1     -12.900   7.565  71.136  1.00  0.00    -0.304 Cl 
HETATM   29  F   UNL     1      -8.735   3.933  69.252  1.00  0.00    -0.088 F  
HETATM   30  C   UNL     1     -11.379   6.381  69.305  1.00  0.00    -0.405 A  
HETATM   31  C   UNL     1     -10.393   5.527  68.833  1.00  0.00    -0.289 A  
HETATM   32  C   UNL     1      -9.920   4.830  71.118  1.00  0.00    -0.202 A  
HETATM   33  C   UNL     1      -9.674   4.760  69.737  1.00  0.00    -0.202 A  
ENDBRANCH   2  25
TORSDOF 5
ENDMDL
MODEL      205
REMARK 921   NORMALIZED FREE ENERGY PREDICTED BY IDOCK:   -4.77 KCAL/MOL
REMARK 922        TOTAL FREE ENERGY PREDICTED BY IDOCK:   -6.83 KCAL/MOL
REMARK 923 INTER-LIGAND FREE ENERGY PREDICTED BY IDOCK:   -7.58 KCAL/MOL
REMARK 924 INTRA-LIGAND FREE ENERGY PREDICTED BY IDOCK:    0.75 KCAL/MOL
REMARK 927      BINDING AFFINITY PREDICTED BY RF-SCORE:    0.00 PKD
ROOT
HETATM    1  C   UNL     1      -9.219   8.898  71.273  1.00  0.00    -0.328 C  
HETATM    2  C   UNL     1      -9.668   8.062  70.074  1.00  0.00    -0.173 C  
ENDROOT
BRANCH   2   3
HETATM    3  O   UNL     1     -11.090   8.178  70.002  1.00  0.00    -0.233 OA 
BRANCH   3   4
HETATM    4  C   UNL     1     -11.712   9.346  70.334  1.00  0.00    -0.144 A  
HETATM    5  C   UNL     1     -12.733  11.831  70.791  1.00  0.00    -0.167 A  
HETATM    6  C   UNL     1     -12.002  11.644  69.623  1.00  0.00    -0.390 A  
HETATM    7  H1  UNL     1     -13.168   8.986  73.382  1.00  0.00     0.000 HD 
HETATM    8  N   UNL     1     -12.965  10.870  71.715  1.00  0.00    -0.473 NA 
HETATM    9  C   UNL     1     -11.492  10.369  69.403  1.00  0.00    -0.292 A  
HETATM   10  C   UNL     1     -12.433   9.654  71.490  1.00  0.00    -0.386 A  
HETATM   11  H2  UNL     1     -11.725   8.431  72.837  1.00  0.00     0.000 HD 
HETATM   12  N   UNL     1     -12.642   8.762  72.538  1.00  0.00    -0.366 NA 
BRANCH   6  13
HETATM   13  C   UNL     1     -11.757  12.749  68.722  1.00  0.00    -0.363 A  
HETATM   14  N   UNL     1     -11.450  13.963  66.821  1.00  0.00    -0.336 NA 
HETATM   15  C   UNL     1     -11.728  12.761  67.313  1.00  0.00    -0.378 A  
HETATM   16  C   UNL     1     -11.485  14.055  69.078  1.00  0.00    -0.296 A  
HETATM   17  N   UNL     1     -11.284  14.738  67.907  1.00  0.00    -0.293 NA 
BRANCH  17  18
HETATM   18  C   UNL     1     -10.897  16.141  67.760  1.00  0.00    -0.318 C  
HETATM   19  C   UNL     1      -9.858  16.576  68.803  1.00  0.00    -0.254 C  
HETATM   20  C   UNL     1      -8.449  16.086  68.464  1.00  0.00    -0.189 C  
HETATM   21  N   UNL     1      -8.047  16.474  67.112  1.00  0.00    -0.170 NA 
HETATM   22  C   UNL     1      -8.981  15.982  66.097  1.00  0.00    -0.345 C  
HETATM   23  H   UNL     1      -7.093  16.176  66.910  1.00  0.00     0.000 HD 
HETATM   24  C   UNL     1     -10.405  16.474  66.346  1.00  0.00    -0.316 C  
ENDBRANCH  17  18
ENDBRANCH   6  13
ENDBRANCH   3   4
ENDBRANCH   2   3
BRANCH   2  25
HETATM   25  C   UNL     1      -8.968   8.531  68.797  1.00  0.00    -0.139 A  
HETATM   26 CL   UNL     1     -10.716   7.124  67.164  1.00  0.00    -0.410 Cl 
HETATM   27  C   UNL     1      -7.890   9.447  68.898  1.00  0.00    -0.083 A  
HETATM   28 CL   UNL     1      -7.339  10.083  70.415  1.00  0.00    -0.149 Cl 
HETATM   29  F   UNL     1      -8.996   8.215  65.137  1.00  0.00    -0.148 F  
HETATM   30  C   UNL     1      -7.212   9.917  67.765  1.00  0.00    -0.088 A  
HETATM   31  C   UNL     1      -7.585   9.487  66.500  1.00  0.00    -0.094 A  
HETATM   32  C   UNL     1      -9.353   8.139  67.495  1.00  0.00    -0.140 A  
HETATM   33  C   UNL     1      -8.648   8.606  66.373  1.00  0.00    -0.119 A  
ENDBRANCH   2  25
TORSDOF 5
ENDMDL
MODEL      206
REMARK 921   NORMALIZED FREE ENERGY PREDICTED BY IDOCK:   -4.73 KCAL/MOL
REMARK 922        TOTAL FREE ENERGY PREDICTED BY IDOCK:   -6.78 KCAL/MOL
REMARK 923 INTER-LIGAND FREE ENERGY PREDICTED BY IDOCK:   -6.55 KCAL/MOL
REMARK 924 INTRA-LIGAND FREE ENERGY PREDICTED BY IDOCK:   -0.23 KCAL/MOL
REMARK 927      BINDING AFFINITY PREDICTED BY RF-SCORE:    0.00 PKD
ROOT
HETATM    1  C   UNL     1      -8.336  11.028  66.435  1.00  0.00    -0.165 C  
HETATM    2  C   UNL     1      -9.679  10.879  65.720  1.00  0.00    -0.224 C  
ENDROOT
BRANCH   2   3
HETATM    3  O   UNL     1     -10.231   9.629  66.138  1.00  0.00    -0.266 OA 
BRANCH   3   4
HETATM    4  C   UNL     1      -9.439   8.526  66.268  1.00  0.00    -0.231 A  
HETATM    5  C   UNL     1      -7.835   6.404  66.855  1.00  0.00    -0.104 A  
HETATM    6  C   UNL     1      -8.541   6.982  67.903  1.00  0.00    -0.126 A  
HETATM    7  H1  UNL     1      -8.001   7.848  63.266  1.00  0.00     0.000 HD 
HETATM    8  N   UNL     1      -7.883   6.826  65.570  1.00  0.00    -0.105 NA 
HETATM    9  C   UNL     1      -9.359   8.061  67.586  1.00  0.00    -0.162 A  
HETATM   10  C   UNL     1      -8.660   7.892  65.298  1.00  0.00    -0.060 A  
HETATM   11  H2  UNL     1      -8.289   9.291  63.988  1.00  0.00     0.000 HD 
HETATM   12  N   UNL     1      -8.570   8.311  63.974  1.00  0.00     0.066 NA 
BRANCH   6  13
HETATM   13  C   UNL     1      -8.380   6.496  69.257  1.00  0.00    -0.123 A  
HETATM   14  N   UNL     1      -7.434   5.789  71.204  1.00  0.00    -0.089 NA 
HETATM   15  C   UNL     1      -7.196   6.256  69.982  1.00  0.00    -0.077 A  
HETATM   16  C   UNL     1      -9.390   6.153  70.133  1.00  0.00    -0.155 A  
HETATM   17  N   UNL     1      -8.774   5.712  71.276  1.00  0.00    -0.131 NA 
BRANCH  17  18
HETATM   18  C   UNL     1      -9.419   5.170  72.472  1.00  0.00    -0.145 C  
HETATM   19  C   UNL     1      -8.808   5.718  73.769  1.00  0.00    -0.127 C  
HETATM   20  C   UNL     1      -9.278   7.139  74.082  1.00  0.00    -0.238 C  
HETATM   21  N   UNL     1     -10.738   7.241  74.092  1.00  0.00    -0.511 NA 
HETATM   22  C   UNL     1     -11.330   6.811  72.823  1.00  0.00    -0.190 C  
HETATM   23  H   UNL     1     -11.042   8.182  74.340  1.00  0.00     0.000 HD 
HETATM   24  C   UNL     1     -10.938   5.377  72.470  1.00  0.00    -0.312 C  
ENDBRANCH  17  18
ENDBRANCH   6  13
ENDBRANCH   3   4
ENDBRANCH   2   3
BRANCH   2  25
HETATM   25  C   UNL     1     -10.591  12.067  66.035  1.00  0.00    -0.303 A  
HETATM   26 CL   UNL     1     -10.947  12.674  63.350  1.00  0.00    -0.412 Cl 
HETATM   27  C   UNL     1     -10.937  12.333  67.384  1.00  0.00    -0.253 A  
HETATM   28 CL   UNL     1     -10.386  11.350  68.703  1.00  0.00    -0.203 Cl 
HETATM   29  F   UNL     1     -12.492  14.809  64.497  1.00  0.00    -0.455 F  
HETATM   30  C   UNL     1     -11.771  13.403  67.736  1.00  0.00    -0.394 A  
HETATM   31  C   UNL     1     -12.282  14.240  66.755  1.00  0.00    -0.384 A  
HETATM   32  C   UNL     1     -11.156  12.911  65.053  1.00  0.00    -0.292 A  
HETATM   33  C   UNL     1     -11.974  13.990  65.426  1.00  0.00    -0.380 A  
ENDBRANCH   2  25
TORSDOF 5
ENDMDL
MODEL      207
REMARK 921   NORMALIZED FREE ENERGY PREDICTED BY IDOCK:   -4.70 KCAL/MOL
REMARK 922        TOTAL FREE ENERGY PREDICTED BY IDOCK:   -6.74 KCAL/MOL
REMARK 923 INTER-LIGAND FREE ENERGY PREDICTED BY IDOCK:   -6.30 KCAL/MOL
REMARK 924 INTRA-LIGAND FREE ENERGY PREDICTED BY IDOCK:   -0.44 KCAL/MOL
REMARK 927      BINDING AFFINITY PREDICTED BY RF-SCORE:    0.00 PKD
ROOT
HETATM    1  C   UNL     1      -6.847  11.633  66.485  1.00  0.00     0.043 C  
HETATM    2  C   UNL     1      -7.927  10.578  66.243  1.00  0.00    -0.144 C  
ENDROOT
BRANCH   2   3
HETATM    3  O   UNL     1      -7.845   9.650  67.327  1.00  0.00    -0.095 OA 
BRANCH   3   4
HETATM    4  C   UNL     1      -8.636   8.538  67.354  1.00  0.00    -0.127 A  
HETATM    5  C   UNL     1     -10.166   6.318  67.743  1.00  0.00    -0.170 A  
HETATM    6  C   UNL     1      -9.971   7.160  68.832  1.00  0.00    -0.163 A  
HETATM    7  H1  UNL     1      -8.471   7.000  64.329  1.00  0.00     0.000 HD 
HETATM    8  N   UNL     1      -9.644   6.520  66.511  1.00  0.00    -0.160 NA 
HETATM    9  C   UNL     1      -9.191   8.290  68.616  1.00  0.00    -0.143 A  
HETATM   10  C   UNL     1      -8.869   7.608  66.339  1.00  0.00    -0.156 A  
HETATM   11  H2  UNL     1      -7.290   7.736  65.198  1.00  0.00     0.000 HD 
HETATM   12  N   UNL     1      -8.301   7.680  65.070  1.00  0.00    -0.112 NA 
BRANCH   6  13
HETATM   13  C   UNL     1     -10.522   6.828  70.128  1.00  0.00    -0.240 A  
HETATM   14  N   UNL     1     -11.707   6.943  72.069  1.00  0.00    -0.288 NA 
HETATM   15  C   UNL     1     -11.441   7.549  70.916  1.00  0.00    -0.281 A  
HETATM   16  C   UNL     1     -10.239   5.704  70.879  1.00  0.00    -0.223 A  
HETATM   17  N   UNL     1     -10.953   5.830  72.042  1.00  0.00    -0.254 NA 
BRANCH  17  18
HETATM   18  C   UNL     1     -10.932   4.925  73.191  1.00  0.00    -0.306 C  
HETATM   19  C   UNL     1     -10.333   3.554  72.849  1.00  0.00    -0.246 C  
HETATM   20  C   UNL     1      -8.806   3.587  72.767  1.00  0.00    -0.089 C  
HETATM   21  N   UNL     1      -8.207   4.148  73.979  1.00  0.00    -0.094 NA 
HETATM   22  C   UNL     1      -8.699   5.497  74.264  1.00  0.00    -0.118 C  
HETATM   23  H   UNL     1      -7.188   4.129  73.929  1.00  0.00     0.000 HD 
HETATM   24  C   UNL     1     -10.219   5.530  74.407  1.00  0.00    -0.297 C  
ENDBRANCH  17  18
ENDBRANCH   6  13
ENDBRANCH   3   4
ENDBRANCH   2   3
BRANCH   2  25
HETATM   25  C   UNL     1      -9.304  11.234  66.125  1.00  0.00    -0.230 A  
HETATM   26 CL   UNL     1      -9.623  10.396  63.498  1.00  0.00    -0.352 Cl 
HETATM   27  C   UNL     1      -9.866  11.868  67.263  1.00  0.00    -0.187 A  
HETATM   28 CL   UNL     1      -9.067  11.912  68.801  1.00  0.00    -0.032 Cl 
HETATM   29  F   UNL     1     -12.074  11.868  63.796  1.00  0.00    -0.484 F  
HETATM   30  C   UNL     1     -11.126  12.482  67.218  1.00  0.00    -0.319 A  
HETATM   31  C   UNL     1     -11.858  12.487  66.040  1.00  0.00    -0.478 A  
HETATM   32  C   UNL     1     -10.088  11.220  64.949  1.00  0.00    -0.281 A  
HETATM   33  C   UNL     1     -11.338  11.858  64.919  1.00  0.00    -0.277 A  
ENDBRANCH   2  25
TORSDOF 5
ENDMDL
MODEL      208
REMARK 921   NORMALIZED FREE ENERGY PREDICTED BY IDOCK:   -4.65 KCAL/MOL
REMARK 922        TOTAL FREE ENERGY PREDICTED BY IDOCK:   -6.69 KCAL/MOL
REMARK 923 INTER-LIGAND FREE ENERGY PREDICTED BY IDOCK:   -6.70 KCAL/MOL
REMARK 924 INTRA-LIGAND FREE ENERGY PREDICTED BY IDOCK:    0.01 KCAL/MOL
REMARK 927      BINDING AFFINITY PREDICTED BY RF-SCORE:    0.00 PKD
ROOT
HETATM    1  C   UNL     1     -12.297  11.582  70.761  1.00  0.00    -0.472 C  
HETATM    2  C   UNL     1     -11.718  10.456  69.904  1.00  0.00    -0.264 C  
ENDROOT
BRANCH   2   3
HETATM    3  O   UNL     1     -10.452  10.914  69.425  1.00  0.00    -0.219 OA 
BRANCH   3   4
HETATM    4  C   UNL     1     -10.302  11.323  68.132  1.00  0.00    -0.186 A  
HETATM    5  C   UNL     1     -10.049  12.454  65.666  1.00  0.00    -0.257 A  
HETATM    6  C   UNL     1      -9.825  13.269  66.770  1.00  0.00    -0.264 A  
HETATM    7  H1  UNL     1     -11.153   8.764  66.066  1.00  0.00     0.000 HD 
HETATM    8  N   UNL     1     -10.390  11.146  65.732  1.00  0.00    -0.254 NA 
HETATM    9  C   UNL     1      -9.954  12.675  68.021  1.00  0.00    -0.220 A  
HETATM   10  C   UNL     1     -10.536  10.606  66.957  1.00  0.00    -0.262 A  
HETATM   11  H2  UNL     1     -11.838   9.247  67.475  1.00  0.00     0.000 HD 
HETATM   12  N   UNL     1     -10.981   9.287  66.924  1.00  0.00     0.048 NA 
BRANCH   6  13
HETATM   13  C   UNL     1      -9.522  14.673  66.601  1.00  0.00    -0.297 A  
HETATM   14  N   UNL     1      -9.369  16.761  65.705  1.00  0.00    -0.523 NA 
HETATM   15  C   UNL     1      -9.826  15.527  65.522  1.00  0.00    -0.313 A  
HETATM   16  C   UNL     1      -8.843  15.481  67.491  1.00  0.00    -0.182 A  
HETATM   17  N   UNL     1      -8.755  16.714  66.900  1.00  0.00    -0.200 NA 
BRANCH  17  18
HETATM   18  C   UNL     1      -8.062  17.893  67.420  1.00  0.00    -0.211 C  
HETATM   19  C   UNL     1      -6.765  17.534  68.160  1.00  0.00    -0.191 C  
HETATM   20  C   UNL     1      -5.619  17.204  67.203  1.00  0.00    -0.158 C  
HETATM   21  N   UNL     1      -5.401  18.270  66.224  1.00  0.00    -0.145 NA 
HETATM   22  C   UNL     1      -6.606  18.557  65.444  1.00  0.00    -0.222 C  
HETATM   23  H   UNL     1      -4.610  18.057  65.617  1.00  0.00     0.000 HD 
HETATM   24  C   UNL     1      -7.784  18.942  66.336  1.00  0.00    -0.291 C  
ENDBRANCH  17  18
ENDBRANCH   6  13
ENDBRANCH   3   4
ENDBRANCH   2   3
BRANCH   2  25
HETATM   25  C   UNL     1     -11.614   9.162  70.714  1.00  0.00    -0.329 A  
HETATM   26 CL   UNL     1     -14.350   8.710  70.588  1.00  0.00     0.320 Cl 
HETATM   27  C   UNL     1     -10.334   8.692  71.104  1.00  0.00    -0.230 A  
HETATM   28 CL   UNL     1      -8.866   9.513  70.681  1.00  0.00    -0.263 Cl 
HETATM   29  F   UNL     1     -13.600   6.450  72.196  1.00  0.00    -0.295 F  
HETATM   30  C   UNL     1     -10.174   7.511  71.842  1.00  0.00    -0.221 A  
HETATM   31  C   UNL     1     -11.284   6.767  72.216  1.00  0.00    -0.295 A  
HETATM   32  C   UNL     1     -12.724   8.364  71.074  1.00  0.00    -0.007 A  
HETATM   33  C   UNL     1     -12.545   7.195  71.831  1.00  0.00    -0.293 A  
ENDBRANCH   2  25
TORSDOF 5
ENDMDL
MODEL      209
REMARK 921   NORMALIZED FREE ENERGY PREDICTED BY IDOCK:   -4.64 KCAL/MOL
REMARK 922        TOTAL FREE ENERGY PREDICTED BY IDOCK:   -6.67 KCAL/MOL
REMARK 923 INTER-LIGAND FREE ENERGY PREDICTED BY IDOCK:   -5.87 KCAL/MOL
REMARK 924 INTRA-LIGAND FREE ENERGY PREDICTED BY IDOCK:   -0.79 KCAL/MOL
REMARK 927      BINDING AFFINITY PREDICTED BY RF-SCORE:    0.00 PKD
ROOT
HETATM    1  C   UNL     1     -12.027  15.918  69.837  1.00  0.00    -0.283 C  
HETATM    2  C   UNL     1     -10.869  16.374  68.948  1.00  0.00    -0.334 C  
ENDROOT
BRANCH   2   3
HETATM    3  O   UNL     1      -9.668  16.143  69.688  1.00  0.00    -0.228 OA 
BRANCH   3   4
HETATM    4  C   UNL     1      -8.472  15.993  69.048  1.00  0.00    -0.244 A  
HETATM    5  C   UNL     1      -6.055  15.402  67.939  1.00  0.00    -0.150 A  
HETATM    6  C   UNL     1      -6.792  14.348  68.467  1.00  0.00    -0.098 A  
HETATM    7  H1  UNL     1      -7.301  19.061  68.177  1.00  0.00     0.000 HD 
HETATM    8  N   UNL     1      -6.451  16.696  67.945  1.00  0.00    -0.130 NA 
HETATM    9  C   UNL     1      -8.025  14.666  69.025  1.00  0.00    -0.122 A  
HETATM   10  C   UNL     1      -7.636  16.978  68.518  1.00  0.00    -0.231 A  
HETATM   11  H2  UNL     1      -8.076  18.582  69.540  1.00  0.00     0.000 HD 
HETATM   12  N   UNL     1      -7.912  18.341  68.563  1.00  0.00    -0.304 NA 
BRANCH   6  13
HETATM   13  C   UNL     1      -6.259  13.003  68.468  1.00  0.00    -0.078 A  
HETATM   14  N   UNL     1      -5.340  11.040  67.772  1.00  0.00    -0.039 NA 
HETATM   15  C   UNL     1      -5.714  12.260  67.402  1.00  0.00    -0.139 A  
HETATM   16  C   UNL     1      -6.184  12.149  69.550  1.00  0.00    -0.124 A  
HETATM   17  N   UNL     1      -5.650  10.978  69.078  1.00  0.00    -0.040 NA 
BRANCH  17  18
HETATM   18  C   UNL     1      -5.438   9.740  69.829  1.00  0.00    -0.033 C  
HETATM   19  C   UNL     1      -6.357   9.632  71.054  1.00  0.00    -0.063 C  
HETATM   20  C   UNL     1      -7.785   9.234  70.680  1.00  0.00    -0.151 C  
HETATM   21  N   UNL     1      -7.819   8.014  69.874  1.00  0.00    -0.100 NA 
HETATM   22  C   UNL     1      -7.022   8.138  68.652  1.00  0.00    -0.068 C  
HETATM   23  H   UNL     1      -8.777   7.736  69.663  1.00  0.00     0.000 HD 
HETATM   24  C   UNL     1      -5.567   8.488  68.954  1.00  0.00    -0.040 C  
ENDBRANCH  17  18
ENDBRANCH   6  13
ENDBRANCH   3   4
ENDBRANCH   2   3
BRANCH   2  25
HETATM   25  C   UNL     1     -10.894  15.633  67.610  1.00  0.00    -0.307 A  
HETATM   26 CL   UNL     1     -11.398  13.188  68.824  1.00  0.00    -0.310 Cl 
HETATM   27  C   UNL     1     -10.753  16.373  66.408  1.00  0.00    -0.161 A  
HETATM   28 CL   UNL     1     -10.576  18.098  66.386  1.00  0.00    -0.338 Cl 
HETATM   29  F   UNL     1     -11.248  12.305  66.093  1.00  0.00    -0.303 F  
HETATM   30  C   UNL     1     -10.773  15.751  65.152  1.00  0.00    -0.455 A  
HETATM   31  C   UNL     1     -10.929  14.376  65.056  1.00  0.00    -0.398 A  
HETATM   32  C   UNL     1     -11.090  14.239  67.482  1.00  0.00    -0.298 A  
HETATM   33  C   UNL     1     -11.087  13.632  66.215  1.00  0.00    -0.301 A  
ENDBRANCH   2  25
TORSDOF 5
ENDMDL
MODEL      210
REMARK 921   NORMALIZED FREE ENERGY PREDICTED BY IDOCK:   -4.64 KCAL/MOL
REMARK 922        TOTAL FREE ENERGY PREDICTED BY IDOCK:   -6.66 KCAL/MOL
REMARK 923 INTER-LIGAND FREE ENERGY PREDICTED BY IDOCK:   -6.28 KCAL/MOL
REMARK 924 INTRA-LIGAND FREE ENERGY PREDICTED BY IDOCK:   -0.38 KCAL/MOL
REMARK 927      BINDING AFFINITY PREDICTED BY RF-SCORE:    0.00 PKD
ROOT
HETATM    1  C   UNL     1     -11.997  12.816  66.159  1.00  0.00    -0.476 C  
HETATM    2  C   UNL     1     -10.473  12.917  66.226  1.00  0.00    -0.270 C  
ENDROOT
BRANCH   2   3
HETATM    3  O   UNL     1      -9.975  12.472  64.963  1.00  0.00    -0.255 OA 
BRANCH   3   4
HETATM    4  C   UNL     1      -9.615  11.169  64.775  1.00  0.00    -0.240 A  
HETATM    5  C   UNL     1      -8.872   8.548  64.737  1.00  0.00     0.062 A  
HETATM    6  C   UNL     1      -9.417   9.042  65.917  1.00  0.00    -0.317 A  
HETATM    7  H1  UNL     1      -8.274  10.837  61.672  1.00  0.00     0.000 HD 
HETATM    8  N   UNL     1      -8.679   9.279  63.614  1.00  0.00    -0.199 NA 
HETATM    9  C   UNL     1      -9.795  10.380  65.918  1.00  0.00    -0.294 A  
HETATM   10  C   UNL     1      -9.028  10.578  63.655  1.00  0.00    -0.218 A  
HETATM   11  H2  UNL     1      -8.110  12.052  62.761  1.00  0.00     0.000 HD 
HETATM   12  N   UNL     1      -8.704  11.269  62.490  1.00  0.00    -0.258 NA 
BRANCH   6  13
HETATM   13  C   UNL     1      -9.530   8.198  67.087  1.00  0.00    -0.207 A  
HETATM   14  N   UNL     1     -10.403   6.934  68.767  1.00  0.00    -0.181 NA 
HETATM   15  C   UNL     1     -10.683   7.650  67.682  1.00  0.00    -0.175 A  
HETATM   16  C   UNL     1      -8.492   7.755  67.884  1.00  0.00    -0.122 A  
HETATM   17  N   UNL     1      -9.067   7.023  68.890  1.00  0.00    -0.135 NA 
BRANCH  17  18
HETATM   18  C   UNL     1      -8.388   6.403  70.027  1.00  0.00    -0.130 C  
HETATM   19  C   UNL     1      -7.113   7.155  70.432  1.00  0.00    -0.066 C  
HETATM   20  C   UNL     1      -7.412   8.428  71.225  1.00  0.00    -0.089 C  
HETATM   21  N   UNL     1      -8.269   8.162  72.381  1.00  0.00    -0.138 NA 
HETATM   22  C   UNL     1      -9.533   7.531  71.997  1.00  0.00    -0.140 C  
HETATM   23  H   UNL     1      -8.430   9.011  72.924  1.00  0.00     0.000 HD 
HETATM   24  C   UNL     1      -9.309   6.223  71.240  1.00  0.00    -0.164 C  
ENDBRANCH  17  18
ENDBRANCH   6  13
ENDBRANCH   3   4
ENDBRANCH   2   3
BRANCH   2  25
HETATM   25  C   UNL     1     -10.042  14.346  66.564  1.00  0.00    -0.281 A  
HETATM   26 CL   UNL     1      -8.293  13.490  68.542  1.00  0.00    -0.135 Cl 
HETATM   27  C   UNL     1     -10.558  15.422  65.798  1.00  0.00    -0.348 A  
HETATM   28 CL   UNL     1     -11.647  15.188  64.468  1.00  0.00    -0.374 Cl 
HETATM   29  F   UNL     1      -7.926  16.327  68.821  1.00  0.00    -0.171 F  
HETATM   30  C   UNL     1     -10.198  16.752  66.057  1.00  0.00    -0.361 A  
HETATM   31  C   UNL     1      -9.318  17.049  67.087  1.00  0.00    -0.241 A  
HETATM   32  C   UNL     1      -9.118  14.672  67.582  1.00  0.00    -0.193 A  
HETATM   33  C   UNL     1      -8.785  16.012  67.839  1.00  0.00    -0.165 A  
ENDBRANCH   2  25
TORSDOF 5
ENDMDL
MODEL      211
REMARK 921   NORMALIZED FREE ENERGY PREDICTED BY IDOCK:   -4.63 KCAL/MOL
REMARK 922        TOTAL FREE ENERGY PREDICTED BY IDOCK:   -6.65 KCAL/MOL
REMARK 923 INTER-LIGAND FREE ENERGY PREDICTED BY IDOCK:   -5.79 KCAL/MOL
REMARK 924 INTRA-LIGAND FREE ENERGY PREDICTED BY IDOCK:   -0.86 KCAL/MOL
REMARK 927      BINDING AFFINITY PREDICTED BY RF-SCORE:    0.00 PKD
ROOT
HETATM    1  C   UNL     1      -7.612   6.493  69.253  1.00  0.00    -0.100 C  
HETATM    2  C   UNL     1      -8.438   7.150  70.361  1.00  0.00    -0.140 C  
ENDROOT
BRANCH   2   3
HETATM    3  O   UNL     1      -9.728   7.417  69.808  1.00  0.00    -0.169 OA 
BRANCH   3   4
HETATM    4  C   UNL     1      -9.859   8.160  68.670  1.00  0.00    -0.183 A  
HETATM    5  C   UNL     1     -10.131   9.914  66.603  1.00  0.00    -0.233 A  
HETATM    6  C   UNL     1      -9.644  10.412  67.806  1.00  0.00    -0.169 A  
HETATM    7  H1  UNL     1     -11.221   6.215  66.240  1.00  0.00     0.000 HD 
HETATM    8  N   UNL     1     -10.485   8.624  66.392  1.00  0.00    -0.088 NA 
HETATM    9  C   UNL     1      -9.507   9.504  68.849  1.00  0.00    -0.155 A  
HETATM   10  C   UNL     1     -10.370   7.774  67.430  1.00  0.00    -0.284 A  
HETATM   11  H2  UNL     1     -11.560   6.283  67.843  1.00  0.00     0.000 HD 
HETATM   12  N   UNL     1     -10.847   6.497  67.147  1.00  0.00    -0.361 NA 
BRANCH   6  13
HETATM   13  C   UNL     1      -9.348  11.821  67.953  1.00  0.00    -0.184 A  
HETATM   14  N   UNL     1      -8.239  13.768  68.358  1.00  0.00    -0.152 NA 
HETATM   15  C   UNL     1      -8.132  12.444  68.298  1.00  0.00    -0.166 A  
HETATM   16  C   UNL     1     -10.232  12.869  67.788  1.00  0.00    -0.224 A  
HETATM   17  N   UNL     1      -9.528  14.012  68.065  1.00  0.00    -0.199 NA 
BRANCH  17  18
HETATM   18  C   UNL     1     -10.046  15.379  68.097  1.00  0.00    -0.222 C  
HETATM   19  C   UNL     1      -8.972  16.423  67.758  1.00  0.00    -0.198 C  
HETATM   20  C   UNL     1      -8.686  16.499  66.257  1.00  0.00    -0.333 C  
HETATM   21  N   UNL     1      -9.907  16.712  65.479  1.00  0.00    -0.550 NA 
HETATM   22  C   UNL     1     -10.904  15.668  65.722  1.00  0.00    -0.306 C  
HETATM   23  H   UNL     1      -9.700  16.800  64.484  1.00  0.00     0.000 HD 
HETATM   24  C   UNL     1     -11.275  15.568  67.200  1.00  0.00    -0.204 C  
ENDBRANCH  17  18
ENDBRANCH   6  13
ENDBRANCH   3   4
ENDBRANCH   2   3
BRANCH   2  25
HETATM   25  C   UNL     1      -8.495   6.250  71.596  1.00  0.00    -0.129 A  
HETATM   26 CL   UNL     1     -10.151   4.410  70.340  1.00  0.00    -0.246 Cl 
HETATM   27  C   UNL     1      -7.725   6.594  72.737  1.00  0.00    -0.100 A  
HETATM   28 CL   UNL     1      -6.695   7.988  72.787  1.00  0.00    -0.081 Cl 
HETATM   29  F   UNL     1      -9.987   3.168  72.927  1.00  0.00    -0.154 F  
HETATM   30  C   UNL     1      -7.733   5.807  73.897  1.00  0.00    -0.100 A  
HETATM   31  C   UNL     1      -8.508   4.658  73.956  1.00  0.00    -0.103 A  
HETATM   32  C   UNL     1      -9.245   5.055  71.669  1.00  0.00    -0.145 A  
HETATM   33  C   UNL     1      -9.255   4.290  72.847  1.00  0.00    -0.112 A  
ENDBRANCH   2  25
TORSDOF 5
ENDMDL
MODEL      212
REMARK 921   NORMALIZED FREE ENERGY PREDICTED BY IDOCK:   -4.61 KCAL/MOL
REMARK 922        TOTAL FREE ENERGY PREDICTED BY IDOCK:   -6.63 KCAL/MOL
REMARK 923 INTER-LIGAND FREE ENERGY PREDICTED BY IDOCK:   -6.34 KCAL/MOL
REMARK 924 INTRA-LIGAND FREE ENERGY PREDICTED BY IDOCK:   -0.30 KCAL/MOL
REMARK 927      BINDING AFFINITY PREDICTED BY RF-SCORE:    0.00 PKD
ROOT
HETATM    1  C   UNL     1     -11.301  15.015  69.578  1.00  0.00    -0.308 C  
HETATM    2  C   UNL     1     -10.279  14.650  68.500  1.00  0.00    -0.240 C  
ENDROOT
BRANCH   2   3
HETATM    3  O   UNL     1      -9.610  13.471  68.951  1.00  0.00    -0.043 OA 
BRANCH   3   4
HETATM    4  C   UNL     1      -8.553  12.959  68.255  1.00  0.00    -0.170 A  
HETATM    5  C   UNL     1      -6.528  11.638  66.999  1.00  0.00    -0.148 A  
HETATM    6  C   UNL     1      -7.613  10.885  67.431  1.00  0.00    -0.100 A  
HETATM    7  H1  UNL     1      -6.302  15.441  67.697  1.00  0.00     0.000 HD 
HETATM    8  N   UNL     1      -6.406  12.976  67.167  1.00  0.00    -0.212 NA 
HETATM    9  C   UNL     1      -8.640  11.574  68.065  1.00  0.00    -0.150 A  
HETATM   10  C   UNL     1      -7.402  13.612  67.811  1.00  0.00    -0.166 A  
HETATM   11  H2  UNL     1      -7.213  15.130  69.024  1.00  0.00     0.000 HD 
HETATM   12  N   UNL     1      -7.143  14.964  68.020  1.00  0.00    -0.121 NA 
BRANCH   6  13
HETATM   13  C   UNL     1      -7.628   9.448  67.259  1.00  0.00    -0.091 A  
HETATM   14  N   UNL     1      -7.740   7.384  66.304  1.00  0.00    -0.091 NA 
HETATM   15  C   UNL     1      -7.745   8.693  66.075  1.00  0.00    -0.100 A  
HETATM   16  C   UNL     1      -7.535   8.500  68.258  1.00  0.00    -0.096 A  
HETATM   17  N   UNL     1      -7.632   7.280  67.640  1.00  0.00    -0.108 NA 
BRANCH  17  18
HETATM   18  C   UNL     1      -7.658   5.966  68.282  1.00  0.00    -0.090 C  
HETATM   19  C   UNL     1      -8.019   6.047  69.772  1.00  0.00    -0.106 C  
HETATM   20  C   UNL     1      -9.516   6.259  70.000  1.00  0.00    -0.155 C  
HETATM   21  N   UNL     1     -10.322   5.253  69.307  1.00  0.00    -0.233 NA 
HETATM   22  C   UNL     1     -10.056   5.231  67.867  1.00  0.00    -0.156 C  
HETATM   23  H   UNL     1     -11.315   5.380  69.497  1.00  0.00     0.000 HD 
HETATM   24  C   UNL     1      -8.582   4.975  67.563  1.00  0.00    -0.104 C  
ENDBRANCH  17  18
ENDBRANCH   6  13
ENDBRANCH   3   4
ENDBRANCH   2   3
BRANCH   2  25
HETATM   25  C   UNL     1     -10.968  14.462  67.147  1.00  0.00    -0.305 A  
HETATM   26 CL   UNL     1      -9.978  16.861  66.162  1.00  0.00    -0.330 Cl 
HETATM   27  C   UNL     1     -11.687  13.265  66.898  1.00  0.00    -0.388 A  
HETATM   28 CL   UNL     1     -11.803  11.984  68.061  1.00  0.00    -0.384 Cl 
HETATM   29  F   UNL     1     -11.538  16.057  63.886  1.00  0.00    -0.366 F  
HETATM   30  C   UNL     1     -12.335  13.033  65.677  1.00  0.00    -0.504 A  
HETATM   31  C   UNL     1     -12.289  13.986  64.670  1.00  0.00    -0.425 A  
HETATM   32  C   UNL     1     -10.904  15.399  66.091  1.00  0.00    -0.313 A  
HETATM   33  C   UNL     1     -11.576  15.157  64.882  1.00  0.00    -0.336 A  
ENDBRANCH   2  25
TORSDOF 5
ENDMDL
MODEL      213
REMARK 921   NORMALIZED FREE ENERGY PREDICTED BY IDOCK:   -4.56 KCAL/MOL
REMARK 922        TOTAL FREE ENERGY PREDICTED BY IDOCK:   -6.56 KCAL/MOL
REMARK 923 INTER-LIGAND FREE ENERGY PREDICTED BY IDOCK:   -6.28 KCAL/MOL
REMARK 924 INTRA-LIGAND FREE ENERGY PREDICTED BY IDOCK:   -0.28 KCAL/MOL
REMARK 927      BINDING AFFINITY PREDICTED BY RF-SCORE:    0.00 PKD
ROOT
HETATM    1  C   UNL     1     -10.883  14.677  66.731  1.00  0.00    -0.312 C  
HETATM    2  C   UNL     1     -10.481  13.327  67.326  1.00  0.00    -0.247 C  
ENDROOT
BRANCH   2   3
HETATM    3  O   UNL     1     -11.656  12.774  67.921  1.00  0.00    -0.307 OA 
BRANCH   3   4
HETATM    4  C   UNL     1     -11.567  11.765  68.835  1.00  0.00    -0.309 A  
HETATM    5  C   UNL     1     -11.421   9.539  70.400  1.00  0.00    -0.242 A  
HETATM    6  C   UNL     1     -11.123   9.394  69.050  1.00  0.00    -0.014 A  
HETATM    7  H1  UNL     1     -12.577  12.934  71.861  1.00  0.00     0.000 HD 
HETATM    8  N   UNL     1     -11.785  10.704  70.986  1.00  0.00    -0.298 NA 
HETATM    9  C   UNL     1     -11.197  10.540  68.266  1.00  0.00    -0.354 A  
HETATM   10  C   UNL     1     -11.877  11.791  70.196  1.00  0.00    -0.324 A  
HETATM   11  H2  UNL     1     -13.177  13.237  70.365  1.00  0.00     0.000 HD 
HETATM   12  N   UNL     1     -12.350  12.915  70.867  1.00  0.00    -0.350 NA 
BRANCH   6  13
HETATM   13  C   UNL     1     -10.800   8.094  68.502  1.00  0.00     0.040 A  
HETATM   14  N   UNL     1     -10.293   6.429  67.033  1.00  0.00    -0.213 NA 
HETATM   15  C   UNL     1     -10.532   7.730  67.168  1.00  0.00    -0.343 A  
HETATM   16  C   UNL     1     -10.696   6.909  69.204  1.00  0.00    -0.234 A  
HETATM   17  N   UNL     1     -10.416   5.938  68.279  1.00  0.00    -0.215 NA 
BRANCH  17  18
HETATM   18  C   UNL     1     -10.283   4.501  68.521  1.00  0.00     0.149 C  
HETATM   19  C   UNL     1      -9.360   3.817  67.503  1.00  0.00    -0.238 C  
HETATM   20  C   UNL     1      -7.880   4.067  67.796  1.00  0.00    -0.086 C  
HETATM   21  N   UNL     1      -7.527   3.706  69.170  1.00  0.00    -0.053 NA 
HETATM   22  C   UNL     1      -8.336   4.426  70.155  1.00  0.00    -0.066 C  
HETATM   23  H   UNL     1      -6.530   3.840  69.342  1.00  0.00     0.000 HD 
HETATM   24  C   UNL     1      -9.830   4.182  69.951  1.00  0.00    -0.233 C  
ENDBRANCH  17  18
ENDBRANCH   6  13
ENDBRANCH   3   4
ENDBRANCH   2   3
BRANCH   2  25
HETATM   25  C   UNL     1      -9.876  12.423  66.250  1.00  0.00    -0.257 A  
HETATM   26 CL   UNL     1     -11.691  13.274  64.330  1.00  0.00    -0.427 Cl 
HETATM   27  C   UNL     1      -8.725  11.654  66.561  1.00  0.00    -0.182 A  
HETATM   28 CL   UNL     1      -7.952  11.711  68.112  1.00  0.00    -0.133 Cl 
HETATM   29  F   UNL     1     -10.249  11.350  62.756  1.00  0.00    -0.279 F  
HETATM   30  C   UNL     1      -8.124  10.811  65.616  1.00  0.00    -0.112 A  
HETATM   31  C   UNL     1      -8.652  10.706  64.338  1.00  0.00    -0.110 A  
HETATM   32  C   UNL     1     -10.371  12.327  64.930  1.00  0.00    -0.290 A  
HETATM   33  C   UNL     1      -9.766  11.462  64.004  1.00  0.00    -0.245 A  
ENDBRANCH   2  25
TORSDOF 5
ENDMDL
MODEL      214
REMARK 921   NORMALIZED FREE ENERGY PREDICTED BY IDOCK:   -4.55 KCAL/MOL
REMARK 922        TOTAL FREE ENERGY PREDICTED BY IDOCK:   -6.55 KCAL/MOL
REMARK 923 INTER-LIGAND FREE ENERGY PREDICTED BY IDOCK:   -5.97 KCAL/MOL
REMARK 924 INTRA-LIGAND FREE ENERGY PREDICTED BY IDOCK:   -0.58 KCAL/MOL
REMARK 927      BINDING AFFINITY PREDICTED BY RF-SCORE:    0.00 PKD
ROOT
HETATM    1  C   UNL     1     -12.181   7.039  72.427  1.00  0.00    -0.075 C  
HETATM    2  C   UNL     1     -10.808   7.035  71.753  1.00  0.00    -0.223 C  
ENDROOT
BRANCH   2   3
HETATM    3  O   UNL     1      -9.940   7.805  72.587  1.00  0.00    -0.195 OA 
BRANCH   3   4
HETATM    4  C   UNL     1      -8.958   8.581  72.043  1.00  0.00    -0.231 A  
HETATM    5  C   UNL     1      -7.149  10.077  70.659  1.00  0.00     0.021 A  
HETATM    6  C   UNL     1      -8.394   9.874  70.074  1.00  0.00    -0.191 A  
HETATM    7  H1  UNL     1      -6.216   8.445  74.045  1.00  0.00     0.000 HD 
HETATM    8  N   UNL     1      -6.773   9.577  71.859  1.00  0.00    -0.269 NA 
HETATM    9  C   UNL     1      -9.307   9.113  70.795  1.00  0.00    -0.325 A  
HETATM   10  C   UNL     1      -7.668   8.819  72.521  1.00  0.00     0.164 A  
HETATM   11  H2  UNL     1      -7.271   7.260  73.628  1.00  0.00     0.000 HD 
HETATM   12  N   UNL     1      -7.159   8.272  73.696  1.00  0.00    -0.164 NA 
BRANCH   6  13
HETATM   13  C   UNL     1      -8.684  10.401  68.758  1.00  0.00    -0.146 A  
HETATM   14  N   UNL     1      -8.491  11.517  66.783  1.00  0.00    -0.164 NA 
HETATM   15  C   UNL     1      -7.884  11.206  67.924  1.00  0.00    -0.111 A  
HETATM   16  C   UNL     1      -9.848  10.218  68.038  1.00  0.00    -0.150 A  
HETATM   17  N   UNL     1      -9.694  10.925  66.874  1.00  0.00    -0.178 NA 
BRANCH  17  18
HETATM   18  C   UNL     1     -10.685  11.101  65.812  1.00  0.00    -0.188 C  
HETATM   19  C   UNL     1     -11.100  12.568  65.633  1.00  0.00    -0.338 C  
HETATM   20  C   UNL     1     -10.051  13.384  64.876  1.00  0.00    -0.233 C  
HETATM   21  N   UNL     1      -9.698  12.765  63.597  1.00  0.00    -0.642 NA 
HETATM   22  C   UNL     1      -9.208  11.396  63.764  1.00  0.00    -0.022 C  
HETATM   23  H   UNL     1      -9.027  13.337  63.084  1.00  0.00     0.000 HD 
HETATM   24  C   UNL     1     -10.228  10.508  64.473  1.00  0.00    -0.355 C  
ENDBRANCH  17  18
ENDBRANCH   6  13
ENDBRANCH   3   4
ENDBRANCH   2   3
BRANCH   2  25
HETATM   25  C   UNL     1     -10.315   5.602  71.544  1.00  0.00    -0.279 A  
HETATM   26 CL   UNL     1     -10.681   4.947  74.217  1.00  0.00    -0.323 Cl 
HETATM   27  C   UNL     1      -9.979   5.171  70.235  1.00  0.00    -0.250 A  
HETATM   28 CL   UNL     1     -10.125   6.198  68.845  1.00  0.00    -0.192 Cl 
HETATM   29  F   UNL     1      -9.602   2.449  73.291  1.00  0.00    -0.093 F  
HETATM   30  C   UNL     1      -9.526   3.869  69.980  1.00  0.00    -0.263 A  
HETATM   31  C   UNL     1      -9.391   2.961  71.020  1.00  0.00    -0.218 A  
HETATM   32  C   UNL     1     -10.206   4.645  72.579  1.00  0.00    -0.185 A  
HETATM   33  C   UNL     1      -9.731   3.352  72.306  1.00  0.00    -0.152 A  
ENDBRANCH   2  25
TORSDOF 5
ENDMDL
MODEL      215
REMARK 921   NORMALIZED FREE ENERGY PREDICTED BY IDOCK:   -4.54 KCAL/MOL
REMARK 922        TOTAL FREE ENERGY PREDICTED BY IDOCK:   -6.54 KCAL/MOL
REMARK 923 INTER-LIGAND FREE ENERGY PREDICTED BY IDOCK:   -6.35 KCAL/MOL
REMARK 924 INTRA-LIGAND FREE ENERGY PREDICTED BY IDOCK:   -0.19 KCAL/MOL
REMARK 927      BINDING AFFINITY PREDICTED BY RF-SCORE:    0.00 PKD
ROOT
HETATM    1  C   UNL     1     -10.313   4.876  74.387  1.00  0.00    -0.325 C  
HETATM    2  C   UNL     1     -10.616   6.262  73.815  1.00  0.00    -0.245 C  
ENDROOT
BRANCH   2   3
HETATM    3  O   UNL     1      -9.567   7.126  74.256  1.00  0.00    -0.257 OA 
BRANCH   3   4
HETATM    4  C   UNL     1      -8.472   7.350  73.473  1.00  0.00    -0.152 A  
HETATM    5  C   UNL     1      -6.501   7.924  71.681  1.00  0.00    -0.040 A  
HETATM    6  C   UNL     1      -7.700   8.618  71.559  1.00  0.00    -0.152 A  
HETATM    7  H1  UNL     1      -6.027   5.162  74.354  1.00  0.00     0.000 HD 
HETATM    8  N   UNL     1      -6.250   6.982  72.620  1.00  0.00    -0.052 NA 
HETATM    9  C   UNL     1      -8.693   8.316  72.484  1.00  0.00    -0.284 A  
HETATM   10  C   UNL     1      -7.242   6.690  73.483  1.00  0.00    -0.080 A  
HETATM   11  H2  UNL     1      -7.645   4.932  74.231  1.00  0.00     0.000 HD 
HETATM   12  N   UNL     1      -6.925   5.644  74.346  1.00  0.00    -0.081 NA 
BRANCH   6  13
HETATM   13  C   UNL     1      -7.896   9.567  70.484  1.00  0.00    -0.182 A  
HETATM   14  N   UNL     1      -7.529  11.226  68.969  1.00  0.00    -0.127 NA 
HETATM   15  C   UNL     1      -6.989  10.499  69.942  1.00  0.00    -0.150 A  
HETATM   16  C   UNL     1      -9.055   9.758  69.758  1.00  0.00    -0.225 A  
HETATM   17  N   UNL     1      -8.793  10.778  68.880  1.00  0.00    -0.160 NA 
BRANCH  17  18
HETATM   18  C   UNL     1      -9.731  11.396  67.943  1.00  0.00    -0.180 C  
HETATM   19  C   UNL     1      -9.036  11.932  66.684  1.00  0.00    -0.198 C  
HETATM   20  C   UNL     1      -8.681  10.821  65.694  1.00  0.00    -0.190 C  
HETATM   21  N   UNL     1      -9.844   9.999  65.357  1.00  0.00    -0.301 NA 
HETATM   22  C   UNL     1     -10.461   9.403  66.544  1.00  0.00    -0.129 C  
HETATM   23  H   UNL     1      -9.605   9.287  64.668  1.00  0.00     0.000 HD 
HETATM   24  C   UNL     1     -10.885  10.462  67.559  1.00  0.00    -0.358 C  
ENDBRANCH  17  18
ENDBRANCH   6  13
ENDBRANCH   3   4
ENDBRANCH   2   3
BRANCH   2  25
HETATM   25  C   UNL     1     -10.735   6.201  72.291  1.00  0.00    -0.268 A  
HETATM   26 CL   UNL     1      -9.168   3.915  72.128  1.00  0.00    -0.156 Cl 
HETATM   27  C   UNL     1     -11.552   7.150  71.624  1.00  0.00    -0.276 A  
HETATM   28 CL   UNL     1     -12.448   8.371  72.468  1.00  0.00    -0.395 Cl 
HETATM   29  F   UNL     1      -9.640   4.331  69.324  1.00  0.00    -0.202 F  
HETATM   30  C   UNL     1     -11.705   7.142  70.231  1.00  0.00    -0.226 A  
HETATM   31  C   UNL     1     -11.046   6.194  69.462  1.00  0.00    -0.490 A  
HETATM   32  C   UNL     1     -10.107   5.223  71.488  1.00  0.00    -0.192 A  
HETATM   33  C   UNL     1     -10.256   5.244  70.091  1.00  0.00    -0.280 A  
ENDBRANCH   2  25
TORSDOF 5
ENDMDL
MODEL      216
REMARK 921   NORMALIZED FREE ENERGY PREDICTED BY IDOCK:   -4.54 KCAL/MOL
REMARK 922        TOTAL FREE ENERGY PREDICTED BY IDOCK:   -6.54 KCAL/MOL
REMARK 923 INTER-LIGAND FREE ENERGY PREDICTED BY IDOCK:   -5.84 KCAL/MOL
REMARK 924 INTRA-LIGAND FREE ENERGY PREDICTED BY IDOCK:   -0.70 KCAL/MOL
REMARK 927      BINDING AFFINITY PREDICTED BY RF-SCORE:    0.00 PKD
ROOT
HETATM    1  C   UNL     1      -9.288   4.499  69.509  1.00  0.00    -0.221 C  
HETATM    2  C   UNL     1      -9.192   5.187  68.147  1.00  0.00    -0.116 C  
ENDROOT
BRANCH   2   3
HETATM    3  O   UNL     1      -8.231   6.235  68.283  1.00  0.00    -0.114 OA 
BRANCH   3   4
HETATM    4  C   UNL     1      -8.531   7.370  68.979  1.00  0.00    -0.129 A  
HETATM    5  C   UNL     1      -9.212   9.773  70.068  1.00  0.00    -0.229 A  
HETATM    6  C   UNL     1      -9.736   9.466  68.817  1.00  0.00    -0.161 A  
HETATM    7  H1  UNL     1      -6.748   7.390  71.870  1.00  0.00     0.000 HD 
HETATM    8  N   UNL     1      -8.385   8.968  70.774  1.00  0.00    -0.176 NA 
HETATM    9  C   UNL     1      -9.382   8.234  68.277  1.00  0.00    -0.138 A  
HETATM   10  C   UNL     1      -8.037   7.794  70.213  1.00  0.00    -0.113 A  
HETATM   11  H2  UNL     1      -6.305   6.906  70.368  1.00  0.00     0.000 HD 
HETATM   12  N   UNL     1      -7.110   7.080  70.969  1.00  0.00    -0.069 NA 
BRANCH   6  13
HETATM   13  C   UNL     1     -10.566  10.418  68.111  1.00  0.00    -0.246 A  
HETATM   14  N   UNL     1     -12.238  11.881  67.617  1.00  0.00    -0.395 NA 
HETATM   15  C   UNL     1     -11.723  11.090  68.552  1.00  0.00    -0.278 A  
HETATM   16  C   UNL     1     -10.386  10.865  66.817  1.00  0.00    -0.241 A  
HETATM   17  N   UNL     1     -11.425  11.720  66.559  1.00  0.00    -0.456 NA 
BRANCH  17  18
HETATM   18  C   UNL     1     -11.716  12.396  65.295  1.00  0.00    -0.390 C  
HETATM   19  C   UNL     1     -12.780  13.492  65.446  1.00  0.00    -0.495 C  
HETATM   20  C   UNL     1     -12.219  14.769  66.073  1.00  0.00    -0.034 C  
HETATM   21  N   UNL     1     -11.042  15.258  65.353  1.00  0.00    -0.351 NA 
HETATM   22  C   UNL     1      -9.980  14.253  65.285  1.00  0.00    -0.279 C  
HETATM   23  H   UNL     1     -10.699  16.130  65.755  1.00  0.00     0.000 HD 
HETATM   24  C   UNL     1     -10.459  12.962  64.624  1.00  0.00    -0.385 C  
ENDBRANCH  17  18
ENDBRANCH   6  13
ENDBRANCH   3   4
ENDBRANCH   2   3
BRANCH   2  25
HETATM   25  C   UNL     1      -8.820   4.177  67.059  1.00  0.00    -0.125 A  
HETATM   26 CL   UNL     1      -6.730   3.134  68.559  1.00  0.00    -0.043 Cl 
HETATM   27  C   UNL     1      -9.616   4.099  65.888  1.00  0.00    -0.191 A  
HETATM   28 CL   UNL     1     -11.018   5.090  65.641  1.00  0.00    -0.071 Cl 
HETATM   29  F   UNL     1      -6.416   1.538  66.189  1.00  0.00    -0.021 F  
HETATM   30  C   UNL     1      -9.329   3.192  64.859  1.00  0.00    -0.149 A  
HETATM   31  C   UNL     1      -8.240   2.339  64.964  1.00  0.00    -0.081 A  
HETATM   32  C   UNL     1      -7.740   3.271  67.158  1.00  0.00    -0.078 A  
HETATM   33  C   UNL     1      -7.457   2.383  66.108  1.00  0.00    -0.067 A  
ENDBRANCH   2  25
TORSDOF 5
ENDMDL
MODEL      217
REMARK 921   NORMALIZED FREE ENERGY PREDICTED BY IDOCK:   -4.54 KCAL/MOL
REMARK 922        TOTAL FREE ENERGY PREDICTED BY IDOCK:   -6.53 KCAL/MOL
REMARK 923 INTER-LIGAND FREE ENERGY PREDICTED BY IDOCK:   -6.33 KCAL/MOL
REMARK 924 INTRA-LIGAND FREE ENERGY PREDICTED BY IDOCK:   -0.20 KCAL/MOL
REMARK 927      BINDING AFFINITY PREDICTED BY RF-SCORE:    0.00 PKD
ROOT
HETATM    1  C   UNL     1     -10.736   5.337  66.540  1.00  0.00    -0.290 C  
HETATM    2  C   UNL     1      -9.316   5.535  66.008  1.00  0.00    -0.148 C  
ENDROOT
BRANCH   2   3
HETATM    3  O   UNL     1      -8.582   6.204  67.035  1.00  0.00    -0.108 OA 
BRANCH   3   4
HETATM    4  C   UNL     1      -8.218   7.511  66.894  1.00  0.00    -0.124 A  
HETATM    5  C   UNL     1      -7.822  10.189  66.584  1.00  0.00    -0.110 A  
HETATM    6  C   UNL     1      -9.074   9.773  67.022  1.00  0.00    -0.157 A  
HETATM    7  H1  UNL     1      -5.049   7.642  65.676  1.00  0.00     0.000 HD 
HETATM    8  N   UNL     1      -6.794   9.358  66.295  1.00  0.00    -0.084 NA 
HETATM    9  C   UNL     1      -9.259   8.404  67.179  1.00  0.00    -0.174 A  
HETATM   10  C   UNL     1      -7.011   8.036  66.428  1.00  0.00    -0.070 A  
HETATM   11  H2  UNL     1      -6.277   6.622  65.299  1.00  0.00     0.000 HD 
HETATM   12  N   UNL     1      -5.931   7.259  66.017  1.00  0.00    -0.036 NA 
BRANCH   6  13
HETATM   13  C   UNL     1     -10.132  10.734  67.250  1.00  0.00    -0.233 A  
HETATM   14  N   UNL     1     -12.103  11.669  67.902  1.00  0.00    -0.585 NA 
HETATM   15  C   UNL     1     -11.370  10.560  67.899  1.00  0.00    -0.222 A  
HETATM   16  C   UNL     1     -10.140  12.057  66.853  1.00  0.00    -0.205 A  
HETATM   17  N   UNL     1     -11.350  12.568  67.244  1.00  0.00    -0.295 NA 
BRANCH  17  18
HETATM   18  C   UNL     1     -11.863  13.913  66.988  1.00  0.00    -0.415 C  
HETATM   19  C   UNL     1     -10.742  14.942  66.789  1.00  0.00    -0.312 C  
HETATM   20  C   UNL     1     -10.106  14.852  65.401  1.00  0.00    -0.367 C  
HETATM   21  N   UNL     1     -11.107  14.935  64.336  1.00  0.00    -0.645 NA 
HETATM   22  C   UNL     1     -12.132  13.897  64.460  1.00  0.00    -0.443 C  
HETATM   23  H   UNL     1     -10.669  14.914  63.415  1.00  0.00     0.000 HD 
HETATM   24  C   UNL     1     -12.844  13.958  65.810  1.00  0.00    -0.437 C  
ENDBRANCH  17  18
ENDBRANCH   6  13
ENDBRANCH   3   4
ENDBRANCH   2   3
BRANCH   2  25
HETATM   25  C   UNL     1      -8.698   4.192  65.614  1.00  0.00    -0.119 A  
HETATM   26 CL   UNL     1      -8.000   5.107  63.088  1.00  0.00    -0.085 Cl 
HETATM   27  C   UNL     1      -8.641   3.149  66.574  1.00  0.00    -0.119 A  
HETATM   28 CL   UNL     1      -9.226   3.336  68.196  1.00  0.00    -0.223 Cl 
HETATM   29  F   UNL     1      -7.079   2.395  62.848  1.00  0.00    -0.029 F  
HETATM   30  C   UNL     1      -8.083   1.899  66.273  1.00  0.00    -0.080 A  
HETATM   31  C   UNL     1      -7.568   1.650  65.009  1.00  0.00    -0.062 A  
HETATM   32  C   UNL     1      -8.131   3.925  64.347  1.00  0.00    -0.090 A  
HETATM   33  C   UNL     1      -7.594   2.660  64.059  1.00  0.00    -0.067 A  
ENDBRANCH   2  25
TORSDOF 5
ENDMDL
MODEL      218
REMARK 921   NORMALIZED FREE ENERGY PREDICTED BY IDOCK:   -4.52 KCAL/MOL
REMARK 922        TOTAL FREE ENERGY PREDICTED BY IDOCK:   -6.51 KCAL/MOL
REMARK 923 INTER-LIGAND FREE ENERGY PREDICTED BY IDOCK:   -5.65 KCAL/MOL
REMARK 924 INTRA-LIGAND FREE ENERGY PREDICTED BY IDOCK:   -0.86 KCAL/MOL
REMARK 927      BINDING AFFINITY PREDICTED BY RF-SCORE:    0.00 PKD
ROOT
HETATM    1  C   UNL     1     -11.692   8.015  72.737  1.00  0.00    -0.352 C  
HETATM    2  C   UNL     1     -10.507   7.684  71.829  1.00  0.00    -0.205 C  
ENDROOT
BRANCH   2   3
HETATM    3  O   UNL     1      -9.371   8.356  72.376  1.00  0.00    -0.242 OA 
BRANCH   3   4
HETATM    4  C   UNL     1      -8.296   8.659  71.591  1.00  0.00    -0.157 A  
HETATM    5  C   UNL     1      -6.375   9.363  69.792  1.00  0.00    -0.040 A  
HETATM    6  C   UNL     1      -7.633   9.933  69.641  1.00  0.00    -0.136 A  
HETATM    7  H1  UNL     1      -5.659   6.748  72.558  1.00  0.00     0.000 HD 
HETATM    8  N   UNL     1      -6.042   8.480  70.763  1.00  0.00    -0.032 NA 
HETATM    9  C   UNL     1      -8.601   9.567  70.570  1.00  0.00    -0.231 A  
HETATM   10  C   UNL     1      -7.008   8.122  71.630  1.00  0.00    -0.072 A  
HETATM   11  H2  UNL     1      -7.247   6.359  72.433  1.00  0.00     0.000 HD 
HETATM   12  N   UNL     1      -6.600   7.141  72.529  1.00  0.00    -0.052 NA 
BRANCH   6  13
HETATM   13  C   UNL     1      -7.911  10.823  68.534  1.00  0.00    -0.122 A  
HETATM   14  N   UNL     1      -7.878  11.787  66.472  1.00  0.00    -0.048 NA 
HETATM   15  C   UNL     1      -7.416  10.787  67.216  1.00  0.00    -0.101 A  
HETATM   16  C   UNL     1      -8.738  11.929  68.556  1.00  0.00    -0.108 A  
HETATM   17  N   UNL     1      -8.666  12.487  67.307  1.00  0.00    -0.185 NA 
BRANCH  17  18
HETATM   18  C   UNL     1      -9.310  13.719  66.853  1.00  0.00    -0.261 C  
HETATM   19  C   UNL     1     -10.533  13.451  65.965  1.00  0.00    -0.294 C  
HETATM   20  C   UNL     1     -11.762  13.032  66.774  1.00  0.00    -0.382 C  
HETATM   21  N   UNL     1     -12.069  13.991  67.836  1.00  0.00    -0.510 NA 
HETATM   22  C   UNL     1     -10.940  14.184  68.748  1.00  0.00    -0.257 C  
HETATM   23  H   UNL     1     -12.912  13.722  68.344  1.00  0.00     0.000 HD 
HETATM   24  C   UNL     1      -9.686  14.651  68.012  1.00  0.00    -0.216 C  
ENDBRANCH  17  18
ENDBRANCH   6  13
ENDBRANCH   3   4
ENDBRANCH   2   3
BRANCH   2  25
HETATM   25  C   UNL     1     -10.312   6.170  71.729  1.00  0.00    -0.250 A  
HETATM   26 CL   UNL     1     -10.308   5.857  74.488  1.00  0.00    -0.276 Cl 
HETATM   27  C   UNL     1     -10.291   5.560  70.449  1.00  0.00    -0.276 A  
HETATM   28 CL   UNL     1     -10.501   6.457  68.980  1.00  0.00    -0.237 Cl 
HETATM   29  F   UNL     1      -9.853   3.122  73.729  1.00  0.00    -0.116 F  
HETATM   30  C   UNL     1     -10.120   4.177  70.294  1.00  0.00    -0.017 A  
HETATM   31  C   UNL     1      -9.961   3.364  71.406  1.00  0.00    -0.135 A  
HETATM   32  C   UNL     1     -10.188   5.314  72.847  1.00  0.00    -0.183 A  
HETATM   33  C   UNL     1      -9.997   3.934  72.670  1.00  0.00    -0.157 A  
ENDBRANCH   2  25
TORSDOF 5
ENDMDL
MODEL      219
REMARK 921   NORMALIZED FREE ENERGY PREDICTED BY IDOCK:   -4.51 KCAL/MOL
REMARK 922        TOTAL FREE ENERGY PREDICTED BY IDOCK:   -6.49 KCAL/MOL
REMARK 923 INTER-LIGAND FREE ENERGY PREDICTED BY IDOCK:   -5.63 KCAL/MOL
REMARK 924 INTRA-LIGAND FREE ENERGY PREDICTED BY IDOCK:   -0.86 KCAL/MOL
REMARK 927      BINDING AFFINITY PREDICTED BY RF-SCORE:    0.00 PKD
ROOT
HETATM    1  C   UNL     1     -12.157  13.200  65.485  1.00  0.00    -0.490 C  
HETATM    2  C   UNL     1     -11.233  12.380  66.387  1.00  0.00    -0.319 C  
ENDROOT
BRANCH   2   3
HETATM    3  O   UNL     1      -9.912  12.887  66.190  1.00  0.00    -0.263 OA 
BRANCH   3   4
HETATM    4  C   UNL     1      -8.821  12.115  66.466  1.00  0.00    -0.151 A  
HETATM    5  C   UNL     1      -6.827  10.312  66.908  1.00  0.00    -0.086 A  
HETATM    6  C   UNL     1      -7.821   9.958  66.002  1.00  0.00    -0.111 A  
HETATM    7  H1  UNL     1      -6.964  13.654  68.859  1.00  0.00     0.000 HD 
HETATM    8  N   UNL     1      -6.787  11.481  67.588  1.00  0.00    -0.077 NA 
HETATM    9  C   UNL     1      -8.828  10.891  65.785  1.00  0.00    -0.202 A  
HETATM   10  C   UNL     1      -7.791  12.353  67.379  1.00  0.00    -0.174 A  
HETATM   11  H2  UNL     1      -8.592  13.537  68.709  1.00  0.00     0.000 HD 
HETATM   12  N   UNL     1      -7.715  13.481  68.192  1.00  0.00    -0.126 NA 
BRANCH   6  13
HETATM   13  C   UNL     1      -7.810   8.658  65.367  1.00  0.00    -0.101 A  
HETATM   14  N   UNL     1      -7.733   7.025  63.782  1.00  0.00    -0.109 NA 
HETATM   15  C   UNL     1      -7.677   8.335  64.002  1.00  0.00    -0.140 A  
HETATM   16  C   UNL     1      -7.943   7.435  65.994  1.00  0.00    -0.115 A  
HETATM   17  N   UNL     1      -7.915   6.490  65.002  1.00  0.00    -0.117 NA 
BRANCH  17  18
HETATM   18  C   UNL     1      -8.091   5.046  65.156  1.00  0.00    -0.112 C  
HETATM   19  C   UNL     1      -8.646   4.665  66.535  1.00  0.00    -0.112 C  
HETATM   20  C   UNL     1     -10.149   4.924  66.652  1.00  0.00    -0.249 C  
HETATM   21  N   UNL     1     -10.899   4.278  65.574  1.00  0.00    -0.601 NA 
HETATM   22  C   UNL     1     -10.442   4.707  64.251  1.00  0.00     0.413 C  
HETATM   23  H   UNL     1     -11.903   4.425  65.683  1.00  0.00     0.000 HD 
HETATM   24  C   UNL     1      -8.954   4.434  64.046  1.00  0.00    -0.143 C  
ENDBRANCH  17  18
ENDBRANCH   6  13
ENDBRANCH   3   4
ENDBRANCH   2   3
BRANCH   2  25
HETATM   25  C   UNL     1     -11.691  12.463  67.845  1.00  0.00    -0.421 A  
HETATM   26 CL   UNL     1     -11.506   9.716  68.196  1.00  0.00     0.154 Cl 
HETATM   27  C   UNL     1     -11.928  13.737  68.423  1.00  0.00    -0.360 A  
HETATM   28 CL   UNL     1     -11.697  15.218  67.551  1.00  0.00    -0.240 Cl 
HETATM   29  F   UNL     1     -12.483  10.433  70.802  1.00  0.00    -0.346 F  
HETATM   30  C   UNL     1     -12.344  13.878  69.754  1.00  0.00    -0.330 A  
HETATM   31  C   UNL     1     -12.540  12.756  70.546  1.00  0.00    -0.191 A  
HETATM   32  C   UNL     1     -11.860  11.340  68.685  1.00  0.00    -0.300 A  
HETATM   33  C   UNL     1     -12.297  11.500  70.010  1.00  0.00    -0.213 A  
ENDBRANCH   2  25
TORSDOF 5
ENDMDL
MODEL      220
REMARK 921   NORMALIZED FREE ENERGY PREDICTED BY IDOCK:   -4.50 KCAL/MOL
REMARK 922        TOTAL FREE ENERGY PREDICTED BY IDOCK:   -6.49 KCAL/MOL
REMARK 923 INTER-LIGAND FREE ENERGY PREDICTED BY IDOCK:   -6.11 KCAL/MOL
REMARK 924 INTRA-LIGAND FREE ENERGY PREDICTED BY IDOCK:   -0.37 KCAL/MOL
REMARK 927      BINDING AFFINITY PREDICTED BY RF-SCORE:    0.00 PKD
ROOT
HETATM    1  C   UNL     1     -10.958   6.414  67.693  1.00  0.00    -0.441 C  
HETATM    2  C   UNL     1      -9.893   6.273  66.604  1.00  0.00    -0.154 C  
ENDROOT
BRANCH   2   3
HETATM    3  O   UNL     1      -9.037   7.412  66.717  1.00  0.00    -0.138 OA 
BRANCH   3   4
HETATM    4  C   UNL     1      -9.003   8.360  65.736  1.00  0.00    -0.159 A  
HETATM    5  C   UNL     1      -9.220  10.376  63.916  1.00  0.00    -0.266 A  
HETATM    6  C   UNL     1      -9.879  10.535  65.130  1.00  0.00    -0.359 A  
HETATM    7  H1  UNL     1      -7.287   7.126  63.076  1.00  0.00     0.000 HD 
HETATM    8  N   UNL     1      -8.489   9.289  63.576  1.00  0.00    -0.191 NA 
HETATM    9  C   UNL     1      -9.755   9.500  66.049  1.00  0.00    -0.341 A  
HETATM   10  C   UNL     1      -8.411   8.290  64.474  1.00  0.00    -0.087 A  
HETATM   11  H2  UNL     1      -8.348   6.379  64.079  1.00  0.00     0.000 HD 
HETATM   12  N   UNL     1      -7.720   7.178  63.998  1.00  0.00    -0.119 NA 
BRANCH   6  13
HETATM   13  C   UNL     1     -10.687  11.709  65.381  1.00  0.00    -0.341 A  
HETATM   14  N   UNL     1     -12.246  13.352  65.151  1.00  0.00    -0.408 NA 
HETATM   15  C   UNL     1     -11.746  12.242  64.619  1.00  0.00    -0.356 A  
HETATM   16  C   UNL     1     -10.570  12.574  66.451  1.00  0.00    -0.247 A  
HETATM   17  N   UNL     1     -11.508  13.554  66.256  1.00  0.00    -0.316 NA 
BRANCH  17  18
HETATM   18  C   UNL     1     -11.728  14.741  67.083  1.00  0.00    -0.334 C  
HETATM   19  C   UNL     1     -11.295  14.529  68.541  1.00  0.00    -0.309 C  
HETATM   20  C   UNL     1      -9.778  14.611  68.717  1.00  0.00    -0.217 C  
HETATM   21  N   UNL     1      -9.231  15.852  68.168  1.00  0.00    -0.189 NA 
HETATM   22  C   UNL     1      -9.556  16.020  66.751  1.00  0.00    -0.232 C  
HETATM   23  H   UNL     1      -8.225  15.914  68.326  1.00  0.00     0.000 HD 
HETATM   24  C   UNL     1     -11.064  15.996  66.506  1.00  0.00     0.024 C  
ENDBRANCH  17  18
ENDBRANCH   6  13
ENDBRANCH   3   4
ENDBRANCH   2   3
BRANCH   2  25
HETATM   25  C   UNL     1      -9.143   4.948  66.753  1.00  0.00    -0.118 A  
HETATM   26 CL   UNL     1      -9.767   4.154  64.167  1.00  0.00    -0.158 Cl 
HETATM   27  C   UNL     1      -8.436   4.686  67.954  1.00  0.00    -0.102 A  
HETATM   28 CL   UNL     1      -8.364   5.820  69.265  1.00  0.00    -0.107 Cl 
HETATM   29  F   UNL     1      -8.322   1.818  65.013  1.00  0.00    -0.075 F  
HETATM   30  C   UNL     1      -7.727   3.493  68.148  1.00  0.00    -0.064 A  
HETATM   31  C   UNL     1      -7.703   2.526  67.154  1.00  0.00    -0.069 A  
HETATM   32  C   UNL     1      -9.070   3.964  65.742  1.00  0.00    -0.145 A  
HETATM   33  C   UNL     1      -8.371   2.766  65.962  1.00  0.00    -0.094 A  
ENDBRANCH   2  25
TORSDOF 5
ENDMDL
MODEL      221
REMARK 921   NORMALIZED FREE ENERGY PREDICTED BY IDOCK:   -4.46 KCAL/MOL
REMARK 922        TOTAL FREE ENERGY PREDICTED BY IDOCK:   -6.43 KCAL/MOL
REMARK 923 INTER-LIGAND FREE ENERGY PREDICTED BY IDOCK:   -5.44 KCAL/MOL
REMARK 924 INTRA-LIGAND FREE ENERGY PREDICTED BY IDOCK:   -0.99 KCAL/MOL
REMARK 927      BINDING AFFINITY PREDICTED BY RF-SCORE:    0.00 PKD
ROOT
HETATM    1  C   UNL     1     -11.421  13.857  66.149  1.00  0.00    -0.351 C  
HETATM    2  C   UNL     1     -10.107  13.164  66.515  1.00  0.00    -0.280 C  
ENDROOT
BRANCH   2   3
HETATM    3  O   UNL     1      -9.465  13.990  67.488  1.00  0.00    -0.210 OA 
BRANCH   3   4
HETATM    4  C   UNL     1      -8.163  13.774  67.836  1.00  0.00    -0.166 A  
HETATM    5  C   UNL     1      -5.686  13.158  68.789  1.00  0.00    -0.073 A  
HETATM    6  C   UNL     1      -6.738  12.326  69.155  1.00  0.00    -0.095 A  
HETATM    7  H1  UNL     1      -6.268  16.327  66.640  1.00  0.00     0.000 HD 
HETATM    8  N   UNL     1      -5.810  14.253  68.003  1.00  0.00    -0.128 NA 
HETATM    9  C   UNL     1      -7.995  12.651  68.656  1.00  0.00    -0.030 A  
HETATM   10  C   UNL     1      -7.043  14.560  67.560  1.00  0.00    -0.175 A  
HETATM   11  H2  UNL     1      -7.768  16.354  67.302  1.00  0.00     0.000 HD 
HETATM   12  N   UNL     1      -7.086  15.752  66.841  1.00  0.00    -0.220 NA 
BRANCH   6  13
HETATM   13  C   UNL     1      -6.518  11.210  70.049  1.00  0.00    -0.133 A  
HETATM   14  N   UNL     1      -5.602   9.854  71.633  1.00  0.00    -0.211 NA 
HETATM   15  C   UNL     1      -5.497  11.019  71.001  1.00  0.00    -0.075 A  
HETATM   16  C   UNL     1      -7.288  10.068  70.144  1.00  0.00    -0.163 A  
HETATM   17  N   UNL     1      -6.686   9.276  71.087  1.00  0.00    -0.171 NA 
BRANCH  17  18
HETATM   18  C   UNL     1      -7.087   7.929  71.492  1.00  0.00    -0.065 C  
HETATM   19  C   UNL     1      -7.038   7.734  73.014  1.00  0.00    -0.097 C  
HETATM   20  C   UNL     1      -8.233   8.370  73.724  1.00  0.00    -0.117 C  
HETATM   21  N   UNL     1      -9.506   7.914  73.164  1.00  0.00    -0.260 NA 
HETATM   22  C   UNL     1      -9.605   8.182  71.728  1.00  0.00    -0.188 C  
HETATM   23  H   UNL     1     -10.296   8.314  73.670  1.00  0.00     0.000 HD 
HETATM   24  C   UNL     1      -8.465   7.532  70.948  1.00  0.00    -0.125 C  
ENDBRANCH  17  18
ENDBRANCH   6  13
ENDBRANCH   3   4
ENDBRANCH   2   3
BRANCH   2  25
HETATM   25  C   UNL     1     -10.370  11.744  67.020  1.00  0.00    -0.243 A  
HETATM   26 CL   UNL     1     -11.734  12.652  69.260  1.00  0.00    -0.364 Cl 
HETATM   27  C   UNL     1      -9.952  10.642  66.230  1.00  0.00    -0.222 A  
HETATM   28 CL   UNL     1      -9.171  10.834  64.693  1.00  0.00    -0.234 Cl 
HETATM   29  F   UNL     1     -11.858   9.828  69.779  1.00  0.00    -0.195 F  
HETATM   30  C   UNL     1     -10.168   9.318  66.637  1.00  0.00    -0.323 A  
HETATM   31  C   UNL     1     -10.802   9.054  67.842  1.00  0.00    -0.118 A  
HETATM   32  C   UNL     1     -11.047  11.446  68.223  1.00  0.00    -0.244 A  
HETATM   33  C   UNL     1     -11.237  10.114  68.624  1.00  0.00    -0.168 A  
ENDBRANCH   2  25
TORSDOF 5
ENDMDL
MODEL      222
REMARK 921   NORMALIZED FREE ENERGY PREDICTED BY IDOCK:   -4.44 KCAL/MOL
REMARK 922        TOTAL FREE ENERGY PREDICTED BY IDOCK:   -6.41 KCAL/MOL
REMARK 923 INTER-LIGAND FREE ENERGY PREDICTED BY IDOCK:   -6.59 KCAL/MOL
REMARK 924 INTRA-LIGAND FREE ENERGY PREDICTED BY IDOCK:    0.17 KCAL/MOL
REMARK 927      BINDING AFFINITY PREDICTED BY RF-SCORE:    0.00 PKD
ROOT
HETATM    1  C   UNL     1     -12.294  13.958  67.128  1.00  0.00    -0.246 C  
HETATM    2  C   UNL     1     -11.531  13.937  68.454  1.00  0.00    -0.311 C  
ENDROOT
BRANCH   2   3
HETATM    3  O   UNL     1     -11.224  12.569  68.728  1.00  0.00    -0.240 OA 
BRANCH   3   4
HETATM    4  C   UNL     1     -11.736  11.947  69.830  1.00  0.00    -0.331 A  
HETATM    5  C   UNL     1     -12.692  10.413  71.869  1.00  0.00    -0.357 A  
HETATM    6  C   UNL     1     -11.806   9.816  70.980  1.00  0.00    -0.442 A  
HETATM    7  H1  UNL     1     -13.894  14.063  71.382  1.00  0.00     0.000 HD 
HETATM    8  N   UNL     1     -13.117  11.696  71.786  1.00  0.00    -0.449 NA 
HETATM    9  C   UNL     1     -11.324  10.613  69.948  1.00  0.00    -0.386 A  
HETATM   10  C   UNL     1     -12.656  12.435  70.759  1.00  0.00    -0.211 A  
HETATM   11  H2  UNL     1     -13.647  13.803  69.781  1.00  0.00     0.000 HD 
HETATM   12  N   UNL     1     -13.221  13.706  70.703  1.00  0.00     0.018 NA 
BRANCH   6  13
HETATM   13  C   UNL     1     -11.456   8.419  71.115  1.00  0.00    -0.314 A  
HETATM   14  N   UNL     1     -11.362   6.169  70.779  1.00  0.00    -0.319 NA 
HETATM   15  C   UNL     1     -11.877   7.316  70.347  1.00  0.00    -0.135 A  
HETATM   16  C   UNL     1     -10.615   7.870  72.064  1.00  0.00    -0.238 A  
HETATM   17  N   UNL     1     -10.611   6.519  71.837  1.00  0.00    -0.207 NA 
BRANCH  17  18
HETATM   18  C   UNL     1      -9.925   5.495  72.626  1.00  0.00    -0.167 C  
HETATM   19  C   UNL     1      -8.558   5.119  72.039  1.00  0.00    -0.130 C  
HETATM   20  C   UNL     1      -7.483   6.163  72.344  1.00  0.00    -0.094 C  
HETATM   21  N   UNL     1      -7.392   6.450  73.776  1.00  0.00    -0.086 NA 
HETATM   22  C   UNL     1      -8.669   6.903  74.330  1.00  0.00    -0.180 C  
HETATM   23  H   UNL     1      -6.647   7.118  73.973  1.00  0.00     0.000 HD 
HETATM   24  C   UNL     1      -9.783   5.883  74.103  1.00  0.00    -0.191 C  
ENDBRANCH  17  18
ENDBRANCH   6  13
ENDBRANCH   3   4
ENDBRANCH   2   3
BRANCH   2  25
HETATM   25  C   UNL     1     -10.286  14.821  68.372  1.00  0.00    -0.224 A  
HETATM   26 CL   UNL     1      -9.220  13.352  66.272  1.00  0.00    -0.138 Cl 
HETATM   27  C   UNL     1     -10.186  15.953  69.221  1.00  0.00    -0.250 A  
HETATM   28 CL   UNL     1     -11.433  16.397  70.341  1.00  0.00    -0.257 Cl 
HETATM   29  F   UNL     1      -7.085  15.245  66.618  1.00  0.00    -0.045 F  
HETATM   30  C   UNL     1      -9.072  16.803  69.190  1.00  0.00    -0.120 A  
HETATM   31  C   UNL     1      -8.025  16.550  68.316  1.00  0.00    -0.177 A  
HETATM   32  C   UNL     1      -9.224  14.608  67.464  1.00  0.00    -0.192 A  
HETATM   33  C   UNL     1      -8.107  15.460  67.462  1.00  0.00    -0.167 A  
ENDBRANCH   2  25
TORSDOF 5
ENDMDL
MODEL      223
REMARK 921   NORMALIZED FREE ENERGY PREDICTED BY IDOCK:   -4.41 KCAL/MOL
REMARK 922        TOTAL FREE ENERGY PREDICTED BY IDOCK:   -6.37 KCAL/MOL
REMARK 923 INTER-LIGAND FREE ENERGY PREDICTED BY IDOCK:   -6.67 KCAL/MOL
REMARK 924 INTRA-LIGAND FREE ENERGY PREDICTED BY IDOCK:    0.30 KCAL/MOL
REMARK 927      BINDING AFFINITY PREDICTED BY RF-SCORE:    0.00 PKD
ROOT
HETATM    1  C   UNL     1      -9.102  10.527  65.407  1.00  0.00    -0.215 C  
HETATM    2  C   UNL     1     -10.414  11.287  65.209  1.00  0.00    -0.282 C  
ENDROOT
BRANCH   2   3
HETATM    3  O   UNL     1     -11.361  10.713  66.112  1.00  0.00     0.121 OA 
BRANCH   3   4
HETATM    4  C   UNL     1     -11.159  10.764  67.461  1.00  0.00    -0.308 A  
HETATM    5  C   UNL     1     -10.732  10.529  70.142  1.00  0.00    -0.171 A  
HETATM    6  C   UNL     1     -10.324   9.475  69.334  1.00  0.00    -0.225 A  
HETATM    7  H1  UNL     1     -12.558  13.613  68.673  1.00  0.00     0.000 HD 
HETATM    8  N   UNL     1     -11.332  11.656  69.691  1.00  0.00    -0.258 NA 
HETATM    9  C   UNL     1     -10.544   9.612  67.968  1.00  0.00    -0.292 A  
HETATM   10  C   UNL     1     -11.559  11.748  68.367  1.00  0.00    -0.318 A  
HETATM   11  H2  UNL     1     -13.100  12.589  67.512  1.00  0.00     0.000 HD 
HETATM   12  N   UNL     1     -12.264  12.894  68.011  1.00  0.00    -0.136 NA 
BRANCH   6  13
HETATM   13  C   UNL     1      -9.744   8.283  69.914  1.00  0.00    -0.180 A  
HETATM   14  N   UNL     1      -8.229   6.734  70.616  1.00  0.00    -0.119 NA 
HETATM   15  C   UNL     1      -8.388   7.923  70.043  1.00  0.00    -0.121 A  
HETATM   16  C   UNL     1     -10.431   7.221  70.469  1.00  0.00    -0.217 A  
HETATM   17  N   UNL     1      -9.482   6.309  70.852  1.00  0.00    -0.171 NA 
BRANCH  17  18
HETATM   18  C   UNL     1      -9.715   4.984  71.428  1.00  0.00    -0.171 C  
HETATM   19  C   UNL     1      -8.444   4.374  72.033  1.00  0.00    -0.115 C  
HETATM   20  C   UNL     1      -8.099   4.976  73.397  1.00  0.00    -0.107 C  
HETATM   21  N   UNL     1      -9.227   4.900  74.327  1.00  0.00    -0.116 NA 
HETATM   22  C   UNL     1     -10.421   5.563  73.801  1.00  0.00    -0.272 C  
HETATM   23  H   UNL     1      -8.975   5.268  75.244  1.00  0.00     0.000 HD 
HETATM   24  C   UNL     1     -10.852   4.978  72.457  1.00  0.00    -0.257 C  
ENDBRANCH  17  18
ENDBRANCH   6  13
ENDBRANCH   3   4
ENDBRANCH   2   3
BRANCH   2  25
HETATM   25  C   UNL     1     -10.209  12.786  65.438  1.00  0.00    -0.299 A  
HETATM   26 CL   UNL     1      -8.128  12.361  67.225  1.00  0.00    -0.177 Cl 
HETATM   27  C   UNL     1     -10.988  13.711  64.697  1.00  0.00    -0.396 A  
HETATM   28 CL   UNL     1     -12.158  13.215  63.517  1.00  0.00    -0.605 Cl 
HETATM   29  F   UNL     1      -8.239  15.230  67.347  1.00  0.00    -0.145 F  
HETATM   30  C   UNL     1     -10.842  15.095  64.859  1.00  0.00    -0.437 A  
HETATM   31  C   UNL     1      -9.920  15.599  65.764  1.00  0.00    -0.390 A  
HETATM   32  C   UNL     1      -9.250  13.325  66.324  1.00  0.00    -0.051 A  
HETATM   33  C   UNL     1      -9.132  14.716  66.487  1.00  0.00    -0.237 A  
ENDBRANCH   2  25
TORSDOF 5
ENDMDL
MODEL      224
REMARK 921   NORMALIZED FREE ENERGY PREDICTED BY IDOCK:   -4.35 KCAL/MOL
REMARK 922        TOTAL FREE ENERGY PREDICTED BY IDOCK:   -6.29 KCAL/MOL
REMARK 923 INTER-LIGAND FREE ENERGY PREDICTED BY IDOCK:   -5.18 KCAL/MOL
REMARK 924 INTRA-LIGAND FREE ENERGY PREDICTED BY IDOCK:   -1.11 KCAL/MOL
REMARK 927      BINDING AFFINITY PREDICTED BY RF-SCORE:    0.00 PKD
ROOT
HETATM    1  C   UNL     1      -9.735   6.849  69.364  1.00  0.00    -0.157 C  
HETATM    2  C   UNL     1      -8.765   7.931  68.887  1.00  0.00    -0.135 C  
ENDROOT
BRANCH   2   3
HETATM    3  O   UNL     1      -8.286   8.598  70.057  1.00  0.00    -0.115 OA 
BRANCH   3   4
HETATM    4  C   UNL     1      -7.776   9.861  69.980  1.00  0.00    -0.178 A  
HETATM    5  C   UNL     1      -6.903  12.401  69.522  1.00  0.00     0.082 A  
HETATM    6  C   UNL     1      -8.006  11.963  68.798  1.00  0.00    -0.040 A  
HETATM    7  H1  UNL     1      -5.032  10.059  71.974  1.00  0.00     0.000 HD 
HETATM    8  N   UNL     1      -6.232  11.653  70.429  1.00  0.00    -0.259 NA 
HETATM    9  C   UNL     1      -8.441  10.666  69.047  1.00  0.00    -0.148 A  
HETATM   10  C   UNL     1      -6.658  10.392  70.627  1.00  0.00     0.006 A  
HETATM   11  H2  UNL     1      -5.539   8.837  71.005  1.00  0.00     0.000 HD 
HETATM   12  N   UNL     1      -5.849   9.672  71.502  1.00  0.00    -0.184 NA 
BRANCH   6  13
HETATM   13  C   UNL     1      -8.623  12.816  67.806  1.00  0.00    -0.184 A  
HETATM   14  N   UNL     1      -9.485  14.646  66.760  1.00  0.00    -0.248 NA 
HETATM   15  C   UNL     1      -8.881  14.200  67.857  1.00  0.00    -0.182 A  
HETATM   16  C   UNL     1      -9.105  12.427  66.572  1.00  0.00    -0.181 A  
HETATM   17  N   UNL     1      -9.634  13.551  65.994  1.00  0.00    -0.213 NA 
BRANCH  17  18
HETATM   18  C   UNL     1     -10.329  13.639  64.710  1.00  0.00    -0.392 C  
HETATM   19  C   UNL     1     -10.755  12.263  64.178  1.00  0.00    -0.412 C  
HETATM   20  C   UNL     1     -11.998  11.722  64.885  1.00  0.00     0.004 C  
HETATM   21  N   UNL     1     -13.106  12.678  64.851  1.00  0.00    -0.809 NA 
HETATM   22  C   UNL     1     -12.741  13.966  65.444  1.00  0.00    -0.490 C  
HETATM   23  H   UNL     1     -13.941  12.292  65.291  1.00  0.00     0.000 HD 
HETATM   24  C   UNL     1     -11.531  14.590  64.752  1.00  0.00    -0.408 C  
ENDBRANCH  17  18
ENDBRANCH   6  13
ENDBRANCH   3   4
ENDBRANCH   2   3
BRANCH   2  25
HETATM   25  C   UNL     1      -7.641   7.316  68.051  1.00  0.00    -0.115 A  
HETATM   26 CL   UNL     1      -8.258   8.873  65.837  1.00  0.00    -0.115 Cl 
HETATM   27  C   UNL     1      -6.770   6.373  68.653  1.00  0.00    -0.061 A  
HETATM   28 CL   UNL     1      -6.908   5.898  70.316  1.00  0.00    -0.052 Cl 
HETATM   29  F   UNL     1      -6.101   7.341  64.716  1.00  0.00    -0.035 F  
HETATM   30  C   UNL     1      -5.719   5.779  67.941  1.00  0.00    -0.012 A  
HETATM   31  C   UNL     1      -5.508   6.103  66.609  1.00  0.00    -0.012 A  
HETATM   32  C   UNL     1      -7.380   7.658  66.705  1.00  0.00    -0.089 A  
HETATM   33  C   UNL     1      -6.335   7.037  66.002  1.00  0.00    -0.046 A  
ENDBRANCH   2  25
TORSDOF 5
ENDMDL
MODEL      225
REMARK 921   NORMALIZED FREE ENERGY PREDICTED BY IDOCK:   -4.26 KCAL/MOL
REMARK 922        TOTAL FREE ENERGY PREDICTED BY IDOCK:   -6.18 KCAL/MOL
REMARK 923 INTER-LIGAND FREE ENERGY PREDICTED BY IDOCK:   -5.51 KCAL/MOL
REMARK 924 INTRA-LIGAND FREE ENERGY PREDICTED BY IDOCK:   -0.67 KCAL/MOL
REMARK 927      BINDING AFFINITY PREDICTED BY RF-SCORE:    0.00 PKD
ROOT
HETATM    1  C   UNL     1      -8.572  10.251  69.731  1.00  0.00    -0.078 C  
HETATM    2  C   UNL     1      -9.723  10.112  68.732  1.00  0.00    -0.172 C  
ENDROOT
BRANCH   2   3
HETATM    3  O   UNL     1     -10.712   9.292  69.357  1.00  0.00    -0.225 OA 
BRANCH   3   4
HETATM    4  C   UNL     1     -10.612   7.931  69.324  1.00  0.00    -0.188 A  
HETATM    5  C   UNL     1     -10.324   5.250  68.934  1.00  0.00    -0.158 A  
HETATM    6  C   UNL     1      -9.668   6.100  68.051  1.00  0.00    -0.122 A  
HETATM    7  H1  UNL     1     -12.609   6.626  71.742  1.00  0.00     0.000 HD 
HETATM    8  N   UNL     1     -11.099   5.662  69.965  1.00  0.00    -0.253 NA 
HETATM    9  C   UNL     1      -9.821   7.465  68.266  1.00  0.00    -0.173 A  
HETATM   10  C   UNL     1     -11.253   6.989  70.131  1.00  0.00    -0.284 A  
HETATM   11  H2  UNL     1     -12.867   7.900  70.743  1.00  0.00     0.000 HD 
HETATM   12  N   UNL     1     -12.141   7.314  71.153  1.00  0.00    -0.329 NA 
BRANCH   6  13
HETATM   13  C   UNL     1      -8.909   5.565  66.941  1.00  0.00    -0.112 A  
HETATM   14  N   UNL     1      -7.531   5.415  65.134  1.00  0.00    -0.072 NA 
HETATM   15  C   UNL     1      -8.043   6.231  66.051  1.00  0.00    -0.119 A  
HETATM   16  C   UNL     1      -8.889   4.251  66.515  1.00  0.00    -0.116 A  
HETATM   17  N   UNL     1      -8.071   4.216  65.417  1.00  0.00    -0.100 NA 
BRANCH  17  18
HETATM   18  C   UNL     1      -7.785   3.060  64.567  1.00  0.00    -0.077 C  
HETATM   19  C   UNL     1      -8.898   2.005  64.617  1.00  0.00    -0.109 C  
HETATM   20  C   UNL     1     -10.116   2.399  63.780  1.00  0.00    -0.139 C  
HETATM   21  N   UNL     1      -9.748   2.726  62.402  1.00  0.00    -0.092 NA 
HETATM   22  C   UNL     1      -8.756   3.800  62.337  1.00  0.00    -0.082 C  
HETATM   23  H   UNL     1     -10.571   2.950  61.843  1.00  0.00     0.000 HD 
HETATM   24  C   UNL     1      -7.488   3.453  63.115  1.00  0.00    -0.054 C  
ENDBRANCH  17  18
ENDBRANCH   6  13
ENDBRANCH   3   4
ENDBRANCH   2   3
BRANCH   2  25
HETATM   25  C   UNL     1     -10.257  11.489  68.333  1.00  0.00    -0.211 A  
HETATM   26 CL   UNL     1     -12.003  11.581  70.489  1.00  0.00    -0.461 Cl 
HETATM   27  C   UNL     1      -9.688  12.153  67.216  1.00  0.00    -0.191 A  
HETATM   28 CL   UNL     1      -8.386  11.480  66.289  1.00  0.00    -0.126 Cl 
HETATM   29  F   UNL     1     -12.699  14.078  69.246  1.00  0.00    -0.286 F  
HETATM   30  C   UNL     1     -10.132  13.417  66.804  1.00  0.00    -0.260 A  
HETATM   31  C   UNL     1     -11.157  14.054  67.489  1.00  0.00    -0.313 A  
HETATM   32  C   UNL     1     -11.272  12.176  69.036  1.00  0.00    -0.260 A  
HETATM   33  C   UNL     1     -11.717  13.434  68.596  1.00  0.00    -0.349 A  
ENDBRANCH   2  25
TORSDOF 5
ENDMDL
MODEL      226
REMARK 921   NORMALIZED FREE ENERGY PREDICTED BY IDOCK:   -4.25 KCAL/MOL
REMARK 922        TOTAL FREE ENERGY PREDICTED BY IDOCK:   -6.16 KCAL/MOL
REMARK 923 INTER-LIGAND FREE ENERGY PREDICTED BY IDOCK:   -5.79 KCAL/MOL
REMARK 924 INTRA-LIGAND FREE ENERGY PREDICTED BY IDOCK:   -0.37 KCAL/MOL
REMARK 927      BINDING AFFINITY PREDICTED BY RF-SCORE:    0.00 PKD
ROOT
HETATM    1  C   UNL     1     -11.391   5.822  66.757  1.00  0.00     0.367 C  
HETATM    2  C   UNL     1      -9.879   5.743  66.539  1.00  0.00    -0.161 C  
ENDROOT
BRANCH   2   3
HETATM    3  O   UNL     1      -9.276   6.555  67.548  1.00  0.00    -0.115 OA 
BRANCH   3   4
HETATM    4  C   UNL     1      -8.789   7.794  67.247  1.00  0.00    -0.128 A  
HETATM    5  C   UNL     1      -8.138  10.373  66.655  1.00  0.00    -0.122 A  
HETATM    6  C   UNL     1      -9.359  10.148  67.282  1.00  0.00    -0.173 A  
HETATM    7  H1  UNL     1      -5.819   7.444  65.635  1.00  0.00     0.000 HD 
HETATM    8  N   UNL     1      -7.259   9.402  66.314  1.00  0.00    -0.091 NA 
HETATM    9  C   UNL     1      -9.674   8.827  67.581  1.00  0.00    -0.210 A  
HETATM   10  C   UNL     1      -7.604   8.130  66.589  1.00  0.00    -0.093 A  
HETATM   11  H2  UNL     1      -7.193   6.559  65.507  1.00  0.00     0.000 HD 
HETATM   12  N   UNL     1      -6.684   7.199  66.116  1.00  0.00    -0.052 NA 
BRANCH   6  13
HETATM   13  C   UNL     1     -10.260  11.246  67.554  1.00  0.00    -0.217 A  
HETATM   14  N   UNL     1     -11.845  12.552  68.539  1.00  0.00    -0.315 NA 
HETATM   15  C   UNL     1     -11.157  11.418  68.627  1.00  0.00    -0.236 A  
HETATM   16  C   UNL     1     -10.432  12.380  66.784  1.00  0.00    -0.221 A  
HETATM   17  N   UNL     1     -11.408  13.118  67.401  1.00  0.00    -0.290 NA 
BRANCH  17  18
HETATM   18  C   UNL     1     -11.994  14.373  66.929  1.00  0.00    -0.399 C  
HETATM   19  C   UNL     1     -11.034  15.562  67.077  1.00  0.00    -0.283 C  
HETATM   20  C   UNL     1      -9.958  15.583  65.991  1.00  0.00    -0.330 C  
HETATM   21  N   UNL     1     -10.537  15.524  64.648  1.00  0.00    -0.655 NA 
HETATM   22  C   UNL     1     -11.380  14.341  64.462  1.00  0.00    -0.334 C  
HETATM   23  H   UNL     1      -9.814  15.578  63.931  1.00  0.00     0.000 HD 
HETATM   24  C   UNL     1     -12.510  14.280  65.488  1.00  0.00    -0.434 C  
ENDBRANCH  17  18
ENDBRANCH   6  13
ENDBRANCH   3   4
ENDBRANCH   2   3
BRANCH   2  25
HETATM   25  C   UNL     1      -9.404   4.289  66.584  1.00  0.00    -0.179 A  
HETATM   26 CL   UNL     1      -9.513   4.201  69.356  1.00  0.00    -0.246 Cl 
HETATM   27  C   UNL     1      -9.192   3.595  65.365  1.00  0.00    -0.153 A  
HETATM   28 CL   UNL     1      -9.473   4.318  63.814  1.00  0.00    -0.146 Cl 
HETATM   29  F   UNL     1      -8.520   1.549  68.865  1.00  0.00    -0.063 F  
HETATM   30  C   UNL     1      -8.762   2.261  65.341  1.00  0.00    -0.119 A  
HETATM   31  C   UNL     1      -8.527   1.582  66.527  1.00  0.00    -0.096 A  
HETATM   32  C   UNL     1      -9.194   3.563  67.777  1.00  0.00    -0.184 A  
HETATM   33  C   UNL     1      -8.744   2.233  67.732  1.00  0.00    -0.112 A  
ENDBRANCH   2  25
TORSDOF 5
ENDMDL
MODEL      227
REMARK 921   NORMALIZED FREE ENERGY PREDICTED BY IDOCK:   -4.23 KCAL/MOL
REMARK 922        TOTAL FREE ENERGY PREDICTED BY IDOCK:   -6.14 KCAL/MOL
REMARK 923 INTER-LIGAND FREE ENERGY PREDICTED BY IDOCK:   -6.19 KCAL/MOL
REMARK 924 INTRA-LIGAND FREE ENERGY PREDICTED BY IDOCK:    0.06 KCAL/MOL
REMARK 927      BINDING AFFINITY PREDICTED BY RF-SCORE:    0.00 PKD
ROOT
HETATM    1  C   UNL     1      -7.017   6.529  69.485  1.00  0.00    -0.067 C  
HETATM    2  C   UNL     1      -7.313   7.712  70.407  1.00  0.00    -0.071 C  
ENDROOT
BRANCH   2   3
HETATM    3  O   UNL     1      -8.719   7.956  70.324  1.00  0.00    -0.136 OA 
BRANCH   3   4
HETATM    4  C   UNL     1      -9.413   7.653  69.189  1.00  0.00    -0.154 A  
HETATM    5  C   UNL     1     -10.755   7.373  66.835  1.00  0.00    -0.254 A  
HETATM    6  C   UNL     1      -9.870   8.439  66.944  1.00  0.00    -0.313 A  
HETATM    7  H1  UNL     1     -11.423   4.986  69.810  1.00  0.00     0.000 HD 
HETATM    8  N   UNL     1     -11.001   6.474  67.816  1.00  0.00    -0.316 NA 
HETATM    9  C   UNL     1      -9.189   8.565  68.150  1.00  0.00    -0.142 A  
HETATM   10  C   UNL     1     -10.350   6.639  68.983  1.00  0.00    -0.192 A  
HETATM   11  H2  UNL     1     -11.055   6.267  70.765  1.00  0.00     0.000 HD 
HETATM   12  N   UNL     1     -10.738   5.727  69.960  1.00  0.00    -0.313 NA 
BRANCH   6  13
HETATM   13  C   UNL     1      -9.718   9.384  65.859  1.00  0.00    -0.355 A  
HETATM   14  N   UNL     1      -8.913  10.451  64.016  1.00  0.00    -0.210 NA 
HETATM   15  C   UNL     1      -8.754   9.414  64.832  1.00  0.00    -0.190 A  
HETATM   16  C   UNL     1     -10.510  10.488  65.613  1.00  0.00    -0.143 A  
HETATM   17  N   UNL     1      -9.974  11.109  64.515  1.00  0.00    -0.272 NA 
BRANCH  17  18
HETATM   18  C   UNL     1     -10.418  12.363  63.907  1.00  0.00    -0.439 C  
HETATM   19  C   UNL     1     -11.825  12.258  63.303  1.00  0.00    -0.476 C  
HETATM   20  C   UNL     1     -12.923  12.312  64.367  1.00  0.00    -0.064 C  
HETATM   21  N   UNL     1     -12.793  13.490  65.226  1.00  0.00    -0.704 NA 
HETATM   22  C   UNL     1     -11.487  13.551  65.884  1.00  0.00    -0.320 C  
HETATM   23  H   UNL     1     -13.552  13.537  65.906  1.00  0.00     0.000 HD 
HETATM   24  C   UNL     1     -10.340  13.549  64.876  1.00  0.00    -0.395 C  
ENDBRANCH  17  18
ENDBRANCH   6  13
ENDBRANCH   3   4
ENDBRANCH   2   3
BRANCH   2  25
HETATM   25  C   UNL     1      -6.845   7.414  71.833  1.00  0.00    -0.058 A  
HETATM   26 CL   UNL     1      -8.081   4.928  71.859  1.00  0.00    -0.111 Cl 
HETATM   27  C   UNL     1      -6.003   8.346  72.492  1.00  0.00    -0.065 A  
HETATM   28 CL   UNL     1      -5.457   9.810  71.741  1.00  0.00    -0.068 Cl 
HETATM   29  F   UNL     1      -7.031   4.930  74.534  1.00  0.00    -0.067 F  
HETATM   30  C   UNL     1      -5.538   8.126  73.797  1.00  0.00    -0.066 A  
HETATM   31  C   UNL     1      -5.900   6.976  74.482  1.00  0.00    -0.070 A  
HETATM   32  C   UNL     1      -7.166   6.233  72.539  1.00  0.00    -0.084 A  
HETATM   33  C   UNL     1      -6.707   6.040  73.852  1.00  0.00    -0.079 A  
ENDBRANCH   2  25
TORSDOF 5
ENDMDL
MODEL      228
REMARK 921   NORMALIZED FREE ENERGY PREDICTED BY IDOCK:   -4.18 KCAL/MOL
REMARK 922        TOTAL FREE ENERGY PREDICTED BY IDOCK:   -6.08 KCAL/MOL
REMARK 923 INTER-LIGAND FREE ENERGY PREDICTED BY IDOCK:   -5.65 KCAL/MOL
REMARK 924 INTRA-LIGAND FREE ENERGY PREDICTED BY IDOCK:   -0.43 KCAL/MOL
REMARK 927      BINDING AFFINITY PREDICTED BY RF-SCORE:    0.00 PKD
ROOT
HETATM    1  C   UNL     1      -6.654  18.837  70.078  1.00  0.00     0.093 C  
HETATM    2  C   UNL     1      -6.920  17.899  68.899  1.00  0.00    -0.260 C  
ENDROOT
BRANCH   2   3
HETATM    3  O   UNL     1      -7.420  16.679  69.449  1.00  0.00    -0.213 OA 
BRANCH   3   4
HETATM    4  C   UNL     1      -7.480  15.545  68.692  1.00  0.00    -0.131 A  
HETATM    5  C   UNL     1      -7.790  13.152  67.427  1.00  0.00    -0.165 A  
HETATM    6  C   UNL     1      -8.729  13.491  68.395  1.00  0.00    -0.140 A  
HETATM    7  H1  UNL     1      -4.754  15.433  66.666  1.00  0.00     0.000 HD 
HETATM    8  N   UNL     1      -6.733  13.922  67.077  1.00  0.00     0.144 NA 
HETATM    9  C   UNL     1      -8.559  14.718  69.027  1.00  0.00    -0.137 A  
HETATM   10  C   UNL     1      -6.578  15.091  67.728  1.00  0.00    -0.169 A  
HETATM   11  H2  UNL     1      -4.883  15.922  68.226  1.00  0.00     0.000 HD 
HETATM   12  N   UNL     1      -5.414  15.766  67.370  1.00  0.00    -0.324 NA 
BRANCH   6  13
HETATM   13  C   UNL     1      -9.793  12.575  68.742  1.00  0.00     0.008 A  
HETATM   14  N   UNL     1     -11.836  11.748  69.315  1.00  0.00    -0.318 NA 
HETATM   15  C   UNL     1     -11.150  12.844  69.007  1.00  0.00    -0.233 A  
HETATM   16  C   UNL     1      -9.682  11.207  68.897  1.00  0.00    -0.150 A  
HETATM   17  N   UNL     1     -10.925  10.761  69.264  1.00  0.00    -0.224 NA 
BRANCH  17  18
HETATM   18  C   UNL     1     -11.302   9.391  69.613  1.00  0.00     0.008 C  
HETATM   19  C   UNL     1     -10.380   8.346  68.969  1.00  0.00    -0.231 C  
HETATM   20  C   UNL     1      -9.037   8.227  69.691  1.00  0.00    -0.154 C  
HETATM   21  N   UNL     1      -9.207   7.983  71.124  1.00  0.00    -0.146 NA 
HETATM   22  C   UNL     1     -10.005   9.027  71.770  1.00  0.00    -0.289 C  
HETATM   23  H   UNL     1      -8.306   7.867  71.588  1.00  0.00     0.000 HD 
HETATM   24  C   UNL     1     -11.384   9.168  71.128  1.00  0.00    -0.392 C  
ENDBRANCH  17  18
ENDBRANCH   6  13
ENDBRANCH   3   4
ENDBRANCH   2   3
BRANCH   2  25
HETATM   25  C   UNL     1      -7.890  18.544  67.906  1.00  0.00    -0.268 A  
HETATM   26 CL   UNL     1     -10.103  17.921  69.461  1.00  0.00    -0.005 Cl 
HETATM   27  C   UNL     1      -7.370  19.202  66.762  1.00  0.00    -0.214 A  
HETATM   28 CL   UNL     1      -5.669  19.329  66.447  1.00  0.00    -0.169 Cl 
HETATM   29  F   UNL     1     -11.450  19.168  67.250  1.00  0.00    -0.358 F  
HETATM   30  C   UNL     1      -8.207  19.815  65.819  1.00  0.00    -0.111 A  
HETATM   31  C   UNL     1      -9.583  19.789  65.986  1.00  0.00    -0.425 A  
HETATM   32  C   UNL     1      -9.293  18.566  68.072  1.00  0.00    -0.301 A  
HETATM   33  C   UNL     1     -10.115  19.168  67.107  1.00  0.00    -0.373 A  
ENDBRANCH   2  25
TORSDOF 5
ENDMDL
MODEL      229
REMARK 921   NORMALIZED FREE ENERGY PREDICTED BY IDOCK:   -4.07 KCAL/MOL
REMARK 922        TOTAL FREE ENERGY PREDICTED BY IDOCK:   -5.93 KCAL/MOL
REMARK 923 INTER-LIGAND FREE ENERGY PREDICTED BY IDOCK:   -6.65 KCAL/MOL
REMARK 924 INTRA-LIGAND FREE ENERGY PREDICTED BY IDOCK:    0.72 KCAL/MOL
REMARK 927      BINDING AFFINITY PREDICTED BY RF-SCORE:    0.00 PKD
ROOT
HETATM    1  C   UNL     1      -8.609   7.464  68.987  1.00  0.00    -0.133 C  
HETATM    2  C   UNL     1      -9.224   8.609  69.793  1.00  0.00    -0.154 C  
ENDROOT
BRANCH   2   3
HETATM    3  O   UNL     1     -10.378   9.044  69.072  1.00  0.00    -0.210 OA 
BRANCH   3   4
HETATM    4  C   UNL     1     -10.263   9.550  67.810  1.00  0.00    -0.216 A  
HETATM    5  C   UNL     1     -10.184  10.838  65.410  1.00  0.00    -0.276 A  
HETATM    6  C   UNL     1     -10.320  11.619  66.552  1.00  0.00    -0.259 A  
HETATM    7  H1  UNL     1     -10.088   6.972  65.605  1.00  0.00     0.000 HD 
HETATM    8  N   UNL     1     -10.097   9.487  65.409  1.00  0.00    -0.088 NA 
HETATM    9  C   UNL     1     -10.354  10.947  67.769  1.00  0.00    -0.218 A  
HETATM   10  C   UNL     1     -10.162   8.862  66.599  1.00  0.00    -0.268 A  
HETATM   11  H2  UNL     1     -11.002   7.136  66.956  1.00  0.00     0.000 HD 
HETATM   12  N   UNL     1     -10.161   7.474  66.489  1.00  0.00    -0.179 NA 
BRANCH   6  13
HETATM   13  C   UNL     1     -10.466  13.055  66.449  1.00  0.00    -0.285 A  
HETATM   14  N   UNL     1     -11.370  15.122  66.138  1.00  0.00    -0.278 NA 
HETATM   15  C   UNL     1     -11.619  13.817  66.175  1.00  0.00    -0.352 A  
HETATM   16  C   UNL     1      -9.465  13.996  66.597  1.00  0.00    -0.287 A  
HETATM   17  N   UNL     1     -10.050  15.216  66.377  1.00  0.00    -0.261 NA 
BRANCH  17  18
HETATM   18  C   UNL     1      -9.387  16.519  66.351  1.00  0.00    -0.287 C  
HETATM   19  C   UNL     1      -9.913  17.468  67.437  1.00  0.00    -0.315 C  
HETATM   20  C   UNL     1      -9.352  17.140  68.822  1.00  0.00    -0.252 C  
HETATM   21  N   UNL     1      -7.890  17.085  68.819  1.00  0.00    -0.253 NA 
HETATM   22  C   UNL     1      -7.376  16.111  67.853  1.00  0.00    -0.129 C  
HETATM   23  H   UNL     1      -7.525  16.904  69.754  1.00  0.00     0.000 HD 
HETATM   24  C   UNL     1      -7.860  16.407  66.435  1.00  0.00    -0.297 C  
ENDBRANCH  17  18
ENDBRANCH   6  13
ENDBRANCH   3   4
ENDBRANCH   2   3
BRANCH   2  25
HETATM   25  C   UNL     1      -9.549   8.152  71.216  1.00  0.00    -0.203 A  
HETATM   26 CL   UNL     1      -6.948   8.575  72.087  1.00  0.00    -0.104 Cl 
HETATM   27  C   UNL     1     -10.886   7.808  71.542  1.00  0.00    -0.227 A  
HETATM   28 CL   UNL     1     -12.185   7.906  70.397  1.00  0.00     0.189 Cl 
HETATM   29  F   UNL     1      -8.071   7.551  74.526  1.00  0.00    -0.168 F  
HETATM   30  C   UNL     1     -11.247   7.387  72.830  1.00  0.00    -0.380 A  
HETATM   31  C   UNL     1     -10.288   7.292  73.827  1.00  0.00    -0.360 A  
HETATM   32  C   UNL     1      -8.600   8.084  72.260  1.00  0.00    -0.157 A  
HETATM   33  C   UNL     1      -8.977   7.641  73.539  1.00  0.00    -0.241 A  
ENDBRANCH   2  25
TORSDOF 5
ENDMDL
MODEL      230
REMARK 921   NORMALIZED FREE ENERGY PREDICTED BY IDOCK:   -4.05 KCAL/MOL
REMARK 922        TOTAL FREE ENERGY PREDICTED BY IDOCK:   -5.90 KCAL/MOL
REMARK 923 INTER-LIGAND FREE ENERGY PREDICTED BY IDOCK:   -5.28 KCAL/MOL
REMARK 924 INTRA-LIGAND FREE ENERGY PREDICTED BY IDOCK:   -0.62 KCAL/MOL
REMARK 927      BINDING AFFINITY PREDICTED BY RF-SCORE:    0.00 PKD
ROOT
HETATM    1  C   UNL     1      -7.220   8.834  71.641  1.00  0.00    -0.095 C  
HETATM    2  C   UNL     1      -8.331   9.105  70.626  1.00  0.00    -0.205 C  
ENDROOT
BRANCH   2   3
HETATM    3  O   UNL     1      -7.690   9.375  69.378  1.00  0.00    -0.076 OA 
BRANCH   3   4
HETATM    4  C   UNL     1      -8.421   9.513  68.234  1.00  0.00    -0.119 A  
HETATM    5  C   UNL     1      -9.634   9.616  65.796  1.00  0.00    -0.263 A  
HETATM    6  C   UNL     1      -8.692   8.614  66.001  1.00  0.00    -0.196 A  
HETATM    7  H1  UNL     1     -10.392  12.266  68.517  1.00  0.00     0.000 HD 
HETATM    8  N   UNL     1      -9.982  10.544  66.718  1.00  0.00    -0.196 NA 
HETATM    9  C   UNL     1      -8.086   8.573  67.252  1.00  0.00    -0.105 A  
HETATM   10  C   UNL     1      -9.357  10.497  67.909  1.00  0.00    -0.143 A  
HETATM   11  H2  UNL     1      -8.847  12.027  69.010  1.00  0.00     0.000 HD 
HETATM   12  N   UNL     1      -9.709  11.546  68.754  1.00  0.00    -0.170 NA 
BRANCH   6  13
HETATM   13  C   UNL     1      -8.343   7.702  64.934  1.00  0.00    -0.054 A  
HETATM   14  N   UNL     1      -7.693   6.887  62.909  1.00  0.00    -0.102 NA 
HETATM   15  C   UNL     1      -7.902   7.987  63.626  1.00  0.00    -0.142 A  
HETATM   16  C   UNL     1      -8.382   6.322  64.986  1.00  0.00    -0.099 A  
HETATM   17  N   UNL     1      -8.009   5.881  63.743  1.00  0.00    -0.118 NA 
BRANCH  17  18
HETATM   18  C   UNL     1      -7.964   4.495  63.277  1.00  0.00    -0.080 C  
HETATM   19  C   UNL     1      -7.633   3.506  64.403  1.00  0.00    -0.076 C  
HETATM   20  C   UNL     1      -8.834   3.229  65.309  1.00  0.00    -0.132 C  
HETATM   21  N   UNL     1     -10.006   2.800  64.544  1.00  0.00    -0.341 NA 
HETATM   22  C   UNL     1     -10.391   3.781  63.527  1.00  0.00    -0.220 C  
HETATM   23  H   UNL     1     -10.789   2.580  65.160  1.00  0.00     0.000 HD 
HETATM   24  C   UNL     1      -9.249   4.072  62.556  1.00  0.00    -0.113 C  
ENDBRANCH  17  18
ENDBRANCH   6  13
ENDBRANCH   3   4
ENDBRANCH   2   3
BRANCH   2  25
HETATM   25  C   UNL     1      -9.297   7.921  70.555  1.00  0.00    -0.162 A  
HETATM   26 CL   UNL     1     -11.512   9.531  71.009  1.00  0.00    -0.387 Cl 
HETATM   27  C   UNL     1      -8.789   6.633  70.245  1.00  0.00    -0.152 A  
HETATM   28 CL   UNL     1      -7.111   6.343  69.918  1.00  0.00    -0.070 Cl 
HETATM   29  F   UNL     1     -12.835   6.983  70.873  1.00  0.00    -0.406 F  
HETATM   30  C   UNL     1      -9.624   5.511  70.161  1.00  0.00    -0.223 A  
HETATM   31  C   UNL     1     -10.987   5.637  70.386  1.00  0.00    -0.278 A  
HETATM   32  C   UNL     1     -10.694   8.028  70.741  1.00  0.00    -0.223 A  
HETATM   33  C   UNL     1     -11.511   6.888  70.672  1.00  0.00    -0.336 A  
ENDBRANCH   2  25
TORSDOF 5
ENDMDL
MODEL      231
REMARK 921   NORMALIZED FREE ENERGY PREDICTED BY IDOCK:   -4.01 KCAL/MOL
REMARK 922        TOTAL FREE ENERGY PREDICTED BY IDOCK:   -5.85 KCAL/MOL
REMARK 923 INTER-LIGAND FREE ENERGY PREDICTED BY IDOCK:   -6.09 KCAL/MOL
REMARK 924 INTRA-LIGAND FREE ENERGY PREDICTED BY IDOCK:    0.24 KCAL/MOL
REMARK 927      BINDING AFFINITY PREDICTED BY RF-SCORE:    0.00 PKD
ROOT
HETATM    1  C   UNL     1     -10.528  11.412  65.199  1.00  0.00    -0.351 C  
HETATM    2  C   UNL     1     -11.016  12.422  66.238  1.00  0.00    -0.286 C  
ENDROOT
BRANCH   2   3
HETATM    3  O   UNL     1     -11.898  11.716  67.114  1.00  0.00    -0.608 OA 
BRANCH   3   4
HETATM    4  C   UNL     1     -11.405  10.899  68.090  1.00  0.00    -0.315 A  
HETATM    5  C   UNL     1     -10.488   9.012  69.828  1.00  0.00    -0.218 A  
HETATM    6  C   UNL     1     -10.540   8.671  68.481  1.00  0.00    -0.162 A  
HETATM    7  H1  UNL     1     -11.751  12.447  71.094  1.00  0.00     0.000 HD 
HETATM    8  N   UNL     1     -10.868  10.209  70.333  1.00  0.00    -0.307 NA 
HETATM    9  C   UNL     1     -11.006   9.647  67.607  1.00  0.00    -0.190 A  
HETATM   10  C   UNL     1     -11.342  11.124  69.466  1.00  0.00    -0.290 A  
HETATM   11  H2  UNL     1     -12.768  12.413  69.808  1.00  0.00     0.000 HD 
HETATM   12  N   UNL     1     -11.796  12.284  70.088  1.00  0.00    -0.312 NA 
BRANCH   6  13
HETATM   13  C   UNL     1     -10.167   7.344  68.043  1.00  0.00    -0.234 A  
HETATM   14  N   UNL     1      -9.606   5.137  68.060  1.00  0.00    -0.131 NA 
HETATM   15  C   UNL     1      -9.962   6.178  68.806  1.00  0.00    -0.145 A  
HETATM   16  C   UNL     1      -9.922   6.946  66.743  1.00  0.00    -0.182 A  
HETATM   17  N   UNL     1      -9.566   5.624  66.807  1.00  0.00    -0.139 NA 
BRANCH  17  18
HETATM   18  C   UNL     1      -9.142   4.771  65.697  1.00  0.00    -0.145 C  
HETATM   19  C   UNL     1      -7.845   5.263  65.040  1.00  0.00    -0.098 C  
HETATM   20  C   UNL     1      -6.604   4.915  65.863  1.00  0.00    -0.045 C  
HETATM   21  N   UNL     1      -6.540   3.487  66.177  1.00  0.00    -0.036 NA 
HETATM   22  C   UNL     1      -7.731   3.025  66.890  1.00  0.00    -0.075 C  
HETATM   23  H   UNL     1      -5.690   3.260  66.692  1.00  0.00     0.000 HD 
HETATM   24  C   UNL     1      -9.010   3.297  66.101  1.00  0.00    -0.147 C  
ENDBRANCH  17  18
ENDBRANCH   6  13
ENDBRANCH   3   4
ENDBRANCH   2   3
BRANCH   2  25
HETATM   25  C   UNL     1      -9.831  13.055  66.971  1.00  0.00    -0.238 A  
HETATM   26 CL   UNL     1      -8.079  11.078  66.120  1.00  0.00    -0.161 Cl 
HETATM   27  C   UNL     1     -10.018  14.286  67.650  1.00  0.00    -0.225 A  
HETATM   28 CL   UNL     1     -11.536  15.126  67.667  1.00  0.00    -0.337 Cl 
HETATM   29  F   UNL     1      -6.265  12.615  67.733  1.00  0.00    -0.074 F  
HETATM   30  C   UNL     1      -8.971  14.918  68.335  1.00  0.00    -0.183 A  
HETATM   31  C   UNL     1      -7.710  14.340  68.367  1.00  0.00    -0.134 A  
HETATM   32  C   UNL     1      -8.529  12.508  66.987  1.00  0.00    -0.161 A  
HETATM   33  C   UNL     1      -7.497  13.146  67.695  1.00  0.00    -0.164 A  
ENDBRANCH   2  25
TORSDOF 5
ENDMDL
MODEL      232
REMARK 921   NORMALIZED FREE ENERGY PREDICTED BY IDOCK:   -3.94 KCAL/MOL
REMARK 922        TOTAL FREE ENERGY PREDICTED BY IDOCK:   -5.76 KCAL/MOL
REMARK 923 INTER-LIGAND FREE ENERGY PREDICTED BY IDOCK:   -5.54 KCAL/MOL
REMARK 924 INTRA-LIGAND FREE ENERGY PREDICTED BY IDOCK:   -0.22 KCAL/MOL
REMARK 927      BINDING AFFINITY PREDICTED BY RF-SCORE:    0.00 PKD
ROOT
HETATM    1  C   UNL     1      -8.586   9.969  69.787  1.00  0.00    -0.192 C  
HETATM    2  C   UNL     1      -9.708   9.711  68.780  1.00  0.00    -0.163 C  
ENDROOT
BRANCH   2   3
HETATM    3  O   UNL     1     -10.651   8.854  69.426  1.00  0.00    -0.227 OA 
BRANCH   3   4
HETATM    4  C   UNL     1     -10.486   7.500  69.413  1.00  0.00    -0.222 A  
HETATM    5  C   UNL     1     -10.123   4.824  69.052  1.00  0.00    -0.101 A  
HETATM    6  C   UNL     1      -9.661   5.673  68.054  1.00  0.00    -0.137 A  
HETATM    7  H1  UNL     1     -12.003   6.183  72.153  1.00  0.00     0.000 HD 
HETATM    8  N   UNL     1     -10.745   5.233  70.183  1.00  0.00    -0.233 NA 
HETATM    9  C   UNL     1      -9.850   7.036  68.255  1.00  0.00    -0.150 A  
HETATM   10  C   UNL     1     -10.940   6.556  70.337  1.00  0.00    -0.298 A  
HETATM   11  H2  UNL     1     -12.483   7.409  71.176  1.00  0.00     0.000 HD 
HETATM   12  N   UNL     1     -11.670   6.873  71.479  1.00  0.00    -0.292 NA 
BRANCH   6  13
HETATM   13  C   UNL     1      -9.060   5.138  66.851  1.00  0.00    -0.116 A  
HETATM   14  N   UNL     1      -7.548   4.253  65.396  1.00  0.00    -0.084 NA 
HETATM   15  C   UNL     1      -7.755   4.648  66.649  1.00  0.00    -0.091 A  
HETATM   16  C   UNL     1      -9.667   5.006  65.617  1.00  0.00    -0.106 A  
HETATM   17  N   UNL     1      -8.715   4.495  64.774  1.00  0.00    -0.140 NA 
BRANCH  17  18
HETATM   18  C   UNL     1      -8.853   4.242  63.340  1.00  0.00    -0.128 C  
HETATM   19  C   UNL     1      -7.509   4.308  62.600  1.00  0.00    -0.048 C  
HETATM   20  C   UNL     1      -6.667   3.048  62.805  1.00  0.00    -0.027 C  
HETATM   21  N   UNL     1      -7.410   1.834  62.464  1.00  0.00    -0.035 NA 
HETATM   22  C   UNL     1      -8.649   1.710  63.234  1.00  0.00    -0.072 C  
HETATM   23  H   UNL     1      -6.827   1.003  62.567  1.00  0.00     0.000 HD 
HETATM   24  C   UNL     1      -9.564   2.917  63.038  1.00  0.00    -0.093 C  
ENDBRANCH  17  18
ENDBRANCH   6  13
ENDBRANCH   3   4
ENDBRANCH   2   3
BRANCH   2  25
HETATM   25  C   UNL     1     -10.326  11.031  68.313  1.00  0.00    -0.197 A  
HETATM   26 CL   UNL     1      -8.934  10.983  65.911  1.00  0.00    -0.201 Cl 
HETATM   27  C   UNL     1     -11.304  11.660  69.124  1.00  0.00    -0.283 A  
HETATM   28 CL   UNL     1     -11.853  10.984  70.624  1.00  0.00    -0.443 Cl 
HETATM   29  F   UNL     1     -10.302  13.490  65.584  1.00  0.00    -0.270 F  
HETATM   30  C   UNL     1     -11.909  12.868  68.748  1.00  0.00    -0.353 A  
HETATM   31  C   UNL     1     -11.556  13.483  67.556  1.00  0.00    -0.385 A  
HETATM   32  C   UNL     1     -10.013  11.659  67.086  1.00  0.00    -0.199 A  
HETATM   33  C   UNL     1     -10.616  12.878  66.736  1.00  0.00    -0.257 A  
ENDBRANCH   2  25
TORSDOF 5
ENDMDL
MODEL      233
REMARK 921   NORMALIZED FREE ENERGY PREDICTED BY IDOCK:   -3.91 KCAL/MOL
REMARK 922        TOTAL FREE ENERGY PREDICTED BY IDOCK:   -5.72 KCAL/MOL
REMARK 923 INTER-LIGAND FREE ENERGY PREDICTED BY IDOCK:   -5.22 KCAL/MOL
REMARK 924 INTRA-LIGAND FREE ENERGY PREDICTED BY IDOCK:   -0.50 KCAL/MOL
REMARK 927      BINDING AFFINITY PREDICTED BY RF-SCORE:    0.00 PKD
ROOT
HETATM    1  C   UNL     1      -9.471  12.362  67.890  1.00  0.00    -0.198 C  
HETATM    2  C   UNL     1      -8.344  12.390  66.856  1.00  0.00    -0.117 C  
ENDROOT
BRANCH   2   3
HETATM    3  O   UNL     1      -7.118  12.281  67.582  1.00  0.00    -0.102 OA 
BRANCH   3   4
HETATM    4  C   UNL     1      -6.844  13.127  68.617  1.00  0.00    -0.099 A  
HETATM    5  C   UNL     1      -6.249  15.054  70.449  1.00  0.00    -0.097 A  
HETATM    6  C   UNL     1      -6.679  15.473  69.196  1.00  0.00    -0.145 A  
HETATM    7  H1  UNL     1      -5.749  11.301  71.265  1.00  0.00     0.000 HD 
HETATM    8  N   UNL     1      -6.098  13.760  70.817  1.00  0.00    -0.140 NA 
HETATM    9  C   UNL     1      -6.983  14.478  68.274  1.00  0.00    -0.111 A  
HETATM   10  C   UNL     1      -6.371  12.819  69.895  1.00  0.00    -0.030 A  
HETATM   11  H2  UNL     1      -5.441  11.117  69.665  1.00  0.00     0.000 HD 
HETATM   12  N   UNL     1      -6.095  11.526  70.332  1.00  0.00    -0.258 NA 
BRANCH   6  13
HETATM   13  C   UNL     1      -6.753  16.882  68.875  1.00  0.00    -0.199 A  
HETATM   14  N   UNL     1      -6.156  19.025  68.388  1.00  0.00    -0.217 NA 
HETATM   15  C   UNL     1      -5.710  17.797  68.634  1.00  0.00    -0.173 A  
HETATM   16  C   UNL     1      -7.903  17.637  68.748  1.00  0.00    -0.242 A  
HETATM   17  N   UNL     1      -7.493  18.917  68.480  1.00  0.00    -0.295 NA 
BRANCH  17  18
HETATM   18  C   UNL     1      -8.340  20.101  68.331  1.00  0.00     0.008 C  
HETATM   19  C   UNL     1      -8.100  20.832  67.003  1.00  0.00    -0.209 C  
HETATM   20  C   UNL     1      -8.767  20.128  65.820  1.00  0.00     0.096 C  
HETATM   21  N   UNL     1     -10.193  19.897  66.056  1.00  0.00    -0.495 NA 
HETATM   22  C   UNL     1     -10.431  19.116  67.271  1.00  0.00    -0.456 C  
HETATM   23  H   UNL     1     -10.635  19.463  65.246  1.00  0.00     0.000 HD 
HETATM   24  C   UNL     1      -9.831  19.787  68.505  1.00  0.00    -0.506 C  
ENDBRANCH  17  18
ENDBRANCH   6  13
ENDBRANCH   3   4
ENDBRANCH   2   3
BRANCH   2  25
HETATM   25  C   UNL     1      -8.528  11.270  65.829  1.00  0.00    -0.018 A  
HETATM   26 CL   UNL     1      -7.048   9.468  67.335  1.00  0.00    -0.085 Cl 
HETATM   27  C   UNL     1      -9.339  11.505  64.690  1.00  0.00    -0.022 A  
HETATM   28 CL   UNL     1     -10.158  13.009  64.417  1.00  0.00    -0.308 Cl 
HETATM   29  F   UNL     1      -7.620   7.792  65.072  1.00  0.00    -0.074 F  
HETATM   30  C   UNL     1      -9.549  10.517  63.717  1.00  0.00    -0.363 A  
HETATM   31  C   UNL     1      -8.955   9.271  63.849  1.00  0.00    -0.092 A  
HETATM   32  C   UNL     1      -7.967   9.980  65.959  1.00  0.00    -0.118 A  
HETATM   33  C   UNL     1      -8.173   9.010  64.964  1.00  0.00    -0.153 A  
ENDBRANCH   2  25
TORSDOF 5
ENDMDL
MODEL      234
REMARK 921   NORMALIZED FREE ENERGY PREDICTED BY IDOCK:   -3.89 KCAL/MOL
REMARK 922        TOTAL FREE ENERGY PREDICTED BY IDOCK:   -5.70 KCAL/MOL
REMARK 923 INTER-LIGAND FREE ENERGY PREDICTED BY IDOCK:   -5.16 KCAL/MOL
REMARK 924 INTRA-LIGAND FREE ENERGY PREDICTED BY IDOCK:   -0.54 KCAL/MOL
REMARK 927      BINDING AFFINITY PREDICTED BY RF-SCORE:    0.00 PKD
ROOT
HETATM    1  C   UNL     1      -9.396  19.288  70.088  1.00  0.00     1.065 C  
HETATM    2  C   UNL     1      -9.488  18.188  69.030  1.00  0.00    -0.115 C  
ENDROOT
BRANCH   2   3
HETATM    3  O   UNL     1     -10.548  18.557  68.146  1.00  0.00    -0.350 OA 
BRANCH   3   4
HETATM    4  C   UNL     1     -10.733  17.896  66.966  1.00  0.00    -0.209 A  
HETATM    5  C   UNL     1     -10.956  16.312  64.760  1.00  0.00    -0.272 A  
HETATM    6  C   UNL     1     -10.804  15.681  65.989  1.00  0.00    -0.276 A  
HETATM    7  H1  UNL     1     -10.900  20.172  64.449  1.00  0.00     0.000 HD 
HETATM    8  N   UNL     1     -10.993  17.654  64.584  1.00  0.00    -0.492 NA 
HETATM    9  C   UNL     1     -10.696  16.503  67.105  1.00  0.00    -0.220 A  
HETATM   10  C   UNL     1     -10.857  18.425  65.680  1.00  0.00     0.086 A  
HETATM   11  H2  UNL     1      -9.939  20.145  65.777  1.00  0.00     0.000 HD 
HETATM   12  N   UNL     1     -10.810  19.785  65.388  1.00  0.00    -0.321 NA 
BRANCH   6  13
HETATM   13  C   UNL     1     -10.717  14.239  66.071  1.00  0.00    -0.304 A  
HETATM   14  N   UNL     1     -11.202  12.025  65.849  1.00  0.00    -0.329 NA 
HETATM   15  C   UNL     1     -11.596  13.262  65.564  1.00  0.00    -0.326 A  
HETATM   16  C   UNL     1      -9.722  13.509  66.693  1.00  0.00    -0.280 A  
HETATM   17  N   UNL     1     -10.070  12.191  66.555  1.00  0.00    -0.206 NA 
BRANCH  17  18
HETATM   18  C   UNL     1      -9.369  11.032  67.108  1.00  0.00    -0.164 C  
HETATM   19  C   UNL     1      -9.198   9.904  66.081  1.00  0.00    -0.211 C  
HETATM   20  C   UNL     1      -8.074  10.187  65.084  1.00  0.00    -0.148 C  
HETATM   21  N   UNL     1      -6.812  10.496  65.758  1.00  0.00    -0.154 NA 
HETATM   22  C   UNL     1      -6.938  11.634  66.670  1.00  0.00    -0.026 C  
HETATM   23  H   UNL     1      -6.060  10.645  65.085  1.00  0.00     0.000 HD 
HETATM   24  C   UNL     1      -8.015  11.400  67.727  1.00  0.00    -0.119 C  
ENDBRANCH  17  18
ENDBRANCH   6  13
ENDBRANCH   3   4
ENDBRANCH   2   3
BRANCH   2  25
HETATM   25  C   UNL     1      -8.147  18.017  68.313  1.00  0.00    -0.296 A  
HETATM   26 CL   UNL     1      -8.078  15.288  68.815  1.00  0.00    -0.153 Cl 
HETATM   27  C   UNL     1      -7.558  19.138  67.675  1.00  0.00    -0.239 A  
HETATM   28 CL   UNL     1      -8.306  20.703  67.652  1.00  0.00    -0.248 Cl 
HETATM   29  F   UNL     1      -5.559  15.554  67.458  1.00  0.00    -0.143 F  
HETATM   30  C   UNL     1      -6.334  19.044  66.999  1.00  0.00    -0.191 A  
HETATM   31  C   UNL     1      -5.661  17.832  66.940  1.00  0.00    -0.176 A  
HETATM   32  C   UNL     1      -7.460  16.787  68.205  1.00  0.00    -0.186 A  
HETATM   33  C   UNL     1      -6.225  16.716  67.540  1.00  0.00    -0.160 A  
ENDBRANCH   2  25
TORSDOF 5
ENDMDL
MODEL      235
REMARK 921   NORMALIZED FREE ENERGY PREDICTED BY IDOCK:   -3.88 KCAL/MOL
REMARK 922        TOTAL FREE ENERGY PREDICTED BY IDOCK:   -5.69 KCAL/MOL
REMARK 923 INTER-LIGAND FREE ENERGY PREDICTED BY IDOCK:   -6.22 KCAL/MOL
REMARK 924 INTRA-LIGAND FREE ENERGY PREDICTED BY IDOCK:    0.53 KCAL/MOL
REMARK 927      BINDING AFFINITY PREDICTED BY RF-SCORE:    0.00 PKD
ROOT
HETATM    1  C   UNL     1     -10.014  11.776  66.268  1.00  0.00    -0.246 C  
HETATM    2  C   UNL     1     -10.464  13.170  66.708  1.00  0.00    -0.261 C  
ENDROOT
BRANCH   2   3
HETATM    3  O   UNL     1     -11.740  13.012  67.331  1.00  0.00    -0.339 OA 
BRANCH   3   4
HETATM    4  C   UNL     1     -11.841  12.513  68.597  1.00  0.00    -0.297 A  
HETATM    5  C   UNL     1     -12.094  11.215  70.979  1.00  0.00    -0.275 A  
HETATM    6  C   UNL     1     -11.759  10.452  69.867  1.00  0.00    -0.341 A  
HETATM    7  H1  UNL     1     -12.806  15.011  70.687  1.00  0.00     0.000 HD 
HETATM    8  N   UNL     1     -12.310  12.551  70.958  1.00  0.00    -0.306 NA 
HETATM    9  C   UNL     1     -11.629  11.129  68.660  1.00  0.00    -0.383 A  
HETATM   10  C   UNL     1     -12.206  13.176  69.770  1.00  0.00    -0.202 A  
HETATM   11  H2  UNL     1     -13.287  14.681  69.155  1.00  0.00     0.000 HD 
HETATM   12  N   UNL     1     -12.539  14.526  69.830  1.00  0.00    -0.254 NA 
BRANCH   6  13
HETATM   13  C   UNL     1     -11.606   9.017  69.977  1.00  0.00     0.081 A  
HETATM   14  N   UNL     1     -11.842   6.863  70.675  1.00  0.00    -0.372 NA 
HETATM   15  C   UNL     1     -12.252   8.116  70.846  1.00  0.00    -0.099 A  
HETATM   16  C   UNL     1     -10.759   8.221  69.231  1.00  0.00    -0.128 A  
HETATM   17  N   UNL     1     -10.918   6.945  69.702  1.00  0.00    -0.256 NA 
BRANCH  17  18
HETATM   18  C   UNL     1     -10.185   5.751  69.280  1.00  0.00    -0.226 C  
HETATM   19  C   UNL     1      -8.797   6.084  68.714  1.00  0.00    -0.116 C  
HETATM   20  C   UNL     1      -7.779   6.398  69.811  1.00  0.00    -0.109 C  
HETATM   21  N   UNL     1      -7.710   5.333  70.813  1.00  0.00    -0.086 NA 
HETATM   22  C   UNL     1      -9.011   5.071  71.430  1.00  0.00    -0.135 C  
HETATM   23  H   UNL     1      -7.001   5.534  71.518  1.00  0.00     0.000 HD 
HETATM   24  C   UNL     1     -10.070   4.703  70.393  1.00  0.00    -0.275 C  
ENDBRANCH  17  18
ENDBRANCH   6  13
ENDBRANCH   3   4
ENDBRANCH   2   3
BRANCH   2  25
HETATM   25  C   UNL     1      -9.425  13.804  67.634  1.00  0.00    -0.217 A  
HETATM   26 CL   UNL     1     -10.660  16.287  67.537  1.00  0.00    -0.309 Cl 
HETATM   27  C   UNL     1      -8.406  12.988  68.189  1.00  0.00    -0.164 A  
HETATM   28 CL   UNL     1      -8.298  11.284  67.881  1.00  0.00    -0.127 Cl 
HETATM   29  F   UNL     1      -8.421  16.970  69.204  1.00  0.00    -0.243 F  
HETATM   30  C   UNL     1      -7.428  13.509  69.048  1.00  0.00     0.046 A  
HETATM   31  C   UNL     1      -7.435  14.857  69.376  1.00  0.00    -0.174 A  
HETATM   32  C   UNL     1      -9.431  15.164  68.015  1.00  0.00    -0.199 A  
HETATM   33  C   UNL     1      -8.432  15.672  68.861  1.00  0.00    -0.213 A  
ENDBRANCH   2  25
TORSDOF 5
ENDMDL
MODEL      236
REMARK 921   NORMALIZED FREE ENERGY PREDICTED BY IDOCK:   -3.86 KCAL/MOL
REMARK 922        TOTAL FREE ENERGY PREDICTED BY IDOCK:   -5.66 KCAL/MOL
REMARK 923 INTER-LIGAND FREE ENERGY PREDICTED BY IDOCK:   -4.85 KCAL/MOL
REMARK 924 INTRA-LIGAND FREE ENERGY PREDICTED BY IDOCK:   -0.80 KCAL/MOL
REMARK 927      BINDING AFFINITY PREDICTED BY RF-SCORE:    0.00 PKD
ROOT
HETATM    1  C   UNL     1     -10.543   7.280  69.467  1.00  0.00    -0.244 C  
HETATM    2  C   UNL     1      -9.443   8.043  68.727  1.00  0.00    -0.147 C  
ENDROOT
BRANCH   2   3
HETATM    3  O   UNL     1      -8.511   8.483  69.717  1.00  0.00    -0.124 OA 
BRANCH   3   4
HETATM    4  C   UNL     1      -7.687   9.544  69.476  1.00  0.00    -0.100 A  
HETATM    5  C   UNL     1      -6.287  11.780  68.795  1.00  0.00    -0.061 A  
HETATM    6  C   UNL     1      -7.668  11.818  68.643  1.00  0.00    -0.126 A  
HETATM    7  H1  UNL     1      -4.471   8.572  69.981  1.00  0.00     0.000 HD 
HETATM    8  N   UNL     1      -5.593  10.710  69.249  1.00  0.00    -0.037 NA 
HETATM    9  C   UNL     1      -8.368  10.670  68.999  1.00  0.00    -0.153 A  
HETATM   10  C   UNL     1      -6.294   9.603  69.558  1.00  0.00    -0.044 A  
HETATM   11  H2  UNL     1      -5.718   7.757  69.296  1.00  0.00     0.000 HD 
HETATM   12  N   UNL     1      -5.488   8.528  69.922  1.00  0.00    -0.029 NA 
BRANCH   6  13
HETATM   13  C   UNL     1      -8.317  12.989  68.093  1.00  0.00    -0.164 A  
HETATM   14  N   UNL     1      -8.680  14.930  66.960  1.00  0.00    -0.225 NA 
HETATM   15  C   UNL     1      -7.790  13.986  67.250  1.00  0.00    -0.122 A  
HETATM   16  C   UNL     1      -9.626  13.377  68.301  1.00  0.00    -0.220 A  
HETATM   17  N   UNL     1      -9.788  14.557  67.623  1.00  0.00    -0.221 NA 
BRANCH  17  18
HETATM   18  C   UNL     1     -10.983  15.400  67.596  1.00  0.00    -0.315 C  
HETATM   19  C   UNL     1     -12.239  14.657  68.072  1.00  0.00    -0.089 C  
HETATM   20  C   UNL     1     -12.294  14.518  69.594  1.00  0.00    -0.241 C  
HETATM   21  N   UNL     1     -12.149  15.811  70.265  1.00  0.00    -0.368 NA 
HETATM   22  C   UNL     1     -10.906  16.489  69.892  1.00  0.00    -0.283 C  
HETATM   23  H   UNL     1     -12.226  15.713  71.277  1.00  0.00     0.000 HD 
HETATM   24  C   UNL     1     -10.805  16.704  68.384  1.00  0.00    -0.361 C  
ENDBRANCH  17  18
ENDBRANCH   6  13
ENDBRANCH   3   4
ENDBRANCH   2   3
BRANCH   2  25
HETATM   25  C   UNL     1      -8.800   7.158  67.657  1.00  0.00    -0.119 A  
HETATM   26 CL   UNL     1      -9.531   8.881  65.606  1.00  0.00    -0.274 Cl 
HETATM   27  C   UNL     1      -8.097   5.992  68.056  1.00  0.00    -0.110 A  
HETATM   28 CL   UNL     1      -7.911   5.534  69.718  1.00  0.00    -0.088 Cl 
HETATM   29  F   UNL     1      -8.266   6.832  64.037  1.00  0.00    -0.121 F  
HETATM   30  C   UNL     1      -7.484   5.145  67.123  1.00  0.00    -0.087 A  
HETATM   31  C   UNL     1      -7.556   5.430  65.768  1.00  0.00    -0.083 A  
HETATM   32  C   UNL     1      -8.825   7.446  66.274  1.00  0.00    -0.159 A  
HETATM   33  C   UNL     1      -8.222   6.574  65.353  1.00  0.00    -0.135 A  
ENDBRANCH   2  25
TORSDOF 5
ENDMDL
MODEL      237
REMARK 921   NORMALIZED FREE ENERGY PREDICTED BY IDOCK:   -3.82 KCAL/MOL
REMARK 922        TOTAL FREE ENERGY PREDICTED BY IDOCK:   -5.61 KCAL/MOL
REMARK 923 INTER-LIGAND FREE ENERGY PREDICTED BY IDOCK:   -4.53 KCAL/MOL
REMARK 924 INTRA-LIGAND FREE ENERGY PREDICTED BY IDOCK:   -1.08 KCAL/MOL
REMARK 927      BINDING AFFINITY PREDICTED BY RF-SCORE:    0.00 PKD
ROOT
HETATM    1  C   UNL     1      -9.398   4.035  69.395  1.00  0.00    -0.243 C  
HETATM    2  C   UNL     1      -8.535   5.238  69.009  1.00  0.00    -0.095 C  
ENDROOT
BRANCH   2   3
HETATM    3  O   UNL     1      -9.414   6.207  68.435  1.00  0.00    -0.119 OA 
BRANCH   3   4
HETATM    4  C   UNL     1      -8.979   7.046  67.450  1.00  0.00    -0.117 A  
HETATM    5  C   UNL     1      -8.268   8.967  65.654  1.00  0.00    -0.125 A  
HETATM    6  C   UNL     1      -8.606   9.383  66.937  1.00  0.00    -0.132 A  
HETATM    7  H1  UNL     1      -8.487   5.243  64.613  1.00  0.00     0.000 HD 
HETATM    8  N   UNL     1      -8.276   7.679  65.236  1.00  0.00    -0.136 NA 
HETATM    9  C   UNL     1      -8.962   8.390  67.843  1.00  0.00    -0.138 A  
HETATM   10  C   UNL     1      -8.654   6.743  66.127  1.00  0.00    -0.143 A  
HETATM   11  H2  UNL     1      -9.671   5.121  65.741  1.00  0.00     0.000 HD 
HETATM   12  N   UNL     1      -8.724   5.464  65.580  1.00  0.00    -0.151 NA 
BRANCH   6  13
HETATM   13  C   UNL     1      -8.624  10.790  67.274  1.00  0.00    -0.130 A  
HETATM   14  N   UNL     1      -7.990  12.961  67.535  1.00  0.00    -0.167 NA 
HETATM   15  C   UNL     1      -7.628  11.767  67.078  1.00  0.00    -0.147 A  
HETATM   16  C   UNL     1      -9.656  11.475  67.884  1.00  0.00    -0.177 A  
HETATM   17  N   UNL     1      -9.220  12.765  68.042  1.00  0.00    -0.203 NA 
BRANCH  17  18
HETATM   18  C   UNL     1      -9.928  13.860  68.704  1.00  0.00    -0.189 C  
HETATM   19  C   UNL     1      -9.362  15.237  68.330  1.00  0.00    -0.194 C  
HETATM   20  C   UNL     1      -9.814  15.699  66.944  1.00  0.00    -0.238 C  
HETATM   21  N   UNL     1     -11.271  15.661  66.805  1.00  0.00    -0.165 NA 
HETATM   22  C   UNL     1     -11.815  14.327  67.066  1.00  0.00    -0.428 C  
HETATM   23  H   UNL     1     -11.564  16.007  65.892  1.00  0.00     0.000 HD 
HETATM   24  C   UNL     1     -11.441  13.821  68.457  1.00  0.00    -0.342 C  
ENDBRANCH  17  18
ENDBRANCH   6  13
ENDBRANCH   3   4
ENDBRANCH   2   3
BRANCH   2  25
HETATM   25  C   UNL     1      -7.777   5.769  70.228  1.00  0.00    -0.095 A  
HETATM   26 CL   UNL     1     -10.068   6.890  71.326  1.00  0.00    -0.200 Cl 
HETATM   27  C   UNL     1      -6.399   5.467  70.370  1.00  0.00    -0.027 A  
HETATM   28 CL   UNL     1      -5.531   4.494  69.227  1.00  0.00    -0.011 Cl 
HETATM   29  F   UNL     1      -8.168   7.723  73.315  1.00  0.00    -0.135 F  
HETATM   30  C   UNL     1      -5.653   5.922  71.467  1.00  0.00    -0.022 A  
HETATM   31  C   UNL     1      -6.256   6.692  72.450  1.00  0.00    -0.046 A  
HETATM   32  C   UNL     1      -8.376   6.523  71.263  1.00  0.00    -0.125 A  
HETATM   33  C   UNL     1      -7.607   6.986  72.343  1.00  0.00    -0.090 A  
ENDBRANCH   2  25
TORSDOF 5
ENDMDL
MODEL      238
REMARK 921   NORMALIZED FREE ENERGY PREDICTED BY IDOCK:   -3.79 KCAL/MOL
REMARK 922        TOTAL FREE ENERGY PREDICTED BY IDOCK:   -5.58 KCAL/MOL
REMARK 923 INTER-LIGAND FREE ENERGY PREDICTED BY IDOCK:   -4.89 KCAL/MOL
REMARK 924 INTRA-LIGAND FREE ENERGY PREDICTED BY IDOCK:   -0.68 KCAL/MOL
REMARK 927      BINDING AFFINITY PREDICTED BY RF-SCORE:    0.00 PKD
ROOT
HETATM    1  C   UNL     1     -10.529   8.792  67.494  1.00  0.00    -0.340 C  
HETATM    2  C   UNL     1      -9.649   9.973  67.081  1.00  0.00    -0.165 C  
ENDROOT
BRANCH   2   3
HETATM    3  O   UNL     1      -8.297   9.586  67.335  1.00  0.00    -0.123 OA 
BRANCH   3   4
HETATM    4  C   UNL     1      -7.280  10.489  67.223  1.00  0.00    -0.090 A  
HETATM    5  C   UNL     1      -5.488  12.532  67.032  1.00  0.00     0.126 A  
HETATM    6  C   UNL     1      -6.708  12.806  67.639  1.00  0.00    -0.147 A  
HETATM    7  H1  UNL     1      -4.718   9.051  65.518  1.00  0.00     0.000 HD 
HETATM    8  N   UNL     1      -5.134  11.328  66.525  1.00  0.00    -0.108 NA 
HETATM    9  C   UNL     1      -7.610  11.752  67.733  1.00  0.00    -0.127 A  
HETATM   10  C   UNL     1      -6.039  10.334  66.603  1.00  0.00    -0.064 A  
HETATM   11  H2  UNL     1      -6.336   8.930  65.279  1.00  0.00     0.000 HD 
HETATM   12  N   UNL     1      -5.625   9.165  65.971  1.00  0.00    -0.044 NA 
BRANCH   6  13
HETATM   13  C   UNL     1      -7.019  14.142  68.098  1.00  0.00    -0.126 A  
HETATM   14  N   UNL     1      -6.796  16.257  68.911  1.00  0.00    -0.153 NA 
HETATM   15  C   UNL     1      -6.148  15.156  68.543  1.00  0.00    -0.095 A  
HETATM   16  C   UNL     1      -8.276  14.703  68.204  1.00  0.00    -0.142 A  
HETATM   17  N   UNL     1      -8.093  15.961  68.717  1.00  0.00    -0.176 NA 
BRANCH  17  18
HETATM   18  C   UNL     1      -9.132  16.925  69.078  1.00  0.00    -0.174 C  
HETATM   19  C   UNL     1      -9.096  18.184  68.200  1.00  0.00    -0.298 C  
HETATM   20  C   UNL     1      -9.706  17.949  66.818  1.00  0.00    -0.314 C  
HETATM   21  N   UNL     1     -11.057  17.393  66.904  1.00  0.00     0.166 NA 
HETATM   22  C   UNL     1     -11.089  16.139  67.660  1.00  0.00    -0.212 C  
HETATM   23  H   UNL     1     -11.469  17.277  65.979  1.00  0.00     0.000 HD 
HETATM   24  C   UNL     1     -10.537  16.311  69.073  1.00  0.00    -0.286 C  
ENDBRANCH  17  18
ENDBRANCH   6  13
ENDBRANCH   3   4
ENDBRANCH   2   3
BRANCH   2  25
HETATM   25  C   UNL     1      -9.896  10.343  65.617  1.00  0.00    -0.321 A  
HETATM   26 CL   UNL     1     -11.241  12.674  66.297  1.00  0.00    -0.332 Cl 
HETATM   27  C   UNL     1      -9.354   9.520  64.596  1.00  0.00    -0.134 A  
HETATM   28 CL   UNL     1      -8.396   8.116  64.936  1.00  0.00    -0.155 Cl 
HETATM   29  F   UNL     1     -11.500  12.828  63.439  1.00  0.00    -0.480 F  
HETATM   30  C   UNL     1      -9.543   9.810  63.238  1.00  0.00     0.210 A  
HETATM   31  C   UNL     1     -10.278  10.922  62.857  1.00  0.00    -0.089 A  
HETATM   32  C   UNL     1     -10.608  11.491  65.202  1.00  0.00    -0.293 A  
HETATM   33  C   UNL     1     -10.803  11.752  63.836  1.00  0.00    -0.404 A  
ENDBRANCH   2  25
TORSDOF 5
ENDMDL
MODEL      239
REMARK 921   NORMALIZED FREE ENERGY PREDICTED BY IDOCK:   -3.76 KCAL/MOL
REMARK 922        TOTAL FREE ENERGY PREDICTED BY IDOCK:   -5.53 KCAL/MOL
REMARK 923 INTER-LIGAND FREE ENERGY PREDICTED BY IDOCK:   -4.75 KCAL/MOL
REMARK 924 INTRA-LIGAND FREE ENERGY PREDICTED BY IDOCK:   -0.78 KCAL/MOL
REMARK 927      BINDING AFFINITY PREDICTED BY RF-SCORE:    0.00 PKD
ROOT
HETATM    1  C   UNL     1     -10.836   7.820  68.392  1.00  0.00     0.009 C  
HETATM    2  C   UNL     1     -10.187   9.096  67.852  1.00  0.00    -0.216 C  
ENDROOT
BRANCH   2   3
HETATM    3  O   UNL     1      -9.484   9.692  68.944  1.00  0.00    -0.150 OA 
BRANCH   3   4
HETATM    4  C   UNL     1      -8.598  10.708  68.731  1.00  0.00    -0.150 A  
HETATM    5  C   UNL     1      -7.075  12.886  68.131  1.00  0.00    -0.108 A  
HETATM    6  C   UNL     1      -8.456  13.033  68.068  1.00  0.00    -0.181 A  
HETATM    7  H1  UNL     1      -5.440   9.475  68.961  1.00  0.00     0.000 HD 
HETATM    8  N   UNL     1      -6.438  11.738  68.460  1.00  0.00    -0.053 NA 
HETATM    9  C   UNL     1      -9.219  11.913  68.382  1.00  0.00    -0.173 A  
HETATM   10  C   UNL     1      -7.202  10.662  68.730  1.00  0.00    -0.087 A  
HETATM   11  H2  UNL     1      -6.782   8.806  68.297  1.00  0.00     0.000 HD 
HETATM   12  N   UNL     1      -6.460   9.508  68.963  1.00  0.00    -0.046 NA 
BRANCH   6  13
HETATM   13  C   UNL     1      -9.045  14.286  67.648  1.00  0.00    -0.192 A  
HETATM   14  N   UNL     1     -10.347  15.811  66.568  1.00  0.00    -0.286 NA 
HETATM   15  C   UNL     1     -10.078  14.518  66.717  1.00  0.00    -0.264 A  
HETATM   16  C   UNL     1      -8.693  15.548  68.085  1.00  0.00    -0.164 A  
HETATM   17  N   UNL     1      -9.482  16.428  67.392  1.00  0.00    -0.226 NA 
BRANCH  17  18
HETATM   18  C   UNL     1      -9.436  17.889  67.452  1.00  0.00    -0.258 C  
HETATM   19  C   UNL     1      -8.420  18.403  68.482  1.00  0.00    -0.346 C  
HETATM   20  C   UNL     1      -6.979  18.315  67.976  1.00  0.00    -0.221 C  
HETATM   21  N   UNL     1      -6.815  18.978  66.681  1.00  0.00    -0.193 NA 
HETATM   22  C   UNL     1      -7.713  18.430  65.663  1.00  0.00     0.193 C  
HETATM   23  H   UNL     1      -5.843  18.947  66.372  1.00  0.00     0.000 HD 
HETATM   24  C   UNL     1      -9.178  18.529  66.083  1.00  0.00    -0.136 C  
ENDBRANCH  17  18
ENDBRANCH   6  13
ENDBRANCH   3   4
ENDBRANCH   2   3
BRANCH   2  25
HETATM   25  C   UNL     1      -9.278   8.776  66.664  1.00  0.00    -0.223 A  
HETATM   26 CL   UNL     1      -8.159   6.581  67.942  1.00  0.00    -0.115 Cl 
HETATM   27  C   UNL     1      -9.385   9.555  65.484  1.00  0.00    -0.255 A  
HETATM   28 CL   UNL     1     -10.525  10.851  65.317  1.00  0.00    -0.323 Cl 
HETATM   29  F   UNL     1      -6.638   6.498  65.505  1.00  0.00    -0.039 F  
HETATM   30  C   UNL     1      -8.583   9.308  64.360  1.00  0.00    -0.216 A  
HETATM   31  C   UNL     1      -7.651   8.281  64.381  1.00  0.00    -0.113 A  
HETATM   32  C   UNL     1      -8.348   7.712  66.644  1.00  0.00    -0.127 A  
HETATM   33  C   UNL     1      -7.540   7.492  65.517  1.00  0.00    -0.093 A  
ENDBRANCH   2  25
TORSDOF 5
ENDMDL
MODEL      240
REMARK 921   NORMALIZED FREE ENERGY PREDICTED BY IDOCK:   -3.70 KCAL/MOL
REMARK 922        TOTAL FREE ENERGY PREDICTED BY IDOCK:   -5.46 KCAL/MOL
REMARK 923 INTER-LIGAND FREE ENERGY PREDICTED BY IDOCK:   -5.24 KCAL/MOL
REMARK 924 INTRA-LIGAND FREE ENERGY PREDICTED BY IDOCK:   -0.22 KCAL/MOL
REMARK 927      BINDING AFFINITY PREDICTED BY RF-SCORE:    0.00 PKD
ROOT
HETATM    1  C   UNL     1      -7.212   8.599  71.983  1.00  0.00    -0.074 C  
HETATM    2  C   UNL     1      -8.475   8.516  71.125  1.00  0.00    -0.156 C  
ENDROOT
BRANCH   2   3
HETATM    3  O   UNL     1      -8.055   8.637  69.764  1.00  0.00    -0.108 OA 
BRANCH   3   4
HETATM    4  C   UNL     1      -7.549   9.814  69.293  1.00  0.00    -0.097 A  
HETATM    5  C   UNL     1      -6.831  12.197  68.185  1.00  0.00    -0.075 A  
HETATM    6  C   UNL     1      -8.189  11.909  68.261  1.00  0.00    -0.157 A  
HETATM    7  H1  UNL     1      -4.156   9.647  69.345  1.00  0.00     0.000 HD 
HETATM    8  N   UNL     1      -5.845  11.374  68.614  1.00  0.00    -0.042 NA 
HETATM    9  C   UNL     1      -8.539  10.692  68.833  1.00  0.00    -0.158 A  
HETATM   10  C   UNL     1      -6.213  10.189  69.136  1.00  0.00    -0.040 A  
HETATM   11  H2  UNL     1      -5.257   8.496  68.955  1.00  0.00     0.000 HD 
HETATM   12  N   UNL     1      -5.132   9.374  69.460  1.00  0.00    -0.035 NA 
BRANCH   6  13
HETATM   13  C   UNL     1      -9.168  12.828  67.721  1.00  0.00    -0.199 A  
HETATM   14  N   UNL     1     -10.466  13.991  66.256  1.00  0.00    -0.282 NA 
HETATM   15  C   UNL     1      -9.538  13.048  66.379  1.00  0.00    -0.257 A  
HETATM   16  C   UNL     1      -9.953  13.708  68.439  1.00  0.00    -0.235 A  
HETATM   17  N   UNL     1     -10.695  14.399  67.517  1.00  0.00    -0.268 NA 
BRANCH  17  18
HETATM   18  C   UNL     1     -11.628  15.495  67.779  1.00  0.00    -0.187 C  
HETATM   19  C   UNL     1     -11.997  15.610  69.265  1.00  0.00    -0.338 C  
HETATM   20  C   UNL     1     -10.892  16.269  70.092  1.00  0.00    -0.298 C  
HETATM   21  N   UNL     1     -10.492  17.562  69.536  1.00  0.00    -0.299 NA 
HETATM   22  C   UNL     1     -10.046  17.451  68.146  1.00  0.00    -0.328 C  
HETATM   23  H   UNL     1      -9.783  18.011  70.116  1.00  0.00     0.000 HD 
HETATM   24  C   UNL     1     -11.123  16.842  67.250  1.00  0.00     0.076 C  
ENDBRANCH  17  18
ENDBRANCH   6  13
ENDBRANCH   3   4
ENDBRANCH   2   3
BRANCH   2  25
HETATM   25  C   UNL     1      -9.229   7.214  71.401  1.00  0.00    -0.150 A  
HETATM   26 CL   UNL     1     -11.298   8.534  72.699  1.00  0.00    -0.357 Cl 
HETATM   27  C   UNL     1      -8.711   5.995  70.893  1.00  0.00    -0.135 A  
HETATM   28 CL   UNL     1      -7.260   5.916  69.945  1.00  0.00    -0.071 Cl 
HETATM   29  F   UNL     1     -12.223   5.832  73.021  1.00  0.00    -0.122 F  
HETATM   30  C   UNL     1      -9.359   4.771  71.108  1.00  0.00    -0.206 A  
HETATM   31  C   UNL     1     -10.538   4.724  71.838  1.00  0.00    -0.150 A  
HETATM   32  C   UNL     1     -10.451   7.143  72.107  1.00  0.00    -0.206 A  
HETATM   33  C   UNL     1     -11.075   5.904  72.329  1.00  0.00    -0.280 A  
ENDBRANCH   2  25
TORSDOF 5
ENDMDL
MODEL      241
REMARK 921   NORMALIZED FREE ENERGY PREDICTED BY IDOCK:   -3.58 KCAL/MOL
REMARK 922        TOTAL FREE ENERGY PREDICTED BY IDOCK:   -5.30 KCAL/MOL
REMARK 923 INTER-LIGAND FREE ENERGY PREDICTED BY IDOCK:   -4.62 KCAL/MOL
REMARK 924 INTRA-LIGAND FREE ENERGY PREDICTED BY IDOCK:   -0.68 KCAL/MOL
REMARK 927      BINDING AFFINITY PREDICTED BY RF-SCORE:    0.00 PKD
ROOT
HETATM    1  C   UNL     1      -7.966  13.741  67.099  1.00  0.00    -0.065 C  
HETATM    2  C   UNL     1      -7.474  12.420  67.692  1.00  0.00    -0.138 C  
ENDROOT
BRANCH   2   3
HETATM    3  O   UNL     1      -7.571  12.546  69.112  1.00  0.00     0.062 OA 
BRANCH   3   4
HETATM    4  C   UNL     1      -6.917  11.676  69.936  1.00  0.00     0.259 A  
HETATM    5  C   UNL     1      -5.902   9.769  71.595  1.00  0.00     0.046 A  
HETATM    6  C   UNL     1      -7.031   9.439  70.855  1.00  0.00    -0.099 A  
HETATM    7  H1  UNL     1      -4.347  13.312  71.439  1.00  0.00     0.000 HD 
HETATM    8  N   UNL     1      -5.279  10.970  71.554  1.00  0.00    -0.282 NA 
HETATM    9  C   UNL     1      -7.534  10.421  70.010  1.00  0.00    -0.088 A  
HETATM   10  C   UNL     1      -5.806  11.912  70.748  1.00  0.00     0.005 A  
HETATM   11  H2  UNL     1      -5.863  13.832  71.095  1.00  0.00     0.000 HD 
HETATM   12  N   UNL     1      -5.158  13.140  70.845  1.00  0.00    -0.122 NA 
BRANCH   6  13
HETATM   13  C   UNL     1      -7.662   8.146  71.011  1.00  0.00    -0.088 A  
HETATM   14  N   UNL     1      -8.009   5.955  71.527  1.00  0.00    -0.112 NA 
HETATM   15  C   UNL     1      -7.143   6.962  71.572  1.00  0.00    -0.075 A  
HETATM   16  C   UNL     1      -8.942   7.803  70.620  1.00  0.00    -0.145 A  
HETATM   17  N   UNL     1      -9.094   6.476  70.927  1.00  0.00    -0.154 NA 
BRANCH  17  18
HETATM   18  C   UNL     1     -10.254   5.632  70.640  1.00  0.00    -0.227 C  
HETATM   19  C   UNL     1     -10.501   4.581  71.730  1.00  0.00    -0.114 C  
HETATM   20  C   UNL     1     -11.161   5.174  72.976  1.00  0.00    -0.314 C  
HETATM   21  N   UNL     1     -12.386   5.905  72.648  1.00  0.00    -0.506 NA 
HETATM   22  C   UNL     1     -12.146   6.976  71.679  1.00  0.00    -0.347 C  
HETATM   23  H   UNL     1     -12.838   6.263  73.489  1.00  0.00     0.000 HD 
HETATM   24  C   UNL     1     -11.529   6.446  70.386  1.00  0.00    -0.458 C  
ENDBRANCH  17  18
ENDBRANCH   6  13
ENDBRANCH   3   4
ENDBRANCH   2   3
BRANCH   2  25
HETATM   25  C   UNL     1      -8.287  11.246  67.142  1.00  0.00    -0.151 A  
HETATM   26 CL   UNL     1      -6.055  10.072  65.983  1.00  0.00    -0.071 Cl 
HETATM   27  C   UNL     1      -9.668  11.158  67.452  1.00  0.00    -0.173 A  
HETATM   28 CL   UNL     1     -10.479  12.319  68.454  1.00  0.00    -0.235 Cl 
HETATM   29  F   UNL     1      -8.045   8.185  65.125  1.00  0.00    -0.107 F  
HETATM   30  C   UNL     1     -10.465  10.105  66.981  1.00  0.00    -0.302 A  
HETATM   31  C   UNL     1      -9.910   9.112  66.187  1.00  0.00    -0.363 A  
HETATM   32  C   UNL     1      -7.739  10.202  66.364  1.00  0.00    -0.111 A  
HETATM   33  C   UNL     1      -8.558   9.165  65.885  1.00  0.00    -0.151 A  
ENDBRANCH   2  25
TORSDOF 5
ENDMDL
MODEL      242
REMARK 921   NORMALIZED FREE ENERGY PREDICTED BY IDOCK:   -3.58 KCAL/MOL
REMARK 922        TOTAL FREE ENERGY PREDICTED BY IDOCK:   -5.30 KCAL/MOL
REMARK 923 INTER-LIGAND FREE ENERGY PREDICTED BY IDOCK:   -5.96 KCAL/MOL
REMARK 924 INTRA-LIGAND FREE ENERGY PREDICTED BY IDOCK:    0.66 KCAL/MOL
REMARK 927      BINDING AFFINITY PREDICTED BY RF-SCORE:    0.00 PKD
ROOT
HETATM    1  C   UNL     1     -11.227  15.204  67.022  1.00  0.00    -0.308 C  
HETATM    2  C   UNL     1     -11.163  13.713  67.357  1.00  0.00    -0.302 C  
ENDROOT
BRANCH   2   3
HETATM    3  O   UNL     1      -9.844  13.275  67.028  1.00  0.00    -0.231 OA 
BRANCH   3   4
HETATM    4  C   UNL     1      -8.824  13.397  67.926  1.00  0.00    -0.194 A  
HETATM    5  C   UNL     1      -6.725  13.941  69.575  1.00  0.00    -0.062 A  
HETATM    6  C   UNL     1      -7.345  15.017  68.952  1.00  0.00    -0.139 A  
HETATM    7  H1  UNL     1      -7.820  10.293  68.874  1.00  0.00     0.000 HD 
HETATM    8  N   UNL     1      -7.086  12.646  69.413  1.00  0.00     0.096 NA 
HETATM    9  C   UNL     1      -8.417  14.723  68.117  1.00  0.00    -0.149 A  
HETATM   10  C   UNL     1      -8.108  12.389  68.576  1.00  0.00    -0.096 A  
HETATM   11  H2  UNL     1      -8.280  10.841  67.399  1.00  0.00     0.000 HD 
HETATM   12  N   UNL     1      -8.343  11.029  68.400  1.00  0.00    -0.132 NA 
BRANCH   6  13
HETATM   13  C   UNL     1      -6.850  16.364  69.141  1.00  0.00    -0.210 A  
HETATM   14  N   UNL     1      -5.952  18.225  70.097  1.00  0.00    -0.184 NA 
HETATM   15  C   UNL     1      -6.274  16.949  70.286  1.00  0.00     0.210 A  
HETATM   16  C   UNL     1      -6.852  17.380  68.205  1.00  0.00    -0.190 A  
HETATM   17  N   UNL     1      -6.328  18.480  68.832  1.00  0.00    -0.226 NA 
BRANCH  17  18
HETATM   18  C   UNL     1      -6.188  19.826  68.278  1.00  0.00    -0.245 C  
HETATM   19  C   UNL     1      -5.157  19.891  67.143  1.00  0.00    -0.156 C  
HETATM   20  C   UNL     1      -5.704  19.338  65.826  1.00  0.00    -0.160 C  
HETATM   21  N   UNL     1      -6.963  19.979  65.445  1.00  0.00    -0.312 NA 
HETATM   22  C   UNL     1      -7.987  19.842  66.482  1.00  0.00    -0.319 C  
HETATM   23  H   UNL     1      -7.298  19.631  64.547  1.00  0.00     0.000 HD 
HETATM   24  C   UNL     1      -7.526  20.419  67.819  1.00  0.00    -0.303 C  
ENDBRANCH  17  18
ENDBRANCH   6  13
ENDBRANCH   3   4
ENDBRANCH   2   3
BRANCH   2  25
HETATM   25  C   UNL     1     -11.519  13.476  68.827  1.00  0.00    -0.349 A  
HETATM   26 CL   UNL     1     -11.585  16.194  69.385  1.00  0.00    -0.300 Cl 
HETATM   27  C   UNL     1     -11.734  12.149  69.279  1.00  0.00    -0.328 A  
HETATM   28 CL   UNL     1     -11.635  10.773  68.228  1.00  0.00    -0.353 Cl 
HETATM   29  F   UNL     1     -12.141  15.186  72.018  1.00  0.00    -0.339 F  
HETATM   30  C   UNL     1     -12.067  11.869  70.612  1.00  0.00    -0.389 A  
HETATM   31  C   UNL     1     -12.191  12.900  71.532  1.00  0.00     0.251 A  
HETATM   32  C   UNL     1     -11.689  14.510  69.775  1.00  0.00    -0.303 A  
HETATM   33  C   UNL     1     -12.003  14.207  71.110  1.00  0.00    -0.239 A  
ENDBRANCH   2  25
TORSDOF 5
ENDMDL
MODEL      243
REMARK 921   NORMALIZED FREE ENERGY PREDICTED BY IDOCK:   -3.53 KCAL/MOL
REMARK 922        TOTAL FREE ENERGY PREDICTED BY IDOCK:   -5.24 KCAL/MOL
REMARK 923 INTER-LIGAND FREE ENERGY PREDICTED BY IDOCK:   -6.30 KCAL/MOL
REMARK 924 INTRA-LIGAND FREE ENERGY PREDICTED BY IDOCK:    1.06 KCAL/MOL
REMARK 927      BINDING AFFINITY PREDICTED BY RF-SCORE:    0.00 PKD
ROOT
HETATM    1  C   UNL     1      -7.818  10.049  64.934  1.00  0.00    -0.141 C  
HETATM    2  C   UNL     1      -9.265   9.602  65.147  1.00  0.00    -0.246 C  
ENDROOT
BRANCH   2   3
HETATM    3  O   UNL     1      -9.311   8.951  66.418  1.00  0.00    -0.170 OA 
BRANCH   3   4
HETATM    4  C   UNL     1      -8.811   7.691  66.574  1.00  0.00    -0.147 A  
HETATM    5  C   UNL     1      -7.738   5.267  67.203  1.00  0.00    -0.096 A  
HETATM    6  C   UNL     1      -8.167   6.069  68.254  1.00  0.00    -0.110 A  
HETATM    7  H1  UNL     1      -7.901   6.486  63.530  1.00  0.00     0.000 HD 
HETATM    8  N   UNL     1      -7.809   5.609  65.895  1.00  0.00    -0.099 NA 
HETATM    9  C   UNL     1      -8.717   7.301  67.916  1.00  0.00    -0.123 A  
HETATM   10  C   UNL     1      -8.318   6.820  65.600  1.00  0.00    -0.147 A  
HETATM   11  H2  UNL     1      -7.745   7.996  64.151  1.00  0.00     0.000 HD 
HETATM   12  N   UNL     1      -8.262   7.122  64.242  1.00  0.00    -0.029 NA 
BRANCH   6  13
HETATM   13  C   UNL     1      -7.996   5.641  69.625  1.00  0.00    -0.095 A  
HETATM   14  N   UNL     1      -7.525   4.364  71.451  1.00  0.00    -0.058 NA 
HETATM   15  C   UNL     1      -7.531   4.407  70.122  1.00  0.00    -0.046 A  
HETATM   16  C   UNL     1      -8.272   6.381  70.758  1.00  0.00    -0.125 A  
HETATM   17  N   UNL     1      -7.998   5.565  71.825  1.00  0.00    -0.112 NA 
BRANCH  17  18
HETATM   18  C   UNL     1      -8.200   5.870  73.241  1.00  0.00    -0.116 C  
HETATM   19  C   UNL     1      -8.100   7.373  73.539  1.00  0.00    -0.152 C  
HETATM   20  C   UNL     1      -9.362   8.134  73.131  1.00  0.00    -0.258 C  
HETATM   21  N   UNL     1     -10.567   7.548  73.720  1.00  0.00    -0.423 NA 
HETATM   22  C   UNL     1     -10.725   6.137  73.364  1.00  0.00    -0.259 C  
HETATM   23  H   UNL     1     -11.398   8.086  73.474  1.00  0.00     0.000 HD 
HETATM   24  C   UNL     1      -9.516   5.304  73.787  1.00  0.00    -0.133 C  
ENDBRANCH  17  18
ENDBRANCH   6  13
ENDBRANCH   3   4
ENDBRANCH   2   3
BRANCH   2  25
HETATM   25  C   UNL     1     -10.216  10.797  65.056  1.00  0.00    -0.373 A  
HETATM   26 CL   UNL     1     -10.611  10.858  67.803  1.00  0.00    -0.236 Cl 
HETATM   27  C   UNL     1     -10.449  11.400  63.794  1.00  0.00    -0.399 A  
HETATM   28 CL   UNL     1      -9.679  10.854  62.339  1.00  0.00    -0.147 Cl 
HETATM   29  F   UNL     1     -12.367  13.006  67.054  1.00  0.00    -0.388 F  
HETATM   30  C   UNL     1     -11.306  12.500  63.648  1.00  0.00    -0.555 A  
HETATM   31  C   UNL     1     -11.958  13.028  64.752  1.00  0.00    -0.443 A  
HETATM   32  C   UNL     1     -10.862  11.379  66.170  1.00  0.00    -0.255 A  
HETATM   33  C   UNL     1     -11.733  12.468  66.001  1.00  0.00    -0.417 A  
ENDBRANCH   2  25
TORSDOF 5
ENDMDL
MODEL      244
REMARK 921   NORMALIZED FREE ENERGY PREDICTED BY IDOCK:   -3.53 KCAL/MOL
REMARK 922        TOTAL FREE ENERGY PREDICTED BY IDOCK:   -5.23 KCAL/MOL
REMARK 923 INTER-LIGAND FREE ENERGY PREDICTED BY IDOCK:   -4.31 KCAL/MOL
REMARK 924 INTRA-LIGAND FREE ENERGY PREDICTED BY IDOCK:   -0.92 KCAL/MOL
REMARK 927      BINDING AFFINITY PREDICTED BY RF-SCORE:    0.00 PKD
ROOT
HETATM    1  C   UNL     1      -5.683  10.337  64.503  1.00  0.00    -0.133 C  
HETATM    2  C   UNL     1      -6.889   9.401  64.597  1.00  0.00    -0.096 C  
ENDROOT
BRANCH   2   3
HETATM    3  O   UNL     1      -6.530   8.359  65.506  1.00  0.00    -0.048 OA 
BRANCH   3   4
HETATM    4  C   UNL     1      -7.290   7.230  65.607  1.00  0.00    -0.075 A  
HETATM    5  C   UNL     1      -8.745   4.989  66.141  1.00  0.00    -0.120 A  
HETATM    6  C   UNL     1      -8.525   5.875  67.189  1.00  0.00    -0.107 A  
HETATM    7  H1  UNL     1      -7.214   5.586  62.634  1.00  0.00     0.000 HD 
HETATM    8  N   UNL     1      -8.281   5.159  64.881  1.00  0.00    -0.128 NA 
HETATM    9  C   UNL     1      -7.784   7.015  66.899  1.00  0.00    -0.103 A  
HETATM   10  C   UNL     1      -7.542   6.257  64.637  1.00  0.00    -0.098 A  
HETATM   11  H2  UNL     1      -6.017   6.382  63.424  1.00  0.00     0.000 HD 
HETATM   12  N   UNL     1      -7.030   6.296  63.343  1.00  0.00    -0.044 NA 
BRANCH   6  13
HETATM   13  C   UNL     1      -9.012   5.578  68.519  1.00  0.00    -0.114 A  
HETATM   14  N   UNL     1     -10.376   5.395  70.333  1.00  0.00    -0.269 NA 
HETATM   15  C   UNL     1     -10.299   5.767  69.060  1.00  0.00    -0.245 A  
HETATM   16  C   UNL     1      -8.282   5.040  69.561  1.00  0.00    -0.085 A  
HETATM   17  N   UNL     1      -9.135   4.973  70.632  1.00  0.00    -0.129 NA 
BRANCH  17  18
HETATM   18  C   UNL     1      -8.811   4.538  71.991  1.00  0.00    -0.118 C  
HETATM   19  C   UNL     1      -9.835   3.540  72.549  1.00  0.00    -0.220 C  
HETATM   20  C   UNL     1      -9.645   2.131  71.985  1.00  0.00    -0.119 C  
HETATM   21  N   UNL     1      -8.275   1.651  72.165  1.00  0.00    -0.045 NA 
HETATM   22  C   UNL     1      -7.292   2.547  71.553  1.00  0.00    -0.040 C  
HETATM   23  H   UNL     1      -8.169   0.697  71.822  1.00  0.00     0.000 HD 
HETATM   24  C   UNL     1      -7.392   3.967  72.106  1.00  0.00    -0.056 C  
ENDBRANCH  17  18
ENDBRANCH   6  13
ENDBRANCH   3   4
ENDBRANCH   2   3
BRANCH   2  25
HETATM   25  C   UNL     1      -8.135  10.172  65.037  1.00  0.00    -0.149 A  
HETATM   26 CL   UNL     1      -7.248  10.366  67.660  1.00  0.00    -0.086 Cl 
HETATM   27  C   UNL     1      -9.107  10.525  64.067  1.00  0.00    -0.231 A  
HETATM   28 CL   UNL     1      -8.934  10.140  62.384  1.00  0.00    -0.254 Cl 
HETATM   29  F   UNL     1      -9.789  11.676  67.952  1.00  0.00    -0.168 F  
HETATM   30  C   UNL     1     -10.267  11.234  64.408  1.00  0.00    -0.377 A  
HETATM   31  C   UNL     1     -10.494  11.608  65.724  1.00  0.00    -0.308 A  
HETATM   32  C   UNL     1      -8.372  10.599  66.363  1.00  0.00    -0.151 A  
HETATM   33  C   UNL     1      -9.550  11.291  66.689  1.00  0.00    -0.195 A  
ENDBRANCH   2  25
TORSDOF 5
ENDMDL
MODEL      245
REMARK 921   NORMALIZED FREE ENERGY PREDICTED BY IDOCK:   -3.43 KCAL/MOL
REMARK 922        TOTAL FREE ENERGY PREDICTED BY IDOCK:   -5.10 KCAL/MOL
REMARK 923 INTER-LIGAND FREE ENERGY PREDICTED BY IDOCK:   -6.73 KCAL/MOL
REMARK 924 INTRA-LIGAND FREE ENERGY PREDICTED BY IDOCK:    1.63 KCAL/MOL
REMARK 927      BINDING AFFINITY PREDICTED BY RF-SCORE:    0.00 PKD
ROOT
HETATM    1  C   UNL     1     -11.081  15.421  67.110  1.00  0.00    -0.291 C  
HETATM    2  C   UNL     1     -11.393  13.927  67.006  1.00  0.00    -0.326 C  
ENDROOT
BRANCH   2   3
HETATM    3  O   UNL     1     -10.234  13.304  66.450  1.00  0.00    -0.278 OA 
BRANCH   3   4
HETATM    4  C   UNL     1      -9.061  13.263  67.147  1.00  0.00    -0.231 A  
HETATM    5  C   UNL     1      -6.873  12.956  68.741  1.00  0.00    -0.099 A  
HETATM    6  C   UNL     1      -7.815  11.935  68.744  1.00  0.00    -0.052 A  
HETATM    7  H1  UNL     1      -7.404  16.192  66.680  1.00  0.00     0.000 HD 
HETATM    8  N   UNL     1      -6.971  14.091  68.009  1.00  0.00    -0.126 NA 
HETATM    9  C   UNL     1      -8.924  12.105  67.922  1.00  0.00    -0.184 A  
HETATM   10  C   UNL     1      -8.070  14.241  67.246  1.00  0.00    -0.178 A  
HETATM   11  H2  UNL     1      -9.008  15.914  66.882  1.00  0.00     0.000 HD 
HETATM   12  N   UNL     1      -8.128  15.477  66.608  1.00  0.00    -0.217 NA 
BRANCH   6  13
HETATM   13  C   UNL     1      -7.652  10.784  69.606  1.00  0.00    -0.052 A  
HETATM   14  N   UNL     1      -6.786   9.320  71.120  1.00  0.00    -0.202 NA 
HETATM   15  C   UNL     1      -6.611  10.487  70.507  1.00  0.00    -0.032 A  
HETATM   16  C   UNL     1      -8.510   9.707  69.712  1.00  0.00    -0.190 A  
HETATM   17  N   UNL     1      -7.937   8.847  70.611  1.00  0.00    -0.113 NA 
BRANCH  17  18
HETATM   18  C   UNL     1      -8.431   7.528  71.007  1.00  0.00    -0.117 C  
HETATM   19  C   UNL     1      -7.947   7.113  72.403  1.00  0.00    -0.102 C  
HETATM   20  C   UNL     1      -8.724   7.809  73.521  1.00  0.00    -0.241 C  
HETATM   21  N   UNL     1     -10.169   7.627  73.378  1.00  0.00    -0.332 NA 
HETATM   22  C   UNL     1     -10.659   8.107  72.085  1.00  0.00    -0.290 C  
HETATM   23  H   UNL     1     -10.675   8.061  74.149  1.00  0.00     0.000 HD 
HETATM   24  C   UNL     1      -9.958   7.417  70.917  1.00  0.00    -0.184 C  
ENDBRANCH  17  18
ENDBRANCH   6  13
ENDBRANCH   3   4
ENDBRANCH   2   3
BRANCH   2  25
HETATM   25  C   UNL     1     -11.773  13.361  68.376  1.00  0.00    -0.390 A  
HETATM   26 CL   UNL     1     -11.618  10.738  67.479  1.00  0.00    -0.182 Cl 
HETATM   27  C   UNL     1     -11.958  14.251  69.464  1.00  0.00    -0.336 A  
HETATM   28 CL   UNL     1     -11.748  15.966  69.317  1.00  0.00    -0.373 Cl 
HETATM   29  F   UNL     1     -12.447  10.235  70.184  1.00  0.00    -0.317 F  
HETATM   30  C   UNL     1     -12.303  13.792  70.743  1.00  0.00    -0.451 A  
HETATM   31  C   UNL     1     -12.477  12.435  70.974  1.00  0.00    -0.353 A  
HETATM   32  C   UNL     1     -11.918  11.982  68.647  1.00  0.00    -0.235 A  
HETATM   33  C   UNL     1     -12.284  11.542  69.930  1.00  0.00    -0.258 A  
ENDBRANCH   2  25
TORSDOF 5
ENDMDL
MODEL      246
REMARK 921   NORMALIZED FREE ENERGY PREDICTED BY IDOCK:   -3.33 KCAL/MOL
REMARK 922        TOTAL FREE ENERGY PREDICTED BY IDOCK:   -4.97 KCAL/MOL
REMARK 923 INTER-LIGAND FREE ENERGY PREDICTED BY IDOCK:   -6.34 KCAL/MOL
REMARK 924 INTRA-LIGAND FREE ENERGY PREDICTED BY IDOCK:    1.36 KCAL/MOL
REMARK 927      BINDING AFFINITY PREDICTED BY RF-SCORE:    0.00 PKD
ROOT
HETATM    1  C   UNL     1      -9.351  16.289  69.769  1.00  0.00     0.283 C  
HETATM    2  C   UNL     1     -10.804  15.820  69.848  1.00  0.00    -0.327 C  
ENDROOT
BRANCH   2   3
HETATM    3  O   UNL     1     -11.524  16.543  68.848  1.00  0.00    -0.267 OA 
BRANCH   3   4
HETATM    4  C   UNL     1     -11.142  16.491  67.539  1.00  0.00    -0.078 A  
HETATM    5  C   UNL     1     -10.351  16.054  64.969  1.00  0.00    -0.106 A  
HETATM    6  C   UNL     1     -10.895  14.979  65.663  1.00  0.00    -0.356 A  
HETATM    7  H1  UNL     1      -9.821  19.496  66.662  1.00  0.00     0.000 HD 
HETATM    8  N   UNL     1     -10.181  17.294  65.483  1.00  0.00    -0.620 NA 
HETATM    9  C   UNL     1     -11.297  15.220  66.972  1.00  0.00    -0.230 A  
HETATM   10  C   UNL     1     -10.553  17.490  66.762  1.00  0.00    -0.201 A  
HETATM   11  H2  UNL     1      -9.670  18.651  68.059  1.00  0.00     0.000 HD 
HETATM   12  N   UNL     1     -10.251  18.766  67.230  1.00  0.00    -0.367 NA 
BRANCH   6  13
HETATM   13  C   UNL     1     -10.982  13.672  65.048  1.00  0.00    -0.350 A  
HETATM   14  N   UNL     1     -11.746  11.887  63.860  1.00  0.00    -0.416 NA 
HETATM   15  C   UNL     1     -11.997  13.139  64.229  1.00  0.00    -0.411 A  
HETATM   16  C   UNL     1     -10.059  12.651  65.154  1.00  0.00    -0.237 A  
HETATM   17  N   UNL     1     -10.572  11.595  64.446  1.00  0.00    -0.300 NA 
BRANCH  17  18
HETATM   18  C   UNL     1      -9.995  10.257  64.317  1.00  0.00    -0.223 C  
HETATM   19  C   UNL     1      -8.585  10.280  63.712  1.00  0.00    -0.190 C  
HETATM   20  C   UNL     1      -7.522  10.710  64.723  1.00  0.00     0.132 C  
HETATM   21  N   UNL     1      -7.570   9.901  65.942  1.00  0.00    -0.103 NA 
HETATM   22  C   UNL     1      -8.885   9.947  66.583  1.00  0.00    -0.135 C  
HETATM   23  H   UNL     1      -6.832  10.169  66.593  1.00  0.00     0.000 HD 
HETATM   24  C   UNL     1      -9.994   9.484  65.642  1.00  0.00    -0.269 C  
ENDBRANCH  17  18
ENDBRANCH   6  13
ENDBRANCH   3   4
ENDBRANCH   2   3
BRANCH   2  25
HETATM   25  C   UNL     1     -10.892  14.303  69.664  1.00  0.00    -0.101 A  
HETATM   26 CL   UNL     1     -13.378  14.166  70.891  1.00  0.00    -0.298 Cl 
HETATM   27  C   UNL     1      -9.858  13.633  68.961  1.00  0.00     0.145 A  
HETATM   28 CL   UNL     1      -8.499  14.464  68.276  1.00  0.00    -0.157 Cl 
HETATM   29  F   UNL     1     -12.981  11.367  70.375  1.00  0.00    -0.238 F  
HETATM   30  C   UNL     1      -9.884  12.246  68.756  1.00  0.00    -0.018 A  
HETATM   31  C   UNL     1     -10.937  11.488  69.247  1.00  0.00    -0.261 A  
HETATM   32  C   UNL     1     -11.971  13.513  70.119  1.00  0.00    -0.329 A  
HETATM   33  C   UNL     1     -11.969  12.123  69.921  1.00  0.00    -0.309 A  
ENDBRANCH   2  25
TORSDOF 5
ENDMDL
MODEL      247
REMARK 921   NORMALIZED FREE ENERGY PREDICTED BY IDOCK:   -3.23 KCAL/MOL
REMARK 922        TOTAL FREE ENERGY PREDICTED BY IDOCK:   -4.85 KCAL/MOL
REMARK 923 INTER-LIGAND FREE ENERGY PREDICTED BY IDOCK:   -6.83 KCAL/MOL
REMARK 924 INTRA-LIGAND FREE ENERGY PREDICTED BY IDOCK:    1.98 KCAL/MOL
REMARK 927      BINDING AFFINITY PREDICTED BY RF-SCORE:    0.00 PKD
ROOT
HETATM    1  C   UNL     1     -11.207  15.460  67.306  1.00  0.00    -0.270 C  
HETATM    2  C   UNL     1     -11.650  14.008  67.117  1.00  0.00    -0.372 C  
ENDROOT
BRANCH   2   3
HETATM    3  O   UNL     1     -10.653  13.376  66.312  1.00  0.00    -0.284 OA 
BRANCH   3   4
HETATM    4  C   UNL     1      -9.389  13.184  66.789  1.00  0.00    -0.244 A  
HETATM    5  C   UNL     1      -6.812  13.126  67.672  1.00  0.00    -0.158 A  
HETATM    6  C   UNL     1      -7.443  14.363  67.617  1.00  0.00    -0.191 A  
HETATM    7  H1  UNL     1      -8.582   9.900  66.463  1.00  0.00     0.000 HD 
HETATM    8  N   UNL     1      -7.386  11.954  67.311  1.00  0.00    -0.137 NA 
HETATM    9  C   UNL     1      -8.759  14.375  67.169  1.00  0.00    -0.243 A  
HETATM   10  C   UNL     1      -8.651  12.000  66.853  1.00  0.00    -0.189 A  
HETATM   11  H2  UNL     1      -9.415  10.881  65.448  1.00  0.00     0.000 HD 
HETATM   12  N   UNL     1      -9.121  10.764  66.417  1.00  0.00    -0.167 NA 
BRANCH   6  13
HETATM   13  C   UNL     1      -6.727  15.571  67.969  1.00  0.00    -0.152 A  
HETATM   14  N   UNL     1      -5.666  17.183  69.176  1.00  0.00    -0.155 NA 
HETATM   15  C   UNL     1      -6.272  16.002  69.231  1.00  0.00    -0.151 A  
HETATM   16  C   UNL     1      -6.343  16.579  67.107  1.00  0.00    -0.185 A  
HETATM   17  N   UNL     1      -5.734  17.533  67.880  1.00  0.00    -0.138 NA 
BRANCH  17  18
HETATM   18  C   UNL     1      -5.217  18.828  67.437  1.00  0.00    -0.155 C  
HETATM   19  C   UNL     1      -5.417  19.057  65.932  1.00  0.00    -0.179 C  
HETATM   20  C   UNL     1      -6.856  19.442  65.585  1.00  0.00    -0.291 C  
HETATM   21  N   UNL     1      -7.319  20.587  66.369  1.00  0.00    -0.458 NA 
HETATM   22  C   UNL     1      -7.224  20.345  67.810  1.00  0.00    -0.299 C  
HETATM   23  H   UNL     1      -8.265  20.859  66.103  1.00  0.00     0.000 HD 
HETATM   24  C   UNL     1      -5.798  20.001  68.237  1.00  0.00    -0.270 C  
ENDBRANCH  17  18
ENDBRANCH   6  13
ENDBRANCH   3   4
ENDBRANCH   2   3
BRANCH   2  25
HETATM   25  C   UNL     1     -11.840  13.323  68.472  1.00  0.00    -0.384 A  
HETATM   26 CL   UNL     1     -11.817  10.788  67.341  1.00  0.00     0.302 Cl 
HETATM   27  C   UNL     1     -11.871  14.116  69.648  1.00  0.00    -0.324 A  
HETATM   28 CL   UNL     1     -11.678  15.839  69.621  1.00  0.00    -0.357 Cl 
HETATM   29  F   UNL     1     -12.268  10.048  70.082  1.00  0.00    -0.283 F  
HETATM   30  C   UNL     1     -12.039  13.546  70.918  1.00  0.00    -0.301 A  
HETATM   31  C   UNL     1     -12.183  12.173  71.053  1.00  0.00    -0.227 A  
HETATM   32  C   UNL     1     -11.951  11.924  68.642  1.00  0.00    -0.233 A  
HETATM   33  C   UNL     1     -12.138  11.374  69.920  1.00  0.00    -0.330 A  
ENDBRANCH   2  25
TORSDOF 5
ENDMDL
MODEL      248
REMARK 921   NORMALIZED FREE ENERGY PREDICTED BY IDOCK:   -3.23 KCAL/MOL
REMARK 922        TOTAL FREE ENERGY PREDICTED BY IDOCK:   -4.85 KCAL/MOL
REMARK 923 INTER-LIGAND FREE ENERGY PREDICTED BY IDOCK:   -5.15 KCAL/MOL
REMARK 924 INTRA-LIGAND FREE ENERGY PREDICTED BY IDOCK:    0.30 KCAL/MOL
REMARK 927      BINDING AFFINITY PREDICTED BY RF-SCORE:    0.00 PKD
ROOT
HETATM    1  C   UNL     1     -10.391   6.085  74.452  1.00  0.00    -0.267 C  
HETATM    2  C   UNL     1     -10.574   7.158  73.378  1.00  0.00    -0.382 C  
ENDROOT
BRANCH   2   3
HETATM    3  O   UNL     1      -9.534   8.117  73.574  1.00  0.00    -0.243 OA 
BRANCH   3   4
HETATM    4  C   UNL     1      -8.346   8.003  72.912  1.00  0.00    -0.172 A  
HETATM    5  C   UNL     1      -6.153   7.815  71.306  1.00  0.00    -0.035 A  
HETATM    6  C   UNL     1      -7.275   8.451  70.786  1.00  0.00    -0.055 A  
HETATM    7  H1  UNL     1      -6.185   6.221  74.835  1.00  0.00     0.000 HD 
HETATM    8  N   UNL     1      -6.079   7.279  72.546  1.00  0.00    -0.041 NA 
HETATM    9  C   UNL     1      -8.384   8.542  71.620  1.00  0.00    -0.218 A  
HETATM   10  C   UNL     1      -7.178   7.356  73.320  1.00  0.00    -0.074 A  
HETATM   11  H2  UNL     1      -7.793   6.011  74.595  1.00  0.00     0.000 HD 
HETATM   12  N   UNL     1      -7.038   6.694  74.537  1.00  0.00    -0.092 NA 
BRANCH   6  13
HETATM   13  C   UNL     1      -7.280   8.942  69.425  1.00  0.00    -0.061 A  
HETATM   14  N   UNL     1      -6.672  10.008  67.507  1.00  0.00    -0.072 NA 
HETATM   15  C   UNL     1      -6.320   9.729  68.758  1.00  0.00    -0.046 A  
HETATM   16  C   UNL     1      -8.265   8.735  68.480  1.00  0.00    -0.117 A  
HETATM   17  N   UNL     1      -7.868   9.413  67.357  1.00  0.00    -0.102 NA 
BRANCH  17  18
HETATM   18  C   UNL     1      -8.611   9.557  66.105  1.00  0.00    -0.131 C  
HETATM   19  C   UNL     1     -10.084   9.147  66.246  1.00  0.00    -0.319 C  
HETATM   20  C   UNL     1     -10.925  10.218  66.941  1.00  0.00    -0.070 C  
HETATM   21  N   UNL     1     -10.790  11.523  66.293  1.00  0.00    -0.281 NA 
HETATM   22  C   UNL     1      -9.397  11.971  66.239  1.00  0.00    -0.223 C  
HETATM   23  H   UNL     1     -11.384  12.221  66.741  1.00  0.00     0.000 HD 
HETATM   24  C   UNL     1      -8.504  10.967  65.513  1.00  0.00    -0.115 C  
ENDBRANCH  17  18
ENDBRANCH   6  13
ENDBRANCH   3   4
ENDBRANCH   2   3
BRANCH   2  25
HETATM   25  C   UNL     1     -10.550   6.531  71.982  1.00  0.00    -0.244 A  
HETATM   26 CL   UNL     1     -11.757   8.747  70.824  1.00  0.00    -0.285 Cl 
HETATM   27  C   UNL     1      -9.934   5.266  71.804  1.00  0.00    -0.190 A  
HETATM   28 CL   UNL     1      -9.180   4.400  73.103  1.00  0.00    -0.126 Cl 
HETATM   29  F   UNL     1     -11.545   7.085  68.489  1.00  0.00     0.003 F  
HETATM   30  C   UNL     1      -9.876   4.644  70.549  1.00  0.00    -0.301 A  
HETATM   31  C   UNL     1     -10.433   5.260  69.438  1.00  0.00    -0.284 A  
HETATM   32  C   UNL     1     -11.074   7.155  70.827  1.00  0.00    -0.269 A  
HETATM   33  C   UNL     1     -11.025   6.506  69.583  1.00  0.00    -0.336 A  
ENDBRANCH   2  25
TORSDOF 5
ENDMDL
MODEL      249
REMARK 921   NORMALIZED FREE ENERGY PREDICTED BY IDOCK:   -3.20 KCAL/MOL
REMARK 922        TOTAL FREE ENERGY PREDICTED BY IDOCK:   -4.80 KCAL/MOL
REMARK 923 INTER-LIGAND FREE ENERGY PREDICTED BY IDOCK:   -4.85 KCAL/MOL
REMARK 924 INTRA-LIGAND FREE ENERGY PREDICTED BY IDOCK:    0.05 KCAL/MOL
REMARK 927      BINDING AFFINITY PREDICTED BY RF-SCORE:    0.00 PKD
ROOT
HETATM    1  C   UNL     1      -9.452   6.383  74.511  1.00  0.00    -0.268 C  
HETATM    2  C   UNL     1      -9.904   7.483  73.549  1.00  0.00    -0.317 C  
ENDROOT
BRANCH   2   3
HETATM    3  O   UNL     1      -8.823   8.411  73.449  1.00  0.00    -0.253 OA 
BRANCH   3   4
HETATM    4  C   UNL     1      -7.708   8.108  72.722  1.00  0.00    -0.136 A  
HETATM    5  C   UNL     1      -5.695   7.439  71.013  1.00  0.00    -0.035 A  
HETATM    6  C   UNL     1      -6.907   7.829  70.454  1.00  0.00    -0.046 A  
HETATM    7  H1  UNL     1      -5.237   7.150  74.847  1.00  0.00     0.000 HD 
HETATM    8  N   UNL     1      -5.451   7.362  72.342  1.00  0.00    -0.037 NA 
HETATM    9  C   UNL     1      -7.922   8.171  71.339  1.00  0.00    -0.119 A  
HETATM   10  C   UNL     1      -6.462   7.671  73.175  1.00  0.00    -0.064 A  
HETATM   11  H2  UNL     1      -6.845   6.829  74.894  1.00  0.00     0.000 HD 
HETATM   12  N   UNL     1      -6.148   7.470  74.516  1.00  0.00    -0.081 NA 
BRANCH   6  13
HETATM   13  C   UNL     1      -7.091   7.823  69.018  1.00  0.00    -0.074 A  
HETATM   14  N   UNL     1      -6.863   8.307  66.805  1.00  0.00    -0.068 NA 
HETATM   15  C   UNL     1      -6.405   8.555  68.029  1.00  0.00    -0.056 A  
HETATM   16  C   UNL     1      -8.016   7.080  68.311  1.00  0.00    -0.123 A  
HETATM   17  N   UNL     1      -7.857   7.423  66.994  1.00  0.00    -0.113 NA 
BRANCH  17  18
HETATM   18  C   UNL     1      -8.655   6.956  65.860  1.00  0.00    -0.145 C  
HETATM   19  C   UNL     1      -7.798   6.663  64.620  1.00  0.00    -0.116 C  
HETATM   20  C   UNL     1      -7.054   5.331  64.726  1.00  0.00    -0.057 C  
HETATM   21  N   UNL     1      -7.961   4.222  65.027  1.00  0.00    -0.092 NA 
HETATM   22  C   UNL     1      -8.716   4.447  66.261  1.00  0.00    -0.113 C  
HETATM   23  H   UNL     1      -7.461   3.334  65.057  1.00  0.00     0.000 HD 
HETATM   24  C   UNL     1      -9.524   5.742  66.207  1.00  0.00    -0.166 C  
ENDBRANCH  17  18
ENDBRANCH   6  13
ENDBRANCH   3   4
ENDBRANCH   2   3
BRANCH   2  25
HETATM   25  C   UNL     1     -10.302   6.886  72.197  1.00  0.00    -0.221 A  
HETATM   26 CL   UNL     1      -8.736   4.628  72.585  1.00  0.00    -0.114 Cl 
HETATM   27  C   UNL     1     -11.253   7.568  71.395  1.00  0.00    -0.242 A  
HETATM   28 CL   UNL     1     -12.008   9.048  71.891  1.00  0.00    -0.430 Cl 
HETATM   29  F   UNL     1      -9.729   4.034  69.955  1.00  0.00    -0.240 F  
HETATM   30  C   UNL     1     -11.661   7.070  70.150  1.00  0.00    -0.273 A  
HETATM   31  C   UNL     1     -11.132   5.881  69.667  1.00  0.00    -0.414 A  
HETATM   32  C   UNL     1      -9.809   5.659  71.700  1.00  0.00    -0.170 A  
HETATM   33  C   UNL     1     -10.215   5.186  70.441  1.00  0.00    -0.264 A  
ENDBRANCH   2  25
TORSDOF 5
ENDMDL
MODEL      250
REMARK 921   NORMALIZED FREE ENERGY PREDICTED BY IDOCK:   -3.19 KCAL/MOL
REMARK 922        TOTAL FREE ENERGY PREDICTED BY IDOCK:   -4.80 KCAL/MOL
REMARK 923 INTER-LIGAND FREE ENERGY PREDICTED BY IDOCK:   -4.83 KCAL/MOL
REMARK 924 INTRA-LIGAND FREE ENERGY PREDICTED BY IDOCK:    0.04 KCAL/MOL
REMARK 927      BINDING AFFINITY PREDICTED BY RF-SCORE:    0.00 PKD
ROOT
HETATM    1  C   UNL     1      -8.110   8.117  73.104  1.00  0.00    -0.237 C  
HETATM    2  C   UNL     1      -9.196   8.487  72.092  1.00  0.00    -0.266 C  
ENDROOT
BRANCH   2   3
HETATM    3  O   UNL     1      -8.686   9.579  71.324  1.00  0.00    -0.241 OA 
BRANCH   3   4
HETATM    4  C   UNL     1      -7.651   9.396  70.454  1.00  0.00    -0.145 A  
HETATM    5  C   UNL     1      -5.772   8.788  68.577  1.00  0.00    -0.038 A  
HETATM    6  C   UNL     1      -7.086   8.423  68.310  1.00  0.00    -0.085 A  
HETATM    7  H1  UNL     1      -4.779  10.456  71.928  1.00  0.00     0.000 HD 
HETATM    8  N   UNL     1      -5.363   9.415  69.704  1.00  0.00    -0.034 NA 
HETATM    9  C   UNL     1      -8.034   8.744  69.275  1.00  0.00    -0.108 A  
HETATM   10  C   UNL     1      -6.297   9.687  70.635  1.00  0.00    -0.097 A  
HETATM   11  H2  UNL     1      -6.051   9.644  72.571  1.00  0.00     0.000 HD 
HETATM   12  N   UNL     1      -5.768  10.243  71.796  1.00  0.00    -0.304 NA 
BRANCH   6  13
HETATM   13  C   UNL     1      -7.419   7.701  67.100  1.00  0.00    -0.096 A  
HETATM   14  N   UNL     1      -8.233   7.200  65.034  1.00  0.00    -0.123 NA 
HETATM   15  C   UNL     1      -8.085   8.156  65.945  1.00  0.00    -0.115 A  
HETATM   16  C   UNL     1      -7.147   6.373  66.834  1.00  0.00    -0.073 A  
HETATM   17  N   UNL     1      -7.676   6.114  65.596  1.00  0.00    -0.088 NA 
BRANCH  17  18
HETATM   18  C   UNL     1      -7.707   4.826  64.904  1.00  0.00    -0.078 C  
HETATM   19  C   UNL     1      -7.441   3.645  65.847  1.00  0.00    -0.077 C  
HETATM   20  C   UNL     1      -8.662   3.288  66.696  1.00  0.00    -0.129 C  
HETATM   21  N   UNL     1      -9.851   3.062  65.874  1.00  0.00    -0.368 NA 
HETATM   22  C   UNL     1     -10.173   4.221  65.038  1.00  0.00    -0.196 C  
HETATM   23  H   UNL     1     -10.649   2.788  66.446  1.00  0.00     0.000 HD 
HETATM   24  C   UNL     1      -9.010   4.605  64.126  1.00  0.00    -0.126 C  
ENDBRANCH  17  18
ENDBRANCH   6  13
ENDBRANCH   3   4
ENDBRANCH   2   3
BRANCH   2  25
HETATM   25  C   UNL     1      -9.566   7.277  71.232  1.00  0.00    -0.164 A  
HETATM   26 CL   UNL     1      -7.109   6.057  71.659  1.00  0.00    -0.076 Cl 
HETATM   27  C   UNL     1     -10.870   7.195  70.680  1.00  0.00    -0.245 A  
HETATM   28 CL   UNL     1     -12.082   8.404  70.958  1.00  0.00    -0.260 Cl 
HETATM   29  F   UNL     1      -8.273   4.107  69.899  1.00  0.00    -0.057 F  
HETATM   30  C   UNL     1     -11.270   6.109  69.888  1.00  0.00    -0.484 A  
HETATM   31  C   UNL     1     -10.382   5.077  69.621  1.00  0.00    -0.260 A  
HETATM   32  C   UNL     1      -8.695   6.194  70.976  1.00  0.00    -0.132 A  
HETATM   33  C   UNL     1      -9.107   5.125  70.164  1.00  0.00    -0.128 A  
ENDBRANCH   2  25
TORSDOF 5
ENDMDL
MODEL      251
REMARK 921   NORMALIZED FREE ENERGY PREDICTED BY IDOCK:   -3.19 KCAL/MOL
REMARK 922        TOTAL FREE ENERGY PREDICTED BY IDOCK:   -4.79 KCAL/MOL
REMARK 923 INTER-LIGAND FREE ENERGY PREDICTED BY IDOCK:   -6.19 KCAL/MOL
REMARK 924 INTRA-LIGAND FREE ENERGY PREDICTED BY IDOCK:    1.39 KCAL/MOL
REMARK 927      BINDING AFFINITY PREDICTED BY RF-SCORE:    0.00 PKD
ROOT
HETATM    1  C   UNL     1      -5.412   6.409  70.968  1.00  0.00    -0.022 C  
HETATM    2  C   UNL     1      -6.878   6.606  71.357  1.00  0.00    -0.062 C  
ENDROOT
BRANCH   2   3
HETATM    3  O   UNL     1      -7.357   7.721  70.602  1.00  0.00    -0.063 OA 
BRANCH   3   4
HETATM    4  C   UNL     1      -8.591   8.250  70.845  1.00  0.00    -0.137 A  
HETATM    5  C   UNL     1     -10.958   9.566  71.139  1.00  0.00    -0.368 A  
HETATM    6  C   UNL     1     -10.170   9.902  70.044  1.00  0.00    -0.319 A  
HETATM    7  H1  UNL     1      -9.771   6.982  73.768  1.00  0.00     0.000 HD 
HETATM    8  N   UNL     1     -10.628   8.640  72.069  1.00  0.00    -0.333 NA 
HETATM    9  C   UNL     1      -8.968   9.218  69.906  1.00  0.00    -0.194 A  
HETATM   10  C   UNL     1      -9.444   8.015  71.925  1.00  0.00    -0.182 A  
HETATM   11  H2  UNL     1      -8.252   7.448  73.364  1.00  0.00     0.000 HD 
HETATM   12  N   UNL     1      -9.149   7.153  72.978  1.00  0.00    -0.131 NA 
BRANCH   6  13
HETATM   13  C   UNL     1     -10.581  10.950  69.134  1.00  0.00    -0.253 A  
HETATM   14  N   UNL     1     -11.801  12.590  68.132  1.00  0.00    -0.341 NA 
HETATM   15  C   UNL     1     -11.753  11.731  69.146  1.00  0.00    -0.325 A  
HETATM   16  C   UNL     1      -9.884  11.400  68.030  1.00  0.00    -0.184 A  
HETATM   17  N   UNL     1     -10.666  12.364  67.450  1.00  0.00    -0.225 NA 
BRANCH  17  18
HETATM   18  C   UNL     1     -10.393  13.091  66.210  1.00  0.00    -0.285 C  
HETATM   19  C   UNL     1      -9.818  12.186  65.112  1.00  0.00    -0.200 C  
HETATM   20  C   UNL     1     -10.890  11.324  64.444  1.00  0.00    -0.303 C  
HETATM   21  N   UNL     1     -12.006  12.129  63.946  1.00  0.00    -0.459 NA 
HETATM   22  C   UNL     1     -12.626  12.927  65.006  1.00  0.00    -0.472 C  
HETATM   23  H   UNL     1     -12.696  11.550  63.469  1.00  0.00     0.000 HD 
HETATM   24  C   UNL     1     -11.619  13.850  65.688  1.00  0.00    -0.338 C  
ENDBRANCH  17  18
ENDBRANCH   6  13
ENDBRANCH   3   4
ENDBRANCH   2   3
BRANCH   2  25
HETATM   25  C   UNL     1      -7.679   5.328  71.101  1.00  0.00    -0.101 A  
HETATM   26 CL   UNL     1      -7.543   4.555  73.764  1.00  0.00    -0.084 Cl 
HETATM   27  C   UNL     1      -8.193   5.083  69.802  1.00  0.00    -0.077 A  
HETATM   28 CL   UNL     1      -7.974   6.189  68.484  1.00  0.00    -0.107 Cl 
HETATM   29  F   UNL     1      -8.980   2.296  72.718  1.00  0.00    -0.068 F  
HETATM   30  C   UNL     1      -8.938   3.933  69.507  1.00  0.00    -0.168 A  
HETATM   31  C   UNL     1      -9.189   2.992  70.495  1.00  0.00    -0.210 A  
HETATM   32  C   UNL     1      -7.982   4.373  72.098  1.00  0.00    -0.095 A  
HETATM   33  C   UNL     1      -8.712   3.217  71.778  1.00  0.00    -0.077 A  
ENDBRANCH   2  25
TORSDOF 5
ENDMDL
MODEL      252
REMARK 921   NORMALIZED FREE ENERGY PREDICTED BY IDOCK:   -3.16 KCAL/MOL
REMARK 922        TOTAL FREE ENERGY PREDICTED BY IDOCK:   -4.75 KCAL/MOL
REMARK 923 INTER-LIGAND FREE ENERGY PREDICTED BY IDOCK:   -5.40 KCAL/MOL
REMARK 924 INTRA-LIGAND FREE ENERGY PREDICTED BY IDOCK:    0.65 KCAL/MOL
REMARK 927      BINDING AFFINITY PREDICTED BY RF-SCORE:    0.00 PKD
ROOT
HETATM    1  C   UNL     1      -5.987  19.377  70.138  1.00  0.00    -0.282 C  
HETATM    2  C   UNL     1      -6.490  18.350  69.122  1.00  0.00    -0.260 C  
ENDROOT
BRANCH   2   3
HETATM    3  O   UNL     1      -7.886  18.177  69.368  1.00  0.00     0.063 OA 
BRANCH   3   4
HETATM    4  C   UNL     1      -8.731  17.807  68.363  1.00  0.00    -0.292 A  
HETATM    5  C   UNL     1     -10.238  16.782  66.338  1.00  0.00    -0.323 A  
HETATM    6  C   UNL     1      -9.507  15.886  67.108  1.00  0.00    -0.221 A  
HETATM    7  H1  UNL     1     -10.021  20.604  66.928  1.00  0.00     0.000 HD 
HETATM    8  N   UNL     1     -10.247  18.124  66.519  1.00  0.00    -0.373 NA 
HETATM    9  C   UNL     1      -8.747  16.424  68.140  1.00  0.00    -0.191 A  
HETATM   10  C   UNL     1      -9.478  18.619  67.507  1.00  0.00    -0.291 A  
HETATM   11  H2  UNL     1      -8.505  20.311  67.479  1.00  0.00     0.000 HD 
HETATM   12  N   UNL     1      -9.476  20.010  67.554  1.00  0.00    -0.355 NA 
BRANCH   6  13
HETATM   13  C   UNL     1      -9.515  14.472  66.801  1.00  0.00    -0.284 A  
HETATM   14  N   UNL     1      -8.822  12.341  66.401  1.00  0.00    -0.130 NA 
HETATM   15  C   UNL     1      -8.437  13.568  66.735  1.00  0.00     0.034 A  
HETATM   16  C   UNL     1     -10.621  13.705  66.492  1.00  0.00    -0.282 A  
HETATM   17  N   UNL     1     -10.153  12.442  66.236  1.00  0.00    -0.235 NA 
BRANCH  17  18
HETATM   18  C   UNL     1     -10.932  11.285  65.796  1.00  0.00    -0.145 C  
HETATM   19  C   UNL     1     -11.338  11.378  64.318  1.00  0.00    -0.244 C  
HETATM   20  C   UNL     1     -10.184  11.040  63.373  1.00  0.00    -0.346 C  
HETATM   21  N   UNL     1      -9.585   9.742  63.685  1.00  0.00    -0.487 NA 
HETATM   22  C   UNL     1      -9.106   9.673  65.067  1.00  0.00    -0.233 C  
HETATM   23  H   UNL     1      -8.843   9.509  63.026  1.00  0.00     0.000 HD 
HETATM   24  C   UNL     1     -10.222   9.955  66.071  1.00  0.00    -0.269 C  
ENDBRANCH  17  18
ENDBRANCH   6  13
ENDBRANCH   3   4
ENDBRANCH   2   3
BRANCH   2  25
HETATM   25  C   UNL     1      -6.191  18.814  67.695  1.00  0.00    -0.199 A  
HETATM   26 CL   UNL     1      -5.674  16.230  66.823  1.00  0.00     0.125 Cl 
HETATM   27  C   UNL     1      -6.345  20.186  67.368  1.00  0.00    -0.206 A  
HETATM   28 CL   UNL     1      -6.885  21.367  68.518  1.00  0.00     0.732 Cl 
HETATM   29  F   UNL     1      -5.137  17.640  64.377  1.00  0.00     0.134 F  
HETATM   30  C   UNL     1      -6.091  20.671  66.078  1.00  0.00    -0.260 A  
HETATM   31  C   UNL     1      -5.673  19.806  65.077  1.00  0.00    -0.228 A  
HETATM   32  C   UNL     1      -5.801  17.949  66.648  1.00  0.00    -0.163 A  
HETATM   33  C   UNL     1      -5.532  18.457  65.367  1.00  0.00    -0.190 A  
ENDBRANCH   2  25
TORSDOF 5
ENDMDL
MODEL      253
REMARK 921   NORMALIZED FREE ENERGY PREDICTED BY IDOCK:   -3.02 KCAL/MOL
REMARK 922        TOTAL FREE ENERGY PREDICTED BY IDOCK:   -4.57 KCAL/MOL
REMARK 923 INTER-LIGAND FREE ENERGY PREDICTED BY IDOCK:   -5.99 KCAL/MOL
REMARK 924 INTRA-LIGAND FREE ENERGY PREDICTED BY IDOCK:    1.42 KCAL/MOL
REMARK 927      BINDING AFFINITY PREDICTED BY RF-SCORE:    0.00 PKD
ROOT
HETATM    1  C   UNL     1      -6.667   8.069  67.291  1.00  0.00    -0.065 C  
HETATM    2  C   UNL     1      -6.788   8.092  65.767  1.00  0.00    -0.063 C  
ENDROOT
BRANCH   2   3
HETATM    3  O   UNL     1      -6.932   6.735  65.346  1.00  0.00    -0.056 OA 
BRANCH   3   4
HETATM    4  C   UNL     1      -8.072   6.036  65.620  1.00  0.00    -0.126 A  
HETATM    5  C   UNL     1     -10.245   4.642  66.491  1.00  0.00    -0.238 A  
HETATM    6  C   UNL     1      -9.550   5.396  67.429  1.00  0.00    -0.139 A  
HETATM    7  H1  UNL     1      -9.053   4.391  62.815  1.00  0.00     0.000 HD 
HETATM    8  N   UNL     1      -9.913   4.548  65.182  1.00  0.00    -0.163 NA 
HETATM    9  C   UNL     1      -8.446   6.105  66.968  1.00  0.00    -0.105 A  
HETATM   10  C   UNL     1      -8.822   5.221  64.770  1.00  0.00    -0.063 A  
HETATM   11  H2  UNL     1      -7.546   4.640  63.412  1.00  0.00     0.000 HD 
HETATM   12  N   UNL     1      -8.505   4.986  63.435  1.00  0.00    -0.126 NA 
BRANCH   6  13
HETATM   13  C   UNL     1      -9.946   5.388  68.821  1.00  0.00    -0.235 A  
HETATM   14  N   UNL     1     -10.162   4.786  71.006  1.00  0.00    -0.200 NA 
HETATM   15  C   UNL     1      -9.584   4.492  69.846  1.00  0.00    -0.199 A  
HETATM   16  C   UNL     1     -10.796   6.285  69.438  1.00  0.00    -0.340 A  
HETATM   17  N   UNL     1     -10.913   5.869  70.739  1.00  0.00    -0.287 NA 
BRANCH  17  18
HETATM   18  C   UNL     1     -11.762   6.452  71.778  1.00  0.00    -0.324 C  
HETATM   19  C   UNL     1     -10.949   7.062  72.928  1.00  0.00    -0.337 C  
HETATM   20  C   UNL     1     -10.351   8.421  72.564  1.00  0.00    -0.301 C  
HETATM   21  N   UNL     1     -11.369   9.352  72.074  1.00  0.00    -0.209 NA 
HETATM   22  C   UNL     1     -12.089   8.821  70.915  1.00  0.00    -0.162 C  
HETATM   23  H   UNL     1     -10.966  10.267  71.872  1.00  0.00     0.000 HD 
HETATM   24  C   UNL     1     -12.754   7.481  71.222  1.00  0.00    -0.339 C  
ENDBRANCH  17  18
ENDBRANCH   6  13
ENDBRANCH   3   4
ENDBRANCH   2   3
BRANCH   2  25
HETATM   25  C   UNL     1      -7.960   8.976  65.334  1.00  0.00    -0.111 A  
HETATM   26 CL   UNL     1      -7.420   8.597  62.638  1.00  0.00    -0.103 Cl 
HETATM   27  C   UNL     1      -8.818   9.519  66.324  1.00  0.00    -0.149 A  
HETATM   28 CL   UNL     1      -8.611   9.205  68.017  1.00  0.00    -0.125 Cl 
HETATM   29  F   UNL     1      -9.651  10.391  62.396  1.00  0.00    -0.276 F  
HETATM   30  C   UNL     1      -9.910  10.332  65.990  1.00  0.00    -0.292 A  
HETATM   31  C   UNL     1     -10.176  10.630  64.661  1.00  0.00    -0.404 A  
HETATM   32  C   UNL     1      -8.277   9.264  63.987  1.00  0.00    -0.164 A  
HETATM   33  C   UNL     1      -9.363  10.096  63.673  1.00  0.00    -0.290 A  
ENDBRANCH   2  25
TORSDOF 5
ENDMDL
MODEL      254
REMARK 921   NORMALIZED FREE ENERGY PREDICTED BY IDOCK:   -2.98 KCAL/MOL
REMARK 922        TOTAL FREE ENERGY PREDICTED BY IDOCK:   -4.53 KCAL/MOL
REMARK 923 INTER-LIGAND FREE ENERGY PREDICTED BY IDOCK:   -4.03 KCAL/MOL
REMARK 924 INTRA-LIGAND FREE ENERGY PREDICTED BY IDOCK:   -0.50 KCAL/MOL
REMARK 927      BINDING AFFINITY PREDICTED BY RF-SCORE:    0.00 PKD
ROOT
HETATM    1  C   UNL     1      -6.665  19.116  70.152  1.00  0.00     0.145 C  
HETATM    2  C   UNL     1      -6.808  18.217  68.923  1.00  0.00    -0.261 C  
ENDROOT
BRANCH   2   3
HETATM    3  O   UNL     1      -7.283  16.954  69.391  1.00  0.00    -0.216 OA 
BRANCH   3   4
HETATM    4  C   UNL     1      -7.372  15.886  68.546  1.00  0.00    -0.127 A  
HETATM    5  C   UNL     1      -7.767  13.621  67.084  1.00  0.00     0.033 A  
HETATM    6  C   UNL     1      -8.740  13.959  68.017  1.00  0.00    -0.183 A  
HETATM    7  H1  UNL     1      -4.534  15.717  66.686  1.00  0.00     0.000 HD 
HETATM    8  N   UNL     1      -6.637  14.333  66.859  1.00  0.00     0.412 NA 
HETATM    9  C   UNL     1      -8.527  15.120  68.751  1.00  0.00    -0.180 A  
HETATM   10  C   UNL     1      -6.443  15.436  67.606  1.00  0.00    -0.165 A  
HETATM   11  H2  UNL     1      -4.730  16.099  68.269  1.00  0.00     0.000 HD 
HETATM   12  N   UNL     1      -5.213  16.046  67.372  1.00  0.00    -0.292 NA 
BRANCH   6  13
HETATM   13  C   UNL     1      -9.887  13.102  68.228  1.00  0.00    -0.227 A  
HETATM   14  N   UNL     1     -12.034  12.371  68.433  1.00  0.00    -0.292 NA 
HETATM   15  C   UNL     1     -11.259  13.415  68.156  1.00  0.00    -0.273 A  
HETATM   16  C   UNL     1      -9.862  11.762  68.561  1.00  0.00    -0.189 A  
HETATM   17  N   UNL     1     -11.170  11.376  68.697  1.00  0.00    -0.219 NA 
BRANCH  17  18
HETATM   18  C   UNL     1     -11.663  10.062  69.112  1.00  0.00     0.135 C  
HETATM   19  C   UNL     1     -10.535   9.133  69.582  1.00  0.00    -0.230 C  
HETATM   20  C   UNL     1     -10.052   9.468  70.994  1.00  0.00    -0.229 C  
HETATM   21  N   UNL     1     -11.156   9.502  71.955  1.00  0.00    -0.164 NA 
HETATM   22  C   UNL     1     -12.196  10.457  71.566  1.00  0.00    -0.321 C  
HETATM   23  H   UNL     1     -10.818   9.688  72.899  1.00  0.00     0.000 HD 
HETATM   24  C   UNL     1     -12.759  10.153  70.180  1.00  0.00    -0.017 C  
ENDBRANCH  17  18
ENDBRANCH   6  13
ENDBRANCH   3   4
ENDBRANCH   2   3
BRANCH   2  25
HETATM   25  C   UNL     1      -7.740  18.858  67.892  1.00  0.00    -0.286 A  
HETATM   26 CL   UNL     1      -5.753  18.945  65.955  1.00  0.00    -0.180 Cl 
HETATM   27  C   UNL     1      -9.102  19.067  68.229  1.00  0.00    -0.327 A  
HETATM   28 CL   UNL     1      -9.770  18.602  69.761  1.00  0.00     0.424 Cl 
HETATM   29  F   UNL     1      -7.872  20.202  64.475  1.00  0.00     0.463 F  
HETATM   30  C   UNL     1     -10.005  19.645  67.326  1.00  0.00    -0.518 A  
HETATM   31  C   UNL     1      -9.578  20.035  66.065  1.00  0.00    -0.420 A  
HETATM   32  C   UNL     1      -7.340  19.229  66.589  1.00  0.00    -0.225 A  
HETATM   33  C   UNL     1      -8.255  19.825  65.705  1.00  0.00    -0.099 A  
ENDBRANCH   2  25
TORSDOF 5
ENDMDL
MODEL      255
REMARK 921   NORMALIZED FREE ENERGY PREDICTED BY IDOCK:   -2.90 KCAL/MOL
REMARK 922        TOTAL FREE ENERGY PREDICTED BY IDOCK:   -4.42 KCAL/MOL
REMARK 923 INTER-LIGAND FREE ENERGY PREDICTED BY IDOCK:   -4.26 KCAL/MOL
REMARK 924 INTRA-LIGAND FREE ENERGY PREDICTED BY IDOCK:   -0.17 KCAL/MOL
REMARK 927      BINDING AFFINITY PREDICTED BY RF-SCORE:    0.00 PKD
ROOT
HETATM    1  C   UNL     1      -9.586   6.153  70.084  1.00  0.00    -0.187 C  
HETATM    2  C   UNL     1      -9.468   7.668  69.912  1.00  0.00    -0.160 C  
ENDROOT
BRANCH   2   3
HETATM    3  O   UNL     1      -8.426   8.101  70.788  1.00  0.00    -0.117 OA 
BRANCH   3   4
HETATM    4  C   UNL     1      -7.556   9.081  70.407  1.00  0.00    -0.100 A  
HETATM    5  C   UNL     1      -6.075  11.165  69.465  1.00  0.00    -0.081 A  
HETATM    6  C   UNL     1      -7.458  11.302  69.447  1.00  0.00     0.014 A  
HETATM    7  H1  UNL     1      -4.384   7.887  70.648  1.00  0.00     0.000 HD 
HETATM    8  N   UNL     1      -5.417  10.068  69.908  1.00  0.00    -0.037 NA 
HETATM    9  C   UNL     1      -8.199  10.232  69.936  1.00  0.00    -0.046 A  
HETATM   10  C   UNL     1      -6.162   9.036  70.348  1.00  0.00    -0.042 A  
HETATM   11  H2  UNL     1      -5.751   7.139  70.137  1.00  0.00     0.000 HD 
HETATM   12  N   UNL     1      -5.403   7.921  70.692  1.00  0.00    -0.023 NA 
BRANCH   6  13
HETATM   13  C   UNL     1      -8.073  12.492  68.898  1.00  0.00     0.200 A  
HETATM   14  N   UNL     1      -8.357  14.579  68.033  1.00  0.00    -0.144 NA 
HETATM   15  C   UNL     1      -7.469  13.688  68.463  1.00  0.00    -0.119 A  
HETATM   16  C   UNL     1      -9.423  12.699  68.692  1.00  0.00     0.005 A  
HETATM   17  N   UNL     1      -9.545  13.971  68.197  1.00  0.00    -0.214 NA 
BRANCH  17  18
HETATM   18  C   UNL     1     -10.786  14.681  67.886  1.00  0.00    -0.250 C  
HETATM   19  C   UNL     1     -11.952  14.245  68.784  1.00  0.00    -0.346 C  
HETATM   20  C   UNL     1     -11.876  14.861  70.181  1.00  0.00    -0.308 C  
HETATM   21  N   UNL     1     -11.754  16.318  70.129  1.00  0.00    -0.380 NA 
HETATM   22  C   UNL     1     -10.587  16.746  69.355  1.00  0.00    -0.318 C  
HETATM   23  H   UNL     1     -11.743  16.722  71.066  1.00  0.00     0.000 HD 
HETATM   24  C   UNL     1     -10.621  16.204  67.927  1.00  0.00    -0.309 C  
ENDBRANCH  17  18
ENDBRANCH   6  13
ENDBRANCH   3   4
ENDBRANCH   2   3
BRANCH   2  25
HETATM   25  C   UNL     1      -9.200   8.024  68.448  1.00  0.00    -0.135 A  
HETATM   26 CL   UNL     1      -7.163   6.151  68.230  1.00  0.00    -0.082 Cl 
HETATM   27  C   UNL     1     -10.026   8.984  67.808  1.00  0.00    -0.187 A  
HETATM   28 CL   UNL     1     -11.352   9.761  68.610  1.00  0.00    -0.059 Cl 
HETATM   29  F   UNL     1      -7.027   7.266  65.584  1.00  0.00    -0.055 F  
HETATM   30  C   UNL     1      -9.832   9.348  66.468  1.00  0.00    -0.325 A  
HETATM   31  C   UNL     1      -8.810   8.771  65.729  1.00  0.00    -0.233 A  
HETATM   32  C   UNL     1      -8.191   7.424  67.661  1.00  0.00    -0.118 A  
HETATM   33  C   UNL     1      -8.001   7.816  66.326  1.00  0.00    -0.100 A  
ENDBRANCH   2  25
TORSDOF 5
ENDMDL
MODEL      256
REMARK 921   NORMALIZED FREE ENERGY PREDICTED BY IDOCK:   -2.87 KCAL/MOL
REMARK 922        TOTAL FREE ENERGY PREDICTED BY IDOCK:   -4.38 KCAL/MOL
REMARK 923 INTER-LIGAND FREE ENERGY PREDICTED BY IDOCK:   -4.48 KCAL/MOL
REMARK 924 INTRA-LIGAND FREE ENERGY PREDICTED BY IDOCK:    0.10 KCAL/MOL
REMARK 927      BINDING AFFINITY PREDICTED BY RF-SCORE:    0.00 PKD
ROOT
HETATM    1  C   UNL     1      -5.981  19.385  70.128  1.00  0.00    -0.282 C  
HETATM    2  C   UNL     1      -6.573  18.334  69.188  1.00  0.00    -0.258 C  
ENDROOT
BRANCH   2   3
HETATM    3  O   UNL     1      -7.981  18.317  69.425  1.00  0.00     0.093 OA 
BRANCH   3   4
HETATM    4  C   UNL     1      -8.836  17.769  68.513  1.00  0.00    -0.283 A  
HETATM    5  C   UNL     1     -10.373  16.384  66.740  1.00  0.00    -0.293 A  
HETATM    6  C   UNL     1      -9.682  15.651  67.698  1.00  0.00    -0.225 A  
HETATM    7  H1  UNL     1     -10.004  20.231  66.485  1.00  0.00     0.000 HD 
HETATM    8  N   UNL     1     -10.328  17.732  66.624  1.00  0.00    -0.352 NA 
HETATM    9  C   UNL     1      -8.906  16.373  68.598  1.00  0.00    -0.234 A  
HETATM   10  C   UNL     1      -9.545  18.402  67.490  1.00  0.00    -0.284 A  
HETATM   11  H2  UNL     1      -8.504  20.008  67.107  1.00  0.00     0.000 HD 
HETATM   12  N   UNL     1      -9.487  19.769  67.232  1.00  0.00    -0.337 NA 
BRANCH   6  13
HETATM   13  C   UNL     1      -9.746  14.205  67.707  1.00  0.00    -0.223 A  
HETATM   14  N   UNL     1     -10.451  12.073  68.081  1.00  0.00    -0.196 NA 
HETATM   15  C   UNL     1     -10.739  13.361  68.240  1.00  0.00    -0.258 A  
HETATM   16  C   UNL     1      -8.808  13.338  67.183  1.00  0.00    -0.222 A  
HETATM   17  N   UNL     1      -9.262  12.073  67.453  1.00  0.00    -0.175 NA 
BRANCH  17  18
HETATM   18  C   UNL     1      -8.582  10.812  67.160  1.00  0.00    -0.128 C  
HETATM   19  C   UNL     1      -7.367  10.575  68.068  1.00  0.00    -0.089 C  
HETATM   20  C   UNL     1      -7.765  10.108  69.468  1.00  0.00    -0.155 C  
HETATM   21  N   UNL     1      -8.640   8.935  69.424  1.00  0.00    -0.130 NA 
HETATM   22  C   UNL     1      -9.851   9.179  68.639  1.00  0.00    -0.164 C  
HETATM   23  H   UNL     1      -8.868   8.609  70.363  1.00  0.00     0.000 HD 
HETATM   24  C   UNL     1      -9.527   9.605  67.209  1.00  0.00    -0.175 C  
ENDBRANCH  17  18
ENDBRANCH   6  13
ENDBRANCH   3   4
ENDBRANCH   2   3
BRANCH   2  25
HETATM   25  C   UNL     1      -6.218  18.652  67.734  1.00  0.00    -0.194 A  
HETATM   26 CL   UNL     1      -5.867  15.974  67.096  1.00  0.00    -0.076 Cl 
HETATM   27  C   UNL     1      -6.273  19.998  67.289  1.00  0.00    -0.184 A  
HETATM   28 CL   UNL     1      -6.749  21.307  68.321  1.00  0.00     0.073 Cl 
HETATM   29  F   UNL     1      -5.193  17.128  64.552  1.00  0.00     1.031 F  
HETATM   30  C   UNL     1      -5.964  20.351  65.968  1.00  0.00    -0.217 A  
HETATM   31  C   UNL     1      -5.590  19.377  65.054  1.00  0.00    -0.231 A  
HETATM   32  C   UNL     1      -5.872  17.676  66.773  1.00  0.00    -0.168 A  
HETATM   33  C   UNL     1      -5.547  18.052  65.460  1.00  0.00    -0.146 A  
ENDBRANCH   2  25
TORSDOF 5
ENDMDL
MODEL      257
REMARK 921   NORMALIZED FREE ENERGY PREDICTED BY IDOCK:   -2.84 KCAL/MOL
REMARK 922        TOTAL FREE ENERGY PREDICTED BY IDOCK:   -4.34 KCAL/MOL
REMARK 923 INTER-LIGAND FREE ENERGY PREDICTED BY IDOCK:   -4.49 KCAL/MOL
REMARK 924 INTRA-LIGAND FREE ENERGY PREDICTED BY IDOCK:    0.16 KCAL/MOL
REMARK 927      BINDING AFFINITY PREDICTED BY RF-SCORE:    0.00 PKD
ROOT
HETATM    1  C   UNL     1      -9.483   6.742  74.540  1.00  0.00    -0.258 C  
HETATM    2  C   UNL     1      -9.648   7.830  73.478  1.00  0.00    -0.270 C  
ENDROOT
BRANCH   2   3
HETATM    3  O   UNL     1      -8.396   8.513  73.391  1.00  0.00    -0.374 OA 
BRANCH   3   4
HETATM    4  C   UNL     1      -7.367   7.992  72.662  1.00  0.00    -0.107 A  
HETATM    5  C   UNL     1      -5.523   6.958  70.943  1.00  0.00    -0.027 A  
HETATM    6  C   UNL     1      -6.586   7.664  70.393  1.00  0.00    -0.038 A  
HETATM    7  H1  UNL     1      -5.268   6.333  74.756  1.00  0.00     0.000 HD 
HETATM    8  N   UNL     1      -5.346   6.743  72.267  1.00  0.00    -0.036 NA 
HETATM    9  C   UNL     1      -7.516   8.189  71.283  1.00  0.00    -0.074 A  
HETATM   10  C   UNL     1      -6.278   7.238  73.104  1.00  0.00    -0.056 A  
HETATM   11  H2  UNL     1      -6.906   6.411  74.757  1.00  0.00     0.000 HD 
HETATM   12  N   UNL     1      -6.063   6.885  74.433  1.00  0.00    -0.071 NA 
BRANCH   6  13
HETATM   13  C   UNL     1      -6.723   7.792  68.957  1.00  0.00    -0.049 A  
HETATM   14  N   UNL     1      -6.850   7.281  66.742  1.00  0.00    -0.063 NA 
HETATM   15  C   UNL     1      -6.720   6.787  67.970  1.00  0.00    -0.068 A  
HETATM   16  C   UNL     1      -6.878   8.966  68.247  1.00  0.00    -0.065 A  
HETATM   17  N   UNL     1      -6.925   8.611  66.925  1.00  0.00    -0.076 NA 
BRANCH  17  18
HETATM   18  C   UNL     1      -7.010   9.510  65.773  1.00  0.00    -0.095 C  
HETATM   19  C   UNL     1      -7.714   8.862  64.573  1.00  0.00    -0.119 C  
HETATM   20  C   UNL     1      -9.234   8.826  64.736  1.00  0.00     0.279 C  
HETATM   21  N   UNL     1      -9.783  10.150  65.031  1.00  0.00    -0.299 NA 
HETATM   22  C   UNL     1      -9.187  10.740  66.231  1.00  0.00    -0.173 C  
HETATM   23  H   UNL     1     -10.800  10.122  65.099  1.00  0.00     0.000 HD 
HETATM   24  C   UNL     1      -7.668  10.851  66.118  1.00  0.00    -0.133 C  
ENDBRANCH  17  18
ENDBRANCH   6  13
ENDBRANCH   3   4
ENDBRANCH   2   3
BRANCH   2  25
HETATM   25  C   UNL     1     -10.086   7.219  72.145  1.00  0.00    -0.207 A  
HETATM   26 CL   UNL     1      -9.077   4.720  72.809  1.00  0.00    -0.129 Cl 
HETATM   27  C   UNL     1     -10.814   8.017  71.226  1.00  0.00    -0.232 A  
HETATM   28 CL   UNL     1     -11.256   9.661  71.557  1.00  0.00    -0.432 Cl 
HETATM   29  F   UNL     1     -10.018   4.129  70.159  1.00  0.00    -0.270 F  
HETATM   30  C   UNL     1     -11.246   7.513  69.991  1.00  0.00    -0.173 A  
HETATM   31  C   UNL     1     -10.963   6.202  69.635  1.00  0.00    -0.459 A  
HETATM   32  C   UNL     1      -9.844   5.877  71.774  1.00  0.00    -0.163 A  
HETATM   33  C   UNL     1     -10.268   5.396  70.524  1.00  0.00    -0.256 A  
ENDBRANCH   2  25
TORSDOF 5
ENDMDL
MODEL      258
REMARK 921   NORMALIZED FREE ENERGY PREDICTED BY IDOCK:   -2.46 KCAL/MOL
REMARK 922        TOTAL FREE ENERGY PREDICTED BY IDOCK:   -3.85 KCAL/MOL
REMARK 923 INTER-LIGAND FREE ENERGY PREDICTED BY IDOCK:   -4.23 KCAL/MOL
REMARK 924 INTRA-LIGAND FREE ENERGY PREDICTED BY IDOCK:    0.38 KCAL/MOL
REMARK 927      BINDING AFFINITY PREDICTED BY RF-SCORE:    0.00 PKD
ROOT
HETATM    1  C   UNL     1      -8.057  11.293  65.278  1.00  0.00     0.393 C  
HETATM    2  C   UNL     1      -9.506  10.818  65.159  1.00  0.00    -0.226 C  
ENDROOT
BRANCH   2   3
HETATM    3  O   UNL     1      -9.534   9.465  65.619  1.00  0.00    -0.231 OA 
BRANCH   3   4
HETATM    4  C   UNL     1      -8.378   8.812  65.934  1.00  0.00    -0.126 A  
HETATM    5  C   UNL     1      -6.065   7.696  66.845  1.00  0.00    -0.048 A  
HETATM    6  C   UNL     1      -6.891   8.311  67.779  1.00  0.00    -0.070 A  
HETATM    7  H1  UNL     1      -6.925   7.707  63.068  1.00  0.00     0.000 HD 
HETATM    8  N   UNL     1      -6.327   7.621  65.519  1.00  0.00    -0.041 NA 
HETATM    9  C   UNL     1      -8.069   8.871  67.299  1.00  0.00    -0.104 A  
HETATM   10  C   UNL     1      -7.461   8.198  65.078  1.00  0.00    -0.087 A  
HETATM   11  H2  UNL     1      -7.706   9.116  63.373  1.00  0.00     0.000 HD 
HETATM   12  N   UNL     1      -7.595   8.155  63.694  1.00  0.00    -0.124 NA 
BRANCH   6  13
HETATM   13  C   UNL     1      -6.497   8.392  69.169  1.00  0.00    -0.043 A  
HETATM   14  N   UNL     1      -5.759   9.202  71.165  1.00  0.00    -0.046 NA 
HETATM   15  C   UNL     1      -6.054   9.509  69.906  1.00  0.00    -0.044 A  
HETATM   16  C   UNL     1      -6.470   7.353  70.078  1.00  0.00    -0.038 A  
HETATM   17  N   UNL     1      -5.998   7.882  71.251  1.00  0.00    -0.034 NA 
BRANCH  17  18
HETATM   18  C   UNL     1      -5.721   7.162  72.494  1.00  0.00    -0.038 C  
HETATM   19  C   UNL     1      -6.559   7.678  73.671  1.00  0.00    -0.083 C  
HETATM   20  C   UNL     1      -8.002   7.174  73.627  1.00  0.00    -0.109 C  
HETATM   21  N   UNL     1      -8.068   5.715  73.519  1.00  0.00    -0.112 NA 
HETATM   22  C   UNL     1      -7.351   5.216  72.344  1.00  0.00    -0.093 C  
HETATM   23  H   UNL     1      -9.033   5.387  73.529  1.00  0.00     0.000 HD 
HETATM   24  C   UNL     1      -5.885   5.644  72.347  1.00  0.00    -0.027 C  
ENDBRANCH  17  18
ENDBRANCH   6  13
ENDBRANCH   3   4
ENDBRANCH   2   3
BRANCH   2  25
HETATM   25  C   UNL     1     -10.440  11.734  65.952  1.00  0.00    -0.296 A  
HETATM   26 CL   UNL     1      -9.193  11.139  68.360  1.00  0.00    -0.169 Cl 
HETATM   27  C   UNL     1     -11.406  12.504  65.256  1.00  0.00    -0.324 A  
HETATM   28 CL   UNL     1     -11.564  12.471  63.529  1.00  0.00    -0.561 Cl 
HETATM   29  F   UNL     1     -11.245  12.894  69.344  1.00  0.00    -0.275 F  
HETATM   30  C   UNL     1     -12.287  13.365  65.927  1.00  0.00    -0.493 A  
HETATM   31  C   UNL     1     -12.232  13.481  67.308  1.00  0.00    -0.305 A  
HETATM   32  C   UNL     1     -10.380  11.901  67.354  1.00  0.00    -0.207 A  
HETATM   33  C   UNL     1     -11.283  12.753  68.010  1.00  0.00    -0.270 A  
ENDBRANCH   2  25
TORSDOF 5
ENDMDL
MODEL      259
REMARK 921   NORMALIZED FREE ENERGY PREDICTED BY IDOCK:   -2.17 KCAL/MOL
REMARK 922        TOTAL FREE ENERGY PREDICTED BY IDOCK:   -3.48 KCAL/MOL
REMARK 923 INTER-LIGAND FREE ENERGY PREDICTED BY IDOCK:   -3.94 KCAL/MOL
REMARK 924 INTRA-LIGAND FREE ENERGY PREDICTED BY IDOCK:    0.46 KCAL/MOL
REMARK 927      BINDING AFFINITY PREDICTED BY RF-SCORE:    0.00 PKD
ROOT
HETATM    1  C   UNL     1     -11.940  14.841  69.356  1.00  0.00    -0.339 C  
HETATM    2  C   UNL     1     -10.669  14.663  68.525  1.00  0.00    -0.247 C  
ENDROOT
BRANCH   2   3
HETATM    3  O   UNL     1     -10.390  13.262  68.496  1.00  0.00    -0.245 OA 
BRANCH   3   4
HETATM    4  C   UNL     1      -9.152  12.790  68.823  1.00  0.00     0.177 A  
HETATM    5  C   UNL     1      -6.838  11.563  69.572  1.00  0.00    -0.075 A  
HETATM    6  C   UNL     1      -7.928  10.751  69.281  1.00  0.00    -0.110 A  
HETATM    7  H1  UNL     1      -7.114  15.425  69.488  1.00  0.00     0.000 HD 
HETATM    8  N   UNL     1      -6.850  12.916  69.517  1.00  0.00     0.031 NA 
HETATM    9  C   UNL     1      -9.100  11.392  68.896  1.00  0.00    -0.022 A  
HETATM   10  C   UNL     1      -8.007  13.510  69.170  1.00  0.00     0.329 A  
HETATM   11  H2  UNL     1      -8.694  15.200  69.863  1.00  0.00     0.000 HD 
HETATM   12  N   UNL     1      -7.950  14.899  69.234  1.00  0.00    -0.173 NA 
BRANCH   6  13
HETATM   13  C   UNL     1      -7.835   9.314  69.426  1.00  0.00    -0.083 A  
HETATM   14  N   UNL     1      -7.093   7.241  70.003  1.00  0.00    -0.064 NA 
HETATM   15  C   UNL     1      -6.864   8.547  70.098  1.00  0.00    -0.039 A  
HETATM   16  C   UNL     1      -8.708   8.378  68.906  1.00  0.00    -0.136 A  
HETATM   17  N   UNL     1      -8.208   7.151  69.258  1.00  0.00    -0.127 NA 
BRANCH  17  18
HETATM   18  C   UNL     1      -8.740   5.842  68.880  1.00  0.00    -0.111 C  
HETATM   19  C   UNL     1      -8.196   5.354  67.530  1.00  0.00    -0.100 C  
HETATM   20  C   UNL     1      -6.769   4.814  67.635  1.00  0.00    -0.051 C  
HETATM   21  N   UNL     1      -6.651   3.782  68.667  1.00  0.00    -0.040 NA 
HETATM   22  C   UNL     1      -7.077   4.266  69.982  1.00  0.00    -0.042 C  
HETATM   23  H   UNL     1      -5.705   3.402  68.702  1.00  0.00     0.000 HD 
HETATM   24  C   UNL     1      -8.515   4.778  69.962  1.00  0.00    -0.087 C  
ENDBRANCH  17  18
ENDBRANCH   6  13
ENDBRANCH   3   4
ENDBRANCH   2   3
BRANCH   2  25
HETATM   25  C   UNL     1     -10.850  15.262  67.129  1.00  0.00    -0.322 A  
HETATM   26 CL   UNL     1      -9.633  17.650  67.853  1.00  0.00    -0.275 Cl 
HETATM   27  C   UNL     1     -11.417  14.464  66.103  1.00  0.00    -0.357 A  
HETATM   28 CL   UNL     1     -11.896  12.816  66.355  1.00  0.00    -0.462 Cl 
HETATM   29  F   UNL     1     -10.305  18.300  65.136  1.00  0.00     0.067 F  
HETATM   30  C   UNL     1     -11.604  14.955  64.803  1.00  0.00    -0.410 A  
HETATM   31  C   UNL     1     -11.236  16.255  64.489  1.00  0.00    -0.218 A  
HETATM   32  C   UNL     1     -10.449  16.569  66.772  1.00  0.00    -0.269 A  
HETATM   33  C   UNL     1     -10.663  17.050  65.470  1.00  0.00    -0.138 A  
ENDBRANCH   2  25
TORSDOF 5
ENDMDL
MODEL      260
REMARK 921   NORMALIZED FREE ENERGY PREDICTED BY IDOCK:   -2.09 KCAL/MOL
REMARK 922        TOTAL FREE ENERGY PREDICTED BY IDOCK:   -3.37 KCAL/MOL
REMARK 923 INTER-LIGAND FREE ENERGY PREDICTED BY IDOCK:   -3.32 KCAL/MOL
REMARK 924 INTRA-LIGAND FREE ENERGY PREDICTED BY IDOCK:   -0.05 KCAL/MOL
REMARK 927      BINDING AFFINITY PREDICTED BY RF-SCORE:    0.00 PKD
ROOT
HETATM    1  C   UNL     1     -11.027   7.531  72.305  1.00  0.00    -0.307 C  
HETATM    2  C   UNL     1      -9.957   7.932  71.288  1.00  0.00    -0.176 C  
ENDROOT
BRANCH   2   3
HETATM    3  O   UNL     1      -8.716   7.412  71.771  1.00  0.00    -0.115 OA 
BRANCH   3   4
HETATM    4  C   UNL     1      -7.530   7.962  71.379  1.00  0.00    -0.074 A  
HETATM    5  C   UNL     1      -5.343   9.234  70.369  1.00  0.00    -0.031 A  
HETATM    6  C   UNL     1      -6.582   9.829  70.162  1.00  0.00    -0.091 A  
HETATM    7  H1  UNL     1      -5.015   5.817  72.163  1.00  0.00     0.000 HD 
HETATM    8  N   UNL     1      -5.151   8.067  71.028  1.00  0.00    -0.026 NA 
HETATM    9  C   UNL     1      -7.687   9.170  70.687  1.00  0.00    -0.152 A  
HETATM   10  C   UNL     1      -6.242   7.436  71.500  1.00  0.00    -0.036 A  
HETATM   11  H2  UNL     1      -6.518   5.506  71.586  1.00  0.00     0.000 HD 
HETATM   12  N   UNL     1      -5.956   6.202  72.075  1.00  0.00    -0.036 NA 
BRANCH   6  13
HETATM   13  C   UNL     1      -6.694  11.050  69.393  1.00  0.00    -0.112 A  
HETATM   14  N   UNL     1      -6.837  12.499  67.643  1.00  0.00    -0.121 NA 
HETATM   15  C   UNL     1      -6.758  11.220  67.996  1.00  0.00    -0.062 A  
HETATM   16  C   UNL     1      -6.752  12.335  69.895  1.00  0.00     0.205 A  
HETATM   17  N   UNL     1      -6.813  13.168  68.809  1.00  0.00    -0.098 NA 
BRANCH  17  18
HETATM   18  C   UNL     1      -6.818  14.631  68.819  1.00  0.00    -0.095 C  
HETATM   19  C   UNL     1      -7.479  15.226  67.568  1.00  0.00    -0.216 C  
HETATM   20  C   UNL     1      -9.006  15.158  67.626  1.00  0.00    -0.180 C  
HETATM   21  N   UNL     1      -9.533  15.761  68.850  1.00  0.00    -0.214 NA 
HETATM   22  C   UNL     1      -8.981  15.137  70.055  1.00  0.00     0.354 C  
HETATM   23  H   UNL     1     -10.553  15.745  68.861  1.00  0.00     0.000 HD 
HETATM   24  C   UNL     1      -7.456  15.211  70.087  1.00  0.00     0.220 C  
ENDBRANCH  17  18
ENDBRANCH   6  13
ENDBRANCH   3   4
ENDBRANCH   2   3
BRANCH   2  25
HETATM   25  C   UNL     1     -10.317   7.414  69.894  1.00  0.00    -0.222 A  
HETATM   26 CL   UNL     1      -9.810   9.872  68.707  1.00  0.00    -0.168 Cl 
HETATM   27  C   UNL     1     -10.649   6.045  69.731  1.00  0.00    -0.289 A  
HETATM   28 CL   UNL     1     -10.643   4.917  71.048  1.00  0.00    -0.160 Cl 
HETATM   29  F   UNL     1     -10.673   8.423  66.380  1.00  0.00    -0.300 F  
HETATM   30  C   UNL     1     -10.983   5.511  68.479  1.00  0.00     0.082 A  
HETATM   31  C   UNL     1     -11.000   6.324  67.355  1.00  0.00    -0.447 A  
HETATM   32  C   UNL     1     -10.303   8.211  68.728  1.00  0.00    -0.202 A  
HETATM   33  C   UNL     1     -10.660   7.662  67.485  1.00  0.00    -0.252 A  
ENDBRANCH   2  25
TORSDOF 5
ENDMDL
MODEL      261
REMARK 921   NORMALIZED FREE ENERGY PREDICTED BY IDOCK:   -1.69 KCAL/MOL
REMARK 922        TOTAL FREE ENERGY PREDICTED BY IDOCK:   -2.85 KCAL/MOL
REMARK 923 INTER-LIGAND FREE ENERGY PREDICTED BY IDOCK:   -4.11 KCAL/MOL
REMARK 924 INTRA-LIGAND FREE ENERGY PREDICTED BY IDOCK:    1.25 KCAL/MOL
REMARK 927      BINDING AFFINITY PREDICTED BY RF-SCORE:    0.00 PKD
ROOT
HETATM    1  C   UNL     1     -10.255   6.564  73.009  1.00  0.00    -0.220 C  
HETATM    2  C   UNL     1      -9.327   7.098  71.916  1.00  0.00    -0.138 C  
ENDROOT
BRANCH   2   3
HETATM    3  O   UNL     1      -8.037   6.534  72.161  1.00  0.00    -0.106 OA 
BRANCH   3   4
HETATM    4  C   UNL     1      -7.167   6.313  71.134  1.00  0.00    -0.079 A  
HETATM    5  C   UNL     1      -5.672   5.987  68.879  1.00  0.00    -0.012 A  
HETATM    6  C   UNL     1      -6.730   6.887  68.822  1.00  0.00    -0.056 A  
HETATM    7  H1  UNL     1      -4.969   3.893  72.060  1.00  0.00     0.000 HD 
HETATM    8  N   UNL     1      -5.340   5.259  69.971  1.00  0.00    -0.004 NA 
HETATM    9  C   UNL     1      -7.480   7.045  69.982  1.00  0.00    -0.090 A  
HETATM   10  C   UNL     1      -6.103   5.411  71.070  1.00  0.00    -0.029 A  
HETATM   11  H2  UNL     1      -6.578   4.016  72.351  1.00  0.00     0.000 HD 
HETATM   12  N   UNL     1      -5.746   4.553  72.107  1.00  0.00    -0.011 NA 
BRANCH   6  13
HETATM   13  C   UNL     1      -7.044   7.578  67.589  1.00  0.00    -0.085 A  
HETATM   14  N   UNL     1      -7.582   7.988  65.415  1.00  0.00    -0.079 NA 
HETATM   15  C   UNL     1      -7.374   7.044  66.328  1.00  0.00    -0.076 A  
HETATM   16  C   UNL     1      -7.074   8.945  67.398  1.00  0.00    -0.079 A  
HETATM   17  N   UNL     1      -7.377   9.141  66.076  1.00  0.00    -0.093 NA 
BRANCH  17  18
HETATM   18  C   UNL     1      -7.454  10.419  65.369  1.00  0.00    -0.127 C  
HETATM   19  C   UNL     1      -8.097  10.286  63.981  1.00  0.00    -0.137 C  
HETATM   20  C   UNL     1      -9.619  10.161  64.052  1.00  0.00    -0.257 C  
HETATM   21  N   UNL     1     -10.221  11.252  64.820  1.00  0.00    -0.271 NA 
HETATM   22  C   UNL     1      -9.684  11.330  66.181  1.00  0.00    -0.220 C  
HETATM   23  H   UNL     1     -11.238  11.181  64.829  1.00  0.00     0.000 HD 
HETATM   24  C   UNL     1      -8.167  11.504  66.185  1.00  0.00     0.018 C  
ENDBRANCH  17  18
ENDBRANCH   6  13
ENDBRANCH   3   4
ENDBRANCH   2   3
BRANCH   2  25
HETATM   25  C   UNL     1      -9.874   6.752  70.530  1.00  0.00    -0.187 A  
HETATM   26 CL   UNL     1      -9.945   9.415  69.749  1.00  0.00    -0.200 Cl 
HETATM   27  C   UNL     1     -10.041   5.389  70.174  1.00  0.00    -0.252 A  
HETATM   28 CL   UNL     1      -9.628   4.085  71.241  1.00  0.00    -0.234 Cl 
HETATM   29  F   UNL     1     -11.033   8.225  67.370  1.00  0.00    -0.317 F  
HETATM   30  C   UNL     1     -10.533   5.009  68.918  1.00  0.00    -0.061 A  
HETATM   31  C   UNL     1     -10.876   5.974  67.982  1.00  0.00    -0.374 A  
HETATM   32  C   UNL     1     -10.194   7.713  69.544  1.00  0.00    -0.209 A  
HETATM   33  C   UNL     1     -10.704   7.313  68.298  1.00  0.00    -0.123 A  
ENDBRANCH   2  25
TORSDOF 5
ENDMDL
MODEL      262
REMARK 921   NORMALIZED FREE ENERGY PREDICTED BY IDOCK:   -1.11 KCAL/MOL
REMARK 922        TOTAL FREE ENERGY PREDICTED BY IDOCK:   -2.10 KCAL/MOL
REMARK 923 INTER-LIGAND FREE ENERGY PREDICTED BY IDOCK:   -2.63 KCAL/MOL
REMARK 924 INTRA-LIGAND FREE ENERGY PREDICTED BY IDOCK:    0.53 KCAL/MOL
REMARK 927      BINDING AFFINITY PREDICTED BY RF-SCORE:    0.00 PKD
ROOT
HETATM    1  C   UNL     1     -10.254   6.575  73.029  1.00  0.00    -0.220 C  
HETATM    2  C   UNL     1      -9.293   6.902  71.885  1.00  0.00    -0.141 C  
ENDROOT
BRANCH   2   3
HETATM    3  O   UNL     1      -8.000   6.449  72.293  1.00  0.00    -0.103 OA 
BRANCH   3   4
HETATM    4  C   UNL     1      -7.035   6.171  71.369  1.00  0.00    -0.076 A  
HETATM    5  C   UNL     1      -5.327   5.732  69.293  1.00  0.00    -0.004 A  
HETATM    6  C   UNL     1      -6.345   6.657  69.099  1.00  0.00    -0.035 A  
HETATM    7  H1  UNL     1      -5.018   3.727  72.592  1.00  0.00     0.000 HD 
HETATM    8  N   UNL     1      -5.131   5.032  70.435  1.00  0.00    -0.003 NA 
HETATM    9  C   UNL     1      -7.206   6.873  70.169  1.00  0.00    -0.076 A  
HETATM   10  C   UNL     1      -5.998   5.240  71.444  1.00  0.00    -0.028 A  
HETATM   11  H2  UNL     1      -6.644   3.902  72.711  1.00  0.00     0.000 HD 
HETATM   12  N   UNL     1      -5.775   4.408  72.538  1.00  0.00    -0.010 NA 
BRANCH   6  13
HETATM   13  C   UNL     1      -6.510   7.314  67.820  1.00  0.00    -0.052 A  
HETATM   14  N   UNL     1      -6.171   8.677  66.028  1.00  0.00    -0.052 NA 
HETATM   15  C   UNL     1      -5.692   8.281  67.203  1.00  0.00    -0.038 A  
HETATM   16  C   UNL     1      -7.544   7.122  66.924  1.00  0.00    -0.101 A  
HETATM   17  N   UNL     1      -7.309   7.977  65.880  1.00  0.00    -0.075 NA 
BRANCH  17  18
HETATM   18  C   UNL     1      -8.163   8.197  64.712  1.00  0.00    -0.133 C  
HETATM   19  C   UNL     1      -9.211   9.293  64.947  1.00  0.00    -0.206 C  
HETATM   20  C   UNL     1      -8.616  10.699  64.855  1.00  0.00    -0.141 C  
HETATM   21  N   UNL     1      -7.895  10.905  63.598  1.00  0.00    -0.338 NA 
HETATM   22  C   UNL     1      -6.828   9.922  63.406  1.00  0.00    -0.125 C  
HETATM   23  H   UNL     1      -7.536  11.857  63.529  1.00  0.00     0.000 HD 
HETATM   24  C   UNL     1      -7.360   8.490  63.439  1.00  0.00    -0.103 C  
ENDBRANCH  17  18
ENDBRANCH   6  13
ENDBRANCH   3   4
ENDBRANCH   2   3
BRANCH   2  25
HETATM   25  C   UNL     1      -9.766   6.255  70.582  1.00  0.00    -0.199 A  
HETATM   26 CL   UNL     1      -9.434   3.688  71.584  1.00  0.00    -0.202 Cl 
HETATM   27  C   UNL     1     -10.214   7.084  69.522  1.00  0.00    -0.199 A  
HETATM   28 CL   UNL     1     -10.273   8.813  69.646  1.00  0.00    -0.204 Cl 
HETATM   29  F   UNL     1     -10.294   3.019  68.925  1.00  0.00     0.450 F  
HETATM   30  C   UNL     1     -10.663   6.550  68.307  1.00  0.00    -0.341 A  
HETATM   31  C   UNL     1     -10.676   5.177  68.110  1.00  0.00     0.128 A  
HETATM   32  C   UNL     1      -9.826   4.859  70.370  1.00  0.00    -0.232 A  
HETATM   33  C   UNL     1     -10.260   4.344  69.138  1.00  0.00     0.227 A  
ENDBRANCH   2  25
TORSDOF 5
ENDMDL
MODEL      263
REMARK 921   NORMALIZED FREE ENERGY PREDICTED BY IDOCK:   -1.05 KCAL/MOL
REMARK 922        TOTAL FREE ENERGY PREDICTED BY IDOCK:   -2.02 KCAL/MOL
REMARK 923 INTER-LIGAND FREE ENERGY PREDICTED BY IDOCK:   -1.96 KCAL/MOL
REMARK 924 INTRA-LIGAND FREE ENERGY PREDICTED BY IDOCK:   -0.06 KCAL/MOL
REMARK 927      BINDING AFFINITY PREDICTED BY RF-SCORE:    0.00 PKD
ROOT
HETATM    1  C   UNL     1     -10.707  17.117  65.622  1.00  0.00    -0.140 C  
HETATM    2  C   UNL     1     -10.425  16.009  66.639  1.00  0.00    -0.304 C  
ENDROOT
BRANCH   2   3
HETATM    3  O   UNL     1     -11.530  15.991  67.543  1.00  0.00    -0.131 OA 
BRANCH   3   4
HETATM    4  C   UNL     1     -11.411  15.424  68.779  1.00  0.00    -0.341 A  
HETATM    5  C   UNL     1     -11.338  14.027  71.117  1.00  0.00     0.787 A  
HETATM    6  C   UNL     1     -11.523  13.304  69.945  1.00  0.00    -0.170 A  
HETATM    7  H1  UNL     1     -11.101  17.893  71.093  1.00  0.00     0.000 HD 
HETATM    8  N   UNL     1     -11.200  15.373  71.177  1.00  0.00    -0.364 NA 
HETATM    9  C   UNL     1     -11.554  14.031  68.760  1.00  0.00    -0.366 A  
HETATM   10  C   UNL     1     -11.263  16.053  70.017  1.00  0.00    -0.362 A  
HETATM   11  H2  UNL     1     -12.045  17.823  69.754  1.00  0.00     0.000 HD 
HETATM   12  N   UNL     1     -11.209  17.434  70.189  1.00  0.00     0.994 NA 
BRANCH   6  13
HETATM   13  C   UNL     1     -11.720  11.871  69.986  1.00  0.00    -0.366 A  
HETATM   14  N   UNL     1     -12.631   9.823  70.385  1.00  0.00    -0.014 NA 
HETATM   15  C   UNL     1     -12.805  11.135  70.502  1.00  0.00    -0.132 A  
HETATM   16  C   UNL     1     -10.848  10.908  69.520  1.00  0.00    -0.238 A  
HETATM   17  N   UNL     1     -11.425   9.698  69.803  1.00  0.00    -0.121 NA 
BRANCH  17  18
HETATM   18  C   UNL     1     -10.854   8.372  69.568  1.00  0.00    -0.117 C  
HETATM   19  C   UNL     1     -11.614   7.588  68.488  1.00  0.00     1.036 C  
HETATM   20  C   UNL     1     -11.269   8.057  67.074  1.00  0.00     0.843 C  
HETATM   21  N   UNL     1      -9.825   8.044  66.832  1.00  0.00    -0.224 NA 
HETATM   22  C   UNL     1      -9.096   8.867  67.799  1.00  0.00    -0.134 C  
HETATM   23  H   UNL     1      -9.609   8.321  65.875  1.00  0.00     0.000 HD 
HETATM   24  C   UNL     1      -9.358   8.423  69.237  1.00  0.00    -0.154 C  
ENDBRANCH  17  18
ENDBRANCH   6  13
ENDBRANCH   3   4
ENDBRANCH   2   3
BRANCH   2  25
HETATM   25  C   UNL     1     -10.215  14.669  65.930  1.00  0.00    -0.344 A  
HETATM   26 CL   UNL     1      -8.370  13.811  67.818  1.00  0.00    -0.165 Cl 
HETATM   27  C   UNL     1     -10.990  14.367  64.781  1.00  0.00    -0.397 A  
HETATM   28 CL   UNL     1     -12.191  15.448  64.150  1.00  0.00    -0.252 Cl 
HETATM   29  F   UNL     1      -8.296  11.539  66.059  1.00  0.00    -0.164 F  
HETATM   30  C   UNL     1     -10.846  13.155  64.091  1.00  0.00    -0.407 A  
HETATM   31  C   UNL     1      -9.926  12.211  64.524  1.00  0.00    -0.231 A  
HETATM   32  C   UNL     1      -9.313  13.675  66.372  1.00  0.00    -0.186 A  
HETATM   33  C   UNL     1      -9.170  12.475  65.656  1.00  0.00     0.205 A  
ENDBRANCH   2  25
TORSDOF 5
ENDMDL
MODEL      264
REMARK 921   NORMALIZED FREE ENERGY PREDICTED BY IDOCK:   -0.73 KCAL/MOL
REMARK 922        TOTAL FREE ENERGY PREDICTED BY IDOCK:   -1.62 KCAL/MOL
REMARK 923 INTER-LIGAND FREE ENERGY PREDICTED BY IDOCK:   -3.90 KCAL/MOL
REMARK 924 INTRA-LIGAND FREE ENERGY PREDICTED BY IDOCK:    2.28 KCAL/MOL
REMARK 927      BINDING AFFINITY PREDICTED BY RF-SCORE:    0.00 PKD
ROOT
HETATM    1  C   UNL     1      -9.027  13.245  67.237  1.00  0.00    -0.217 C  
HETATM    2  C   UNL     1      -7.626  12.634  67.191  1.00  0.00    -0.063 C  
ENDROOT
BRANCH   2   3
HETATM    3  O   UNL     1      -6.743  13.587  67.785  1.00  0.00    -0.138 OA 
BRANCH   3   4
HETATM    4  C   UNL     1      -7.227  14.741  68.329  1.00  0.00    -0.115 A  
HETATM    5  C   UNL     1      -8.501  16.920  69.356  1.00  0.00     0.252 A  
HETATM    6  C   UNL     1      -9.216  15.729  69.295  1.00  0.00    -0.266 A  
HETATM    7  H1  UNL     1      -4.894  17.186  67.970  1.00  0.00     0.000 HD 
HETATM    8  N   UNL     1      -7.224  17.072  68.935  1.00  0.00    -0.230 NA 
HETATM    9  C   UNL     1      -8.550  14.626  68.773  1.00  0.00    -0.160 A  
HETATM   10  C   UNL     1      -6.614  15.994  68.407  1.00  0.00    -0.120 A  
HETATM   11  H2  UNL     1      -5.333  15.994  66.933  1.00  0.00     0.000 HD 
HETATM   12  N   UNL     1      -5.342  16.271  67.914  1.00  0.00    -0.112 NA 
BRANCH   6  13
HETATM   13  C   UNL     1     -10.600  15.678  69.716  1.00  0.00    -0.308 A  
HETATM   14  N   UNL     1     -12.871  15.530  69.671  1.00  0.00     0.102 NA 
HETATM   15  C   UNL     1     -11.762  15.504  68.939  1.00  0.00    -0.370 A  
HETATM   16  C   UNL     1     -11.071  15.803  71.009  1.00  0.00    -0.280 A  
HETATM   17  N   UNL     1     -12.437  15.733  70.927  1.00  0.00    -0.436 NA 
BRANCH  17  18
HETATM   18  C   UNL     1     -13.394  15.885  72.023  1.00  0.00    -0.271 C  
HETATM   19  C   UNL     1     -14.362  14.698  72.128  1.00  0.00    -0.589 C  
HETATM   20  C   UNL     1     -13.716  13.474  72.778  1.00  0.00    -0.209 C  
HETATM   21  N   UNL     1     -13.119  13.796  74.075  1.00  0.00     1.561 NA 
HETATM   22  C   UNL     1     -12.122  14.864  73.973  1.00  0.00    -0.331 C  
HETATM   23  H   UNL     1     -12.726  12.966  74.517  1.00  0.00     0.000 HD 
HETATM   24  C   UNL     1     -12.712  16.139  73.373  1.00  0.00    -0.633 C  
ENDBRANCH  17  18
ENDBRANCH   6  13
ENDBRANCH   3   4
ENDBRANCH   2   3
BRANCH   2  25
HETATM   25  C   UNL     1      -7.605  11.280  67.902  1.00  0.00    -0.100 A  
HETATM   26 CL   UNL     1      -6.219  12.298  70.081  1.00  0.00    -0.105 Cl 
HETATM   27  C   UNL     1      -8.276  10.179  67.311  1.00  0.00    -0.117 A  
HETATM   28 CL   UNL     1      -9.147  10.305  65.817  1.00  0.00    -0.188 Cl 
HETATM   29  F   UNL     1      -6.388   9.551  70.907  1.00  0.00    -0.059 F  
HETATM   30  C   UNL     1      -8.296   8.915  67.917  1.00  0.00    -0.118 A  
HETATM   31  C   UNL     1      -7.646   8.709  69.125  1.00  0.00    -0.089 A  
HETATM   32  C   UNL     1      -6.984  11.053  69.152  1.00  0.00    -0.104 A  
HETATM   33  C   UNL     1      -6.999   9.775  69.733  1.00  0.00    -0.087 A  
ENDBRANCH   2  25
TORSDOF 5
ENDMDL
MODEL      265
REMARK 921   NORMALIZED FREE ENERGY PREDICTED BY IDOCK:   -0.48 KCAL/MOL
REMARK 922        TOTAL FREE ENERGY PREDICTED BY IDOCK:   -1.29 KCAL/MOL
REMARK 923 INTER-LIGAND FREE ENERGY PREDICTED BY IDOCK:   -1.63 KCAL/MOL
REMARK 924 INTRA-LIGAND FREE ENERGY PREDICTED BY IDOCK:    0.34 KCAL/MOL
REMARK 927      BINDING AFFINITY PREDICTED BY RF-SCORE:    0.00 PKD
ROOT
HETATM    1  C   UNL     1      -9.545  19.880  70.435  1.00  0.00     1.003 C  
HETATM    2  C   UNL     1     -10.098  18.820  69.481  1.00  0.00     0.284 C  
ENDROOT
BRANCH   2   3
HETATM    3  O   UNL     1     -10.194  19.435  68.195  1.00  0.00    -0.393 OA 
BRANCH   3   4
HETATM    4  C   UNL     1      -9.704  18.810  67.085  1.00  0.00    -0.301 A  
HETATM    5  C   UNL     1      -8.922  17.299  64.957  1.00  0.00     3.047 A  
HETATM    6  C   UNL     1     -10.126  16.969  65.568  1.00  0.00    -0.035 A  
HETATM    7  H1  UNL     1      -6.675  20.145  66.319  1.00  0.00     0.000 HD 
HETATM    8  N   UNL     1      -8.111  18.310  65.350  1.00  0.00     0.218 NA 
HETATM    9  C   UNL     1     -10.513  17.753  66.649  1.00  0.00    -0.300 A  
HETATM   10  C   UNL     1      -8.498  19.032  66.418  1.00  0.00    -0.306 A  
HETATM   11  H2  UNL     1      -7.330  19.798  67.782  1.00  0.00     0.000 HD 
HETATM   12  N   UNL     1      -7.557  19.983  66.805  1.00  0.00    -0.265 NA 
BRANCH   6  13
HETATM   13  C   UNL     1     -10.896  15.832  65.112  1.00  0.00    -0.444 A  
HETATM   14  N   UNL     1     -12.472  14.566  64.065  1.00  0.00    -0.811 NA 
HETATM   15  C   UNL     1     -12.004  15.797  64.243  1.00  0.00    -0.058 A  
HETATM   16  C   UNL     1     -10.695  14.511  65.459  1.00  0.00    -0.341 A  
HETATM   17  N   UNL     1     -11.678  13.795  64.827  1.00  0.00    -0.363 NA 
BRANCH  17  18
HETATM   18  C   UNL     1     -11.932  12.358  64.939  1.00  0.00    -0.398 C  
HETATM   19  C   UNL     1     -11.739  11.622  63.606  1.00  0.00    -0.406 C  
HETATM   20  C   UNL     1     -10.264  11.399  63.269  1.00  0.00    -0.385 C  
HETATM   21  N   UNL     1      -9.550  10.732  64.359  1.00  0.00    -0.253 NA 
HETATM   22  C   UNL     1      -9.646  11.476  65.617  1.00  0.00    -0.231 C  
HETATM   23  H   UNL     1      -8.578  10.554  64.110  1.00  0.00     0.000 HD 
HETATM   24  C   UNL     1     -11.097  11.694  66.040  1.00  0.00    -0.325 C  
ENDBRANCH  17  18
ENDBRANCH   6  13
ENDBRANCH   3   4
ENDBRANCH   2   3
BRANCH   2  25
HETATM   25  C   UNL     1      -9.205  17.577  69.481  1.00  0.00     0.542 A  
HETATM   26 CL   UNL     1      -6.877  19.089  69.472  1.00  0.00    -0.258 Cl 
HETATM   27  C   UNL     1      -9.807  16.295  69.558  1.00  0.00    -0.159 A  
HETATM   28 CL   UNL     1     -11.522  16.071  69.677  1.00  0.00    -0.334 Cl 
HETATM   29  F   UNL     1      -5.705  16.467  69.380  1.00  0.00    -0.124 F  
HETATM   30  C   UNL     1      -9.042  15.120  69.566  1.00  0.00    -0.131 A  
HETATM   31  C   UNL     1      -7.658  15.188  69.495  1.00  0.00    -0.207 A  
HETATM   32  C   UNL     1      -7.793  17.619  69.448  1.00  0.00     0.293 A  
HETATM   33  C   UNL     1      -7.045  16.430  69.437  1.00  0.00    -0.190 A  
ENDBRANCH   2  25
TORSDOF 5
ENDMDL
MODEL      266
REMARK 921   NORMALIZED FREE ENERGY PREDICTED BY IDOCK:    0.15 KCAL/MOL
REMARK 922        TOTAL FREE ENERGY PREDICTED BY IDOCK:   -0.47 KCAL/MOL
REMARK 923 INTER-LIGAND FREE ENERGY PREDICTED BY IDOCK:   -3.88 KCAL/MOL
REMARK 924 INTRA-LIGAND FREE ENERGY PREDICTED BY IDOCK:    3.41 KCAL/MOL
REMARK 927      BINDING AFFINITY PREDICTED BY RF-SCORE:    0.00 PKD
ROOT
HETATM    1  C   UNL     1      -9.194  14.082  67.405  1.00  0.00    -0.216 C  
HETATM    2  C   UNL     1      -7.695  14.111  67.105  1.00  0.00     0.007 C  
ENDROOT
BRANCH   2   3
HETATM    3  O   UNL     1      -7.301  15.484  67.115  1.00  0.00    -0.208 OA 
BRANCH   3   4
HETATM    4  C   UNL     1      -8.047  16.419  67.773  1.00  0.00    -0.157 A  
HETATM    5  C   UNL     1      -9.797  18.071  69.051  1.00  0.00    -0.240 A  
HETATM    6  C   UNL     1     -10.118  16.720  68.992  1.00  0.00    -0.283 A  
HETATM    7  H1  UNL     1      -6.625  19.472  67.326  1.00  0.00     0.000 HD 
HETATM    8  N   UNL     1      -8.683  18.620  68.512  1.00  0.00    -0.330 NA 
HETATM    9  C   UNL     1      -9.213  15.889  68.340  1.00  0.00    -0.197 A  
HETATM   10  C   UNL     1      -7.839  17.797  67.862  1.00  0.00    -0.231 A  
HETATM   11  H2  UNL     1      -6.797  18.229  66.269  1.00  0.00     0.000 HD 
HETATM   12  N   UNL     1      -6.776  18.465  67.261  1.00  0.00    -0.195 NA 
BRANCH   6  13
HETATM   13  C   UNL     1     -11.363  16.234  69.547  1.00  0.00    -0.276 A  
HETATM   14  N   UNL     1     -13.476  15.403  69.723  1.00  0.00     0.633 NA 
HETATM   15  C   UNL     1     -12.504  15.744  68.882  1.00  0.00     0.432 A  
HETATM   16  C   UNL     1     -11.692  16.159  70.886  1.00  0.00    -0.334 A  
HETATM   17  N   UNL     1     -12.975  15.679  70.939  1.00  0.00    -0.473 NA 
BRANCH  17  18
HETATM   18  C   UNL     1     -13.796  15.491  72.135  1.00  0.00    -0.523 C  
HETATM   19  C   UNL     1     -13.737  14.052  72.668  1.00  0.00    -0.586 C  
HETATM   20  C   UNL     1     -12.444  13.766  73.434  1.00  0.00     1.106 C  
HETATM   21  N   UNL     1     -12.213  14.743  74.498  1.00  0.00    -0.614 NA 
HETATM   22  C   UNL     1     -12.172  16.115  73.988  1.00  0.00    -0.500 C  
HETATM   23  H   UNL     1     -11.370  14.521  75.027  1.00  0.00     0.000 HD 
HETATM   24  C   UNL     1     -13.456  16.487  73.250  1.00  0.00     0.269 C  
ENDBRANCH  17  18
ENDBRANCH   6  13
ENDBRANCH   3   4
ENDBRANCH   2   3
BRANCH   2  25
HETATM   25  C   UNL     1      -6.926  13.264  68.120  1.00  0.00    -0.114 A  
HETATM   26 CL   UNL     1      -6.903  15.304  70.002  1.00  0.00    -0.131 Cl 
HETATM   27  C   UNL     1      -6.623  11.914  67.805  1.00  0.00    -0.084 A  
HETATM   28 CL   UNL     1      -7.110  11.168  66.317  1.00  0.00    -0.094 Cl 
HETATM   29  F   UNL     1      -5.399  13.338  71.461  1.00  0.00    -0.153 F  
HETATM   30  C   UNL     1      -5.925  11.087  68.696  1.00  0.00    -0.042 A  
HETATM   31  C   UNL     1      -5.506  11.580  69.923  1.00  0.00    -0.078 A  
HETATM   32  C   UNL     1      -6.522  13.729  69.392  1.00  0.00    -0.111 A  
HETATM   33  C   UNL     1      -5.806  12.890  70.263  1.00  0.00    -0.155 A  
ENDBRANCH   2  25
TORSDOF 5
ENDMDL
MODEL      267
REMARK 921   NORMALIZED FREE ENERGY PREDICTED BY IDOCK:    0.21 KCAL/MOL
REMARK 922        TOTAL FREE ENERGY PREDICTED BY IDOCK:   -0.40 KCAL/MOL
REMARK 923 INTER-LIGAND FREE ENERGY PREDICTED BY IDOCK:   -1.54 KCAL/MOL
REMARK 924 INTRA-LIGAND FREE ENERGY PREDICTED BY IDOCK:    1.14 KCAL/MOL
REMARK 927      BINDING AFFINITY PREDICTED BY RF-SCORE:    0.00 PKD
ROOT
HETATM    1  C   UNL     1      -9.765  17.990  65.569  1.00  0.00     0.683 C  
HETATM    2  C   UNL     1      -9.383  17.418  66.935  1.00  0.00    -0.263 C  
ENDROOT
BRANCH   2   3
HETATM    3  O   UNL     1     -10.525  17.577  67.780  1.00  0.00    -0.354 OA 
BRANCH   3   4
HETATM    4  C   UNL     1     -10.742  16.728  68.826  1.00  0.00    -0.341 A  
HETATM    5  C   UNL     1     -11.288  14.811  70.684  1.00  0.00    -0.188 A  
HETATM    6  C   UNL     1     -11.109  14.396  69.369  1.00  0.00    -0.294 A  
HETATM    7  H1  UNL     1     -11.183  18.559  71.653  1.00  0.00     0.000 HD 
HETATM    8  N   UNL     1     -11.217  16.097  71.101  1.00  0.00    -0.289 NA 
HETATM    9  C   UNL     1     -10.827  15.386  68.434  1.00  0.00    -0.268 A  
HETATM   10  C   UNL     1     -10.972  17.037  70.168  1.00  0.00     0.391 A  
HETATM   11  H2  UNL     1     -11.706  18.845  70.125  1.00  0.00     0.000 HD 
HETATM   12  N   UNL     1     -11.014  18.333  70.673  1.00  0.00     2.274 NA 
BRANCH   6  13
HETATM   13  C   UNL     1     -11.262  13.003  69.009  1.00  0.00    -0.316 A  
HETATM   14  N   UNL     1     -12.013  11.092  68.025  1.00  0.00    -0.632 NA 
HETATM   15  C   UNL     1     -12.139  12.414  68.077  1.00  0.00    -0.028 A  
HETATM   16  C   UNL     1     -10.559  11.936  69.534  1.00  0.00     0.245 A  
HETATM   17  N   UNL     1     -11.061  10.812  68.932  1.00  0.00    -0.233 NA 
BRANCH  17  18
HETATM   18  C   UNL     1     -10.690   9.424  69.207  1.00  0.00    -0.211 C  
HETATM   19  C   UNL     1     -10.225   8.680  67.947  1.00  0.00    -0.273 C  
HETATM   20  C   UNL     1      -8.797   9.048  67.544  1.00  0.00    -0.123 C  
HETATM   21  N   UNL     1      -7.855   8.872  68.650  1.00  0.00    -0.101 NA 
HETATM   22  C   UNL     1      -8.235   9.654  69.828  1.00  0.00    -0.161 C  
HETATM   23  H   UNL     1      -6.901   9.083  68.359  1.00  0.00     0.000 HD 
HETATM   24  C   UNL     1      -9.638   9.302  70.317  1.00  0.00    -0.276 C  
ENDBRANCH  17  18
ENDBRANCH   6  13
ENDBRANCH   3   4
ENDBRANCH   2   3
BRANCH   2  25
HETATM   25  C   UNL     1      -8.939  15.960  66.804  1.00  0.00    -0.280 A  
HETATM   26 CL   UNL     1     -10.711  15.470  64.724  1.00  0.00    -0.409 Cl 
HETATM   27  C   UNL     1      -7.879  15.485  67.619  1.00  0.00    -0.155 A  
HETATM   28 CL   UNL     1      -7.042  16.498  68.751  1.00  0.00    -0.177 Cl 
HETATM   29  F   UNL     1      -9.581  12.839  64.975  1.00  0.00    -0.154 F  
HETATM   30  C   UNL     1      -7.425  14.162  67.542  1.00  0.00    -0.192 A  
HETATM   31  C   UNL     1      -8.013  13.273  66.654  1.00  0.00     0.512 A  
HETATM   32  C   UNL     1      -9.494  15.045  65.882  1.00  0.00    -0.278 A  
HETATM   33  C   UNL     1      -9.038  13.718  65.833  1.00  0.00     0.355 A  
ENDBRANCH   2  25
TORSDOF 5
ENDMDL
MODEL      268
REMARK 921   NORMALIZED FREE ENERGY PREDICTED BY IDOCK:    0.25 KCAL/MOL
REMARK 922        TOTAL FREE ENERGY PREDICTED BY IDOCK:   -0.35 KCAL/MOL
REMARK 923 INTER-LIGAND FREE ENERGY PREDICTED BY IDOCK:   -1.06 KCAL/MOL
REMARK 924 INTRA-LIGAND FREE ENERGY PREDICTED BY IDOCK:    0.71 KCAL/MOL
REMARK 927      BINDING AFFINITY PREDICTED BY RF-SCORE:    0.00 PKD
ROOT
HETATM    1  C   UNL     1      -8.656  20.189  70.669  1.00  0.00     1.742 C  
HETATM    2  C   UNL     1      -9.331  19.247  69.671  1.00  0.00     0.325 C  
ENDROOT
BRANCH   2   3
HETATM    3  O   UNL     1      -9.362  19.931  68.417  1.00  0.00    -0.322 OA 
BRANCH   3   4
HETATM    4  C   UNL     1      -8.974  19.301  67.270  1.00  0.00    -0.295 A  
HETATM    5  C   UNL     1      -8.381  17.780  65.089  1.00  0.00     2.615 A  
HETATM    6  C   UNL     1      -9.514  17.439  65.819  1.00  0.00     0.112 A  
HETATM    7  H1  UNL     1      -6.057  20.673  66.197  1.00  0.00     0.000 HD 
HETATM    8  N   UNL     1      -7.552  18.806  65.391  1.00  0.00    -0.307 NA 
HETATM    9  C   UNL     1      -9.805  18.228  66.926  1.00  0.00    -0.335 A  
HETATM   10  C   UNL     1      -7.843  19.534  66.486  1.00  0.00    -0.291 A  
HETATM   11  H2  UNL     1      -6.558  20.332  67.721  1.00  0.00     0.000 HD 
HETATM   12  N   UNL     1      -6.884  20.503  66.770  1.00  0.00    -0.258 NA 
BRANCH   6  13
HETATM   13  C   UNL     1     -10.308  16.286  65.451  1.00  0.00    -0.320 A  
HETATM   14  N   UNL     1     -11.887  14.968  64.476  1.00  0.00    -0.416 NA 
HETATM   15  C   UNL     1     -11.382  16.195  64.545  1.00  0.00    -0.267 A  
HETATM   16  C   UNL     1     -10.168  15.002  65.942  1.00  0.00    -0.315 A  
HETATM   17  N   UNL     1     -11.152  14.256  65.347  1.00  0.00    -0.314 NA 
BRANCH  17  18
HETATM   18  C   UNL     1     -11.462  12.848  65.596  1.00  0.00    -0.332 C  
HETATM   19  C   UNL     1     -12.742  12.393  64.881  1.00  0.00    -0.256 C  
HETATM   20  C   UNL     1     -12.521  12.145  63.389  1.00  0.00    -0.512 C  
HETATM   21  N   UNL     1     -11.412  11.219  63.148  1.00  0.00    -0.831 NA 
HETATM   22  C   UNL     1     -10.161  11.691  63.744  1.00  0.00    -0.389 C  
HETATM   23  H   UNL     1     -11.298  11.031  62.152  1.00  0.00     0.000 HD 
HETATM   24  C   UNL     1     -10.296  11.915  65.249  1.00  0.00    -0.316 C  
ENDBRANCH  17  18
ENDBRANCH   6  13
ENDBRANCH   3   4
ENDBRANCH   2   3
BRANCH   2  25
HETATM   25  C   UNL     1      -8.586  17.912  69.603  1.00  0.00     0.997 A  
HETATM   26 CL   UNL     1     -10.937  16.466  69.309  1.00  0.00    -0.322 Cl 
HETATM   27  C   UNL     1      -7.168  17.912  69.627  1.00  0.00     0.334 A  
HETATM   28 CL   UNL     1      -6.231  19.369  69.708  1.00  0.00    -0.314 Cl 
HETATM   29  F   UNL     1      -9.070  14.280  69.335  1.00  0.00     0.003 F  
HETATM   30  C   UNL     1      -6.429  16.722  69.563  1.00  0.00    -0.225 A  
HETATM   31  C   UNL     1      -7.080  15.500  69.476  1.00  0.00    -0.195 A  
HETATM   32  C   UNL     1      -9.223  16.658  69.475  1.00  0.00     0.196 A  
HETATM   33  C   UNL     1      -8.466  15.475  69.431  1.00  0.00    -0.256 A  
ENDBRANCH   2  25
TORSDOF 5
ENDMDL
MODEL      269
REMARK 921   NORMALIZED FREE ENERGY PREDICTED BY IDOCK:    0.46 KCAL/MOL
REMARK 922        TOTAL FREE ENERGY PREDICTED BY IDOCK:   -0.07 KCAL/MOL
REMARK 923 INTER-LIGAND FREE ENERGY PREDICTED BY IDOCK:   -6.37 KCAL/MOL
REMARK 924 INTRA-LIGAND FREE ENERGY PREDICTED BY IDOCK:    6.30 KCAL/MOL
REMARK 927      BINDING AFFINITY PREDICTED BY RF-SCORE:    0.00 PKD
ROOT
HETATM    1  C   UNL     1     -11.965  14.900  69.398  1.00  0.00    -0.336 C  
HETATM    2  C   UNL     1     -10.622  14.874  68.666  1.00  0.00    -0.251 C  
ENDROOT
BRANCH   2   3
HETATM    3  O   UNL     1     -10.187  13.513  68.655  1.00  0.00    -0.234 OA 
BRANCH   3   4
HETATM    4  C   UNL     1     -10.811  12.575  69.424  1.00  0.00     0.096 A  
HETATM    5  C   UNL     1     -11.955  10.475  70.731  1.00  0.00    -0.370 A  
HETATM    6  C   UNL     1     -10.925  10.192  69.841  1.00  0.00    -0.344 A  
HETATM    7  H1  UNL     1     -13.270  14.085  71.218  1.00  0.00     0.000 HD 
HETATM    8  N   UNL     1     -12.431  11.717  70.985  1.00  0.00    -0.374 NA 
HETATM    9  C   UNL     1     -10.349  11.274  69.186  1.00  0.00    -0.156 A  
HETATM   10  C   UNL     1     -11.874  12.742  70.314  1.00  0.00    -0.212 A  
HETATM   11  H2  UNL     1     -12.793  14.340  69.670  1.00  0.00     0.000 HD 
HETATM   12  N   UNL     1     -12.493  13.963  70.568  1.00  0.00    -0.351 NA 
BRANCH   6  13
HETATM   13  C   UNL     1     -10.523   8.824  69.591  1.00  0.00    -0.220 A  
HETATM   14  N   UNL     1     -10.511   6.548  69.534  1.00  0.00    -0.205 NA 
HETATM   15  C   UNL     1     -11.198   7.627  69.898  1.00  0.00    -0.085 A  
HETATM   16  C   UNL     1      -9.352   8.409  68.987  1.00  0.00    -0.147 A  
HETATM   17  N   UNL     1      -9.380   7.039  68.999  1.00  0.00    -0.137 NA 
BRANCH  17  18
HETATM   18  C   UNL     1      -8.330   6.132  68.536  1.00  0.00    -0.114 C  
HETATM   19  C   UNL     1      -7.298   5.820  69.629  1.00  0.00    -0.071 C  
HETATM   20  C   UNL     1      -7.815   4.803  70.647  1.00  0.00    -0.069 C  
HETATM   21  N   UNL     1      -8.299   3.582  70.000  1.00  0.00    -0.051 NA 
HETATM   22  C   UNL     1      -9.353   3.856  69.022  1.00  0.00    -0.169 C  
HETATM   23  H   UNL     1      -8.605   2.895  70.689  1.00  0.00     0.000 HD 
HETATM   24  C   UNL     1      -8.888   4.833  67.943  1.00  0.00    -0.114 C  
ENDBRANCH  17  18
ENDBRANCH   6  13
ENDBRANCH   3   4
ENDBRANCH   2   3
BRANCH   2  25
HETATM   25  C   UNL     1     -10.763  15.465  67.262  1.00  0.00    -0.307 A  
HETATM   26 CL   UNL     1      -9.740  17.922  68.051  1.00  0.00    -0.290 Cl 
HETATM   27  C   UNL     1     -11.221  14.635  66.206  1.00  0.00    -0.340 A  
HETATM   28 CL   UNL     1     -11.609  12.960  66.433  1.00  0.00    -0.398 Cl 
HETATM   29  F   UNL     1     -10.300  18.537  65.300  1.00  0.00    -0.085 F  
HETATM   30  C   UNL     1     -11.366  15.118  64.898  1.00  0.00    -0.402 A  
HETATM   31  C   UNL     1     -11.064  16.439  64.604  1.00  0.00    -0.202 A  
HETATM   32  C   UNL     1     -10.425  16.796  66.927  1.00  0.00    -0.269 A  
HETATM   33  C   UNL     1     -10.596  17.266  65.615  1.00  0.00    -0.166 A  
ENDBRANCH   2  25
TORSDOF 5
ENDMDL
MODEL      270
REMARK 921   NORMALIZED FREE ENERGY PREDICTED BY IDOCK:    0.96 KCAL/MOL
REMARK 922        TOTAL FREE ENERGY PREDICTED BY IDOCK:    0.56 KCAL/MOL
REMARK 923 INTER-LIGAND FREE ENERGY PREDICTED BY IDOCK:   -0.83 KCAL/MOL
REMARK 924 INTRA-LIGAND FREE ENERGY PREDICTED BY IDOCK:    1.40 KCAL/MOL
REMARK 927      BINDING AFFINITY PREDICTED BY RF-SCORE:    0.00 PKD
ROOT
HETATM    1  C   UNL     1      -9.691  19.959  69.900  1.00  0.00     0.356 C  
HETATM    2  C   UNL     1     -10.202  18.915  68.906  1.00  0.00    -0.205 C  
ENDROOT
BRANCH   2   3
HETATM    3  O   UNL     1      -9.842  19.376  67.603  1.00  0.00    -0.317 OA 
BRANCH   3   4
HETATM    4  C   UNL     1      -9.087  18.600  66.772  1.00  0.00    -0.301 A  
HETATM    5  C   UNL     1      -7.758  16.787  65.233  1.00  0.00     2.798 A  
HETATM    6  C   UNL     1      -9.010  16.423  65.714  1.00  0.00    -0.035 A  
HETATM    7  H1  UNL     1      -6.138  20.176  66.175  1.00  0.00     0.000 HD 
HETATM    8  N   UNL     1      -7.153  17.972  65.483  1.00  0.00    -0.502 NA 
HETATM    9  C   UNL     1      -9.678  17.361  66.494  1.00  0.00    -0.302 A  
HETATM   10  C   UNL     1      -7.810  18.849  66.266  1.00  0.00    -0.279 A  
HETATM   11  H2  UNL     1      -7.010  20.072  67.560  1.00  0.00     0.000 HD 
HETATM   12  N   UNL     1      -7.071  19.995  66.545  1.00  0.00    -0.242 NA 
BRANCH   6  13
HETATM   13  C   UNL     1      -9.550  15.108  65.442  1.00  0.00    -0.127 A  
HETATM   14  N   UNL     1     -10.818  13.426  64.578  1.00  0.00    -0.387 NA 
HETATM   15  C   UNL     1     -10.570  14.731  64.546  1.00  0.00    -0.021 A  
HETATM   16  C   UNL     1      -9.164  13.922  66.034  1.00  0.00     0.077 A  
HETATM   17  N   UNL     1      -9.968  12.948  65.503  1.00  0.00    -0.250 NA 
BRANCH  17  18
HETATM   18  C   UNL     1      -9.993  11.531  65.865  1.00  0.00    -0.230 C  
HETATM   19  C   UNL     1      -8.856  11.149  66.823  1.00  0.00    -0.162 C  
HETATM   20  C   UNL     1      -9.132  11.587  68.262  1.00  0.00    -0.185 C  
HETATM   21  N   UNL     1     -10.426  11.099  68.742  1.00  0.00    -0.196 NA 
HETATM   22  C   UNL     1     -11.532  11.537  67.889  1.00  0.00    -0.301 C  
HETATM   23  H   UNL     1     -10.583  11.363  69.715  1.00  0.00     0.000 HD 
HETATM   24  C   UNL     1     -11.345  11.091  66.440  1.00  0.00     0.097 C  
ENDBRANCH  17  18
ENDBRANCH   6  13
ENDBRANCH   3   4
ENDBRANCH   2   3
BRANCH   2  25
HETATM   25  C   UNL     1      -9.624  17.536  69.230  1.00  0.00     0.062 A  
HETATM   26 CL   UNL     1     -12.102  16.303  69.019  1.00  0.00     0.007 Cl 
HETATM   27  C   UNL     1      -8.224  17.399  69.411  1.00  0.00     0.375 A  
HETATM   28 CL   UNL     1      -7.126  18.733  69.257  1.00  0.00    -0.263 Cl 
HETATM   29  F   UNL     1     -10.528  14.013  69.754  1.00  0.00    -0.053 F  
HETATM   30  C   UNL     1      -7.635  16.162  69.704  1.00  0.00     0.090 A  
HETATM   31  C   UNL     1      -8.422  15.026  69.829  1.00  0.00     0.108 A  
HETATM   32  C   UNL     1     -10.398  16.357  69.324  1.00  0.00    -0.292 A  
HETATM   33  C   UNL     1      -9.792  15.130  69.639  1.00  0.00    -0.151 A  
ENDBRANCH   2  25
TORSDOF 5
ENDMDL
MODEL      271
REMARK 921   NORMALIZED FREE ENERGY PREDICTED BY IDOCK:    1.18 KCAL/MOL
REMARK 922        TOTAL FREE ENERGY PREDICTED BY IDOCK:    0.85 KCAL/MOL
REMARK 923 INTER-LIGAND FREE ENERGY PREDICTED BY IDOCK:   -2.81 KCAL/MOL
REMARK 924 INTRA-LIGAND FREE ENERGY PREDICTED BY IDOCK:    3.66 KCAL/MOL
REMARK 927      BINDING AFFINITY PREDICTED BY RF-SCORE:    0.00 PKD
ROOT
HETATM    1  C   UNL     1      -9.391  13.728  67.213  1.00  0.00    -0.239 C  
HETATM    2  C   UNL     1      -7.998  13.483  66.633  1.00  0.00     0.610 C  
ENDROOT
BRANCH   2   3
HETATM    3  O   UNL     1      -7.235  14.665  66.884  1.00  0.00    -0.001 OA 
BRANCH   3   4
HETATM    4  C   UNL     1      -7.736  15.666  67.665  1.00  0.00    -0.156 A  
HETATM    5  C   UNL     1      -9.044  17.537  69.152  1.00  0.00     0.069 A  
HETATM    6  C   UNL     1      -9.714  16.349  68.885  1.00  0.00    -0.257 A  
HETATM    7  H1  UNL     1      -5.521  18.241  67.705  1.00  0.00     0.000 HD 
HETATM    8  N   UNL     1      -7.795  17.830  68.719  1.00  0.00    -0.278 NA 
HETATM    9  C   UNL     1      -9.031  15.403  68.129  1.00  0.00    -0.176 A  
HETATM   10  C   UNL     1      -7.170  16.906  67.964  1.00  0.00    -0.162 A  
HETATM   11  H2  UNL     1      -5.963  17.256  66.470  1.00  0.00     0.000 HD 
HETATM   12  N   UNL     1      -5.935  17.335  67.487  1.00  0.00    -0.132 NA 
BRANCH   6  13
HETATM   13  C   UNL     1     -11.072  16.151  69.343  1.00  0.00    -0.335 A  
HETATM   14  N   UNL     1     -13.340  15.946  69.365  1.00  0.00     1.172 NA 
HETATM   15  C   UNL     1     -12.270  16.138  68.600  1.00  0.00     0.496 A  
HETATM   16  C   UNL     1     -11.478  15.935  70.645  1.00  0.00    -0.400 A  
HETATM   17  N   UNL     1     -12.845  15.843  70.610  1.00  0.00    -0.391 NA 
BRANCH  17  18
HETATM   18  C   UNL     1     -13.747  15.687  71.752  1.00  0.00    -0.388 C  
HETATM   19  C   UNL     1     -14.326  14.270  71.854  1.00  0.00    -0.597 C  
HETATM   20  C   UNL     1     -13.323  13.269  72.430  1.00  0.00    -0.516 C  
HETATM   21  N   UNL     1     -12.776  13.720  73.710  1.00  0.00     0.663 NA 
HETATM   22  C   UNL     1     -12.135  15.032  73.605  1.00  0.00    -0.419 C  
HETATM   23  H   UNL     1     -12.139  13.028  74.104  1.00  0.00     0.000 HD 
HETATM   24  C   UNL     1     -13.097  16.095  73.079  1.00  0.00    -0.486 C  
ENDBRANCH  17  18
ENDBRANCH   6  13
ENDBRANCH   3   4
ENDBRANCH   2   3
BRANCH   2  25
HETATM   25  C   UNL     1      -7.372  12.229  67.247  1.00  0.00    -0.140 A  
HETATM   26 CL   UNL     1      -9.040  10.535  65.814  1.00  0.00    -0.191 Cl 
HETATM   27  C   UNL     1      -6.272  12.370  68.133  1.00  0.00    -0.065 A  
HETATM   28 CL   UNL     1      -5.585  13.910  68.535  1.00  0.00    -0.087 Cl 
HETATM   29  F   UNL     1      -7.592   8.563  67.322  1.00  0.00    -0.090 F  
HETATM   30  C   UNL     1      -5.654  11.259  68.723  1.00  0.00    -0.042 A  
HETATM   31  C   UNL     1      -6.113   9.979  68.452  1.00  0.00    -0.045 A  
HETATM   32  C   UNL     1      -7.795  10.913  66.959  1.00  0.00    -0.132 A  
HETATM   33  C   UNL     1      -7.175   9.814  67.575  1.00  0.00    -0.089 A  
ENDBRANCH   2  25
TORSDOF 5
ENDMDL
MODEL      272
REMARK 921   NORMALIZED FREE ENERGY PREDICTED BY IDOCK:    3.61 KCAL/MOL
REMARK 922        TOTAL FREE ENERGY PREDICTED BY IDOCK:    3.99 KCAL/MOL
REMARK 923 INTER-LIGAND FREE ENERGY PREDICTED BY IDOCK:    2.82 KCAL/MOL
REMARK 924 INTRA-LIGAND FREE ENERGY PREDICTED BY IDOCK:    1.17 KCAL/MOL
REMARK 927      BINDING AFFINITY PREDICTED BY RF-SCORE:    0.00 PKD
ROOT
HETATM    1  C   UNL     1     -11.894  11.830  64.938  1.00  0.00    -0.135 C  
HETATM    2  C   UNL     1     -10.684  12.235  65.781  1.00  0.00    -0.263 C  
ENDROOT
BRANCH   2   3
HETATM    3  O   UNL     1     -11.124  13.275  66.657  1.00  0.00    -0.284 OA 
BRANCH   3   4
HETATM    4  C   UNL     1     -10.615  14.537  66.553  1.00  0.00    -0.297 A  
HETATM    5  C   UNL     1      -9.508  17.024  66.669  1.00  0.00    -0.263 A  
HETATM    6  C   UNL     1      -9.092  16.093  67.613  1.00  0.00    -0.197 A  
HETATM    7  H1  UNL     1     -12.257  16.180  64.074  1.00  0.00     0.000 HD 
HETATM    8  N   UNL     1     -10.428  16.783  65.705  1.00  0.00    -0.457 NA 
HETATM    9  C   UNL     1      -9.662  14.827  67.538  1.00  0.00    -0.213 A  
HETATM   10  C   UNL     1     -10.985  15.557  65.675  1.00  0.00    -0.303 A  
HETATM   11  H2  UNL     1     -12.832  15.136  65.200  1.00  0.00     0.000 HD 
HETATM   12  N   UNL     1     -11.986  15.435  64.715  1.00  0.00    -0.175 NA 
BRANCH   6  13
HETATM   13  C   UNL     1      -8.145  16.462  68.644  1.00  0.00    -0.218 A  
HETATM   14  N   UNL     1      -6.970  17.679  70.168  1.00  0.00     0.801 NA 
HETATM   15  C   UNL     1      -7.954  17.707  69.274  1.00  0.00     0.171 A  
HETATM   16  C   UNL     1      -7.202  15.638  69.227  1.00  0.00    -0.198 A  
HETATM   17  N   UNL     1      -6.508  16.418  70.114  1.00  0.00     0.029 NA 
BRANCH  17  18
HETATM   18  C   UNL     1      -5.358  16.019  70.926  1.00  0.00    -0.085 C  
HETATM   19  C   UNL     1      -5.443  16.547  72.365  1.00  0.00     1.350 C  
HETATM   20  C   UNL     1      -6.413  15.738  73.228  1.00  0.00     4.224 C  
HETATM   21  N   UNL     1      -6.107  14.308  73.198  1.00  0.00    -0.052 NA 
HETATM   22  C   UNL     1      -6.117  13.770  71.836  1.00  0.00     0.570 C  
HETATM   23  H   UNL     1      -6.735  13.783  73.806  1.00  0.00     0.000 HD 
HETATM   24  C   UNL     1      -5.132  14.502  70.927  1.00  0.00    -0.119 C  
ENDBRANCH  17  18
ENDBRANCH   6  13
ENDBRANCH   3   4
ENDBRANCH   2   3
BRANCH   2  25
HETATM   25  C   UNL     1     -10.120  11.026  66.529  1.00  0.00    -0.270 A  
HETATM   26 CL   UNL     1      -9.894   9.527  64.204  1.00  0.00     0.430 Cl 
HETATM   27  C   UNL     1      -9.876  11.129  67.923  1.00  0.00    -0.174 A  
HETATM   28 CL   UNL     1     -10.170  12.583  68.821  1.00  0.00    -0.155 Cl 
HETATM   29  F   UNL     1      -8.979   7.562  66.090  1.00  0.00    -0.155 F  
HETATM   30  C   UNL     1      -9.356  10.057  68.662  1.00  0.00    -0.156 A  
HETATM   31  C   UNL     1      -9.067   8.853  68.037  1.00  0.00    -0.143 A  
HETATM   32  C   UNL     1      -9.780   9.802  65.910  1.00  0.00    -0.266 A  
HETATM   33  C   UNL     1      -9.278   8.734  66.672  1.00  0.00    -0.177 A  
ENDBRANCH   2  25
TORSDOF 5
ENDMDL
MODEL      273
REMARK 921   NORMALIZED FREE ENERGY PREDICTED BY IDOCK:    3.80 KCAL/MOL
REMARK 922        TOTAL FREE ENERGY PREDICTED BY IDOCK:    4.23 KCAL/MOL
REMARK 923 INTER-LIGAND FREE ENERGY PREDICTED BY IDOCK:    1.82 KCAL/MOL
REMARK 924 INTRA-LIGAND FREE ENERGY PREDICTED BY IDOCK:    2.42 KCAL/MOL
REMARK 927      BINDING AFFINITY PREDICTED BY RF-SCORE:    0.00 PKD
ROOT
HETATM    1  C   UNL     1      -6.913   9.343  69.096  1.00  0.00    -0.058 C  
HETATM    2  C   UNL     1      -7.599   7.979  69.013  1.00  0.00    -0.098 C  
ENDROOT
BRANCH   2   3
HETATM    3  O   UNL     1      -8.602   7.961  70.031  1.00  0.00    -0.132 OA 
BRANCH   3   4
HETATM    4  C   UNL     1      -9.535   8.954  70.108  1.00  0.00    -0.180 A  
HETATM    5  C   UNL     1     -11.143  11.151  70.209  1.00  0.00     0.092 A  
HETATM    6  C   UNL     1      -9.921  11.281  69.560  1.00  0.00     0.270 A  
HETATM    7  H1  UNL     1     -12.163   7.848  71.956  1.00  0.00     0.000 HD 
HETATM    8  N   UNL     1     -11.583  10.014  70.799  1.00  0.00    -0.332 NA 
HETATM    9  C   UNL     1      -9.114  10.150  69.513  1.00  0.00    -0.213 A  
HETATM   10  C   UNL     1     -10.768   8.943  70.763  1.00  0.00    -0.233 A  
HETATM   11  H2  UNL     1     -10.555   7.603  72.166  1.00  0.00     0.000 HD 
HETATM   12  N   UNL     1     -11.263   7.855  71.477  1.00  0.00    -0.244 NA 
BRANCH   6  13
HETATM   13  C   UNL     1      -9.511  12.555  69.010  1.00  0.00     0.400 A  
HETATM   14  N   UNL     1      -8.533  14.125  67.682  1.00  0.00    -0.172 NA 
HETATM   15  C   UNL     1      -8.723  12.823  67.874  1.00  0.00    -0.185 A  
HETATM   16  C   UNL     1      -9.815  13.804  69.515  1.00  0.00     0.729 A  
HETATM   17  N   UNL     1      -9.187  14.710  68.700  1.00  0.00    -0.193 NA 
BRANCH  17  18
HETATM   18  C   UNL     1      -9.149  16.163  68.863  1.00  0.00    -0.246 C  
HETATM   19  C   UNL     1      -9.947  16.898  67.777  1.00  0.00    -0.278 C  
HETATM   20  C   UNL     1     -11.455  16.847  68.023  1.00  0.00     0.246 C  
HETATM   21  N   UNL     1     -11.805  17.324  69.362  1.00  0.00     0.957 NA 
HETATM   22  C   UNL     1     -11.124  16.567  70.413  1.00  0.00    -0.122 C  
HETATM   23  H   UNL     1     -12.815  17.322  69.502  1.00  0.00     0.000 HD 
HETATM   24  C   UNL     1      -9.605  16.614  70.256  1.00  0.00     1.483 C  
ENDBRANCH  17  18
ENDBRANCH   6  13
ENDBRANCH   3   4
ENDBRANCH   2   3
BRANCH   2  25
HETATM   25  C   UNL     1      -8.170   7.747  67.613  1.00  0.00    -0.125 A  
HETATM   26 CL   UNL     1      -6.163   9.238  66.406  1.00  0.00    -0.064 Cl 
HETATM   27  C   UNL     1      -9.303   6.908  67.459  1.00  0.00    -0.122 A  
HETATM   28 CL   UNL     1     -10.064   6.108  68.796  1.00  0.00    -0.186 Cl 
HETATM   29  F   UNL     1      -7.692   8.573  64.065  1.00  0.00    -0.107 F  
HETATM   30  C   UNL     1      -9.868   6.654  66.202  1.00  0.00     0.081 A  
HETATM   31  C   UNL     1      -9.324   7.230  65.063  1.00  0.00     1.085 A  
HETATM   32  C   UNL     1      -7.612   8.289  66.433  1.00  0.00    -0.091 A  
HETATM   33  C   UNL     1      -8.205   8.039  65.184  1.00  0.00    -0.144 A  
ENDBRANCH   2  25
TORSDOF 5
ENDMDL
MODEL      274
REMARK 921   NORMALIZED FREE ENERGY PREDICTED BY IDOCK:   25.04 KCAL/MOL
REMARK 922        TOTAL FREE ENERGY PREDICTED BY IDOCK:   31.69 KCAL/MOL
REMARK 923 INTER-LIGAND FREE ENERGY PREDICTED BY IDOCK:   30.37 KCAL/MOL
REMARK 924 INTRA-LIGAND FREE ENERGY PREDICTED BY IDOCK:    1.31 KCAL/MOL
REMARK 927      BINDING AFFINITY PREDICTED BY RF-SCORE:    0.00 PKD
ROOT
HETATM    1  C   UNL     1      -9.531  14.876  67.026  1.00  0.00    -0.239 C  
HETATM    2  C   UNL     1      -8.104  14.463  66.665  1.00  0.00     0.401 C  
ENDROOT
BRANCH   2   3
HETATM    3  O   UNL     1      -7.613  15.444  65.748  1.00  0.00     1.782 OA 
BRANCH   3   4
HETATM    4  C   UNL     1      -7.180  16.659  66.193  1.00  0.00     0.160 A  
HETATM    5  C   UNL     1      -6.639  19.143  67.172  1.00  0.00    -0.192 A  
HETATM    6  C   UNL     1      -7.787  18.510  67.633  1.00  0.00    -0.245 A  
HETATM    7  H1  UNL     1      -4.378  17.523  64.477  1.00  0.00     0.000 HD 
HETATM    8  N   UNL     1      -5.780  18.616  66.269  1.00  0.00    -0.150 NA 
HETATM    9  C   UNL     1      -8.047  17.241  67.127  1.00  0.00    -0.225 A  
HETATM   10  C   UNL     1      -6.073  17.399  65.774  1.00  0.00     0.176 A  
HETATM   11  H2  UNL     1      -5.742  16.778  63.953  1.00  0.00     0.000 HD 
HETATM   12  N   UNL     1      -5.187  16.982  64.784  1.00  0.00     1.743 NA 
BRANCH   6  13
HETATM   13  C   UNL     1      -8.677  19.179  68.557  1.00  0.00    -0.401 A  
HETATM   14  N   UNL     1     -10.530  20.146  69.461  1.00  0.00     0.072 NA 
HETATM   15  C   UNL     1     -10.037  19.512  68.402  1.00  0.00    -0.445 A  
HETATM   16  C   UNL     1      -8.354  19.648  69.815  1.00  0.00     0.643 A  
HETATM   17  N   UNL     1      -9.489  20.241  70.306  1.00  0.00     0.865 NA 
BRANCH  17  18
HETATM   18  C   UNL     1      -9.633  20.949  71.578  1.00  0.00     2.777 C  
HETATM   19  C   UNL     1     -10.605  20.246  72.535  1.00  0.00     5.629 C  
HETATM   20  C   UNL     1      -9.978  19.027  73.213  1.00  0.00     4.615 C  
HETATM   21  N   UNL     1      -8.717  19.360  73.877  1.00  0.00     3.846 NA 
HETATM   22  C   UNL     1      -7.745  19.945  72.952  1.00  0.00     3.572 C  
HETATM   23  H   UNL     1      -8.327  18.550  74.358  1.00  0.00     0.000 HD 
HETATM   24  C   UNL     1      -8.289  21.199  72.272  1.00  0.00     4.119 C  
ENDBRANCH  17  18
ENDBRANCH   6  13
ENDBRANCH   3   4
ENDBRANCH   2   3
BRANCH   2  25
HETATM   25  C   UNL     1      -7.243  14.342  67.924  1.00  0.00    -0.169 A  
HETATM   26 CL   UNL     1      -9.177  15.534  69.519  1.00  0.00    -0.278 Cl 
HETATM   27  C   UNL     1      -5.988  13.686  67.842  1.00  0.00    -0.145 A  
HETATM   28 CL   UNL     1      -5.391  12.987  66.371  1.00  0.00     1.939 Cl 
HETATM   29  F   UNL     1      -7.139  15.144  71.508  1.00  0.00     0.906 F  
HETATM   30  C   UNL     1      -5.157  13.539  68.961  1.00  0.00    -0.066 A  
HETATM   31  C   UNL     1      -5.549  14.045  70.192  1.00  0.00    -0.118 A  
HETATM   32  C   UNL     1      -7.635  14.813  69.197  1.00  0.00    -0.151 A  
HETATM   33  C   UNL     1      -6.780  14.675  70.302  1.00  0.00    -0.050 A  
ENDBRANCH   2  25
TORSDOF 5
ENDMDL
