MODEL        1
REMARK 921   NORMALIZED FREE ENERGY PREDICTED BY IDOCK:   -8.75 KCAL/MOL
REMARK 922        TOTAL FREE ENERGY PREDICTED BY IDOCK:  -13.11 KCAL/MOL
REMARK 923 INTER-LIGAND FREE ENERGY PREDICTED BY IDOCK:  -11.82 KCAL/MOL
REMARK 924 INTRA-LIGAND FREE ENERGY PREDICTED BY IDOCK:   -1.30 KCAL/MOL
REMARK 927      BINDING AFFINITY PREDICTED BY RF-SCORE:    0.00 PKD
ROOT
HETATM    1  O   UNL     1     -11.490  13.574  66.758  1.00  0.00    -0.319 OA 
HETATM    2  C   UNL     1     -10.912  14.862  67.043  1.00  0.00    -0.327 C  
HETATM    3  H   UNL     1     -11.343  13.017  67.514  1.00  0.00     0.000 HD 
ENDROOT
BRANCH   2   4
HETATM    4  C   UNL     1     -11.561  15.421  68.309  1.00  0.00    -0.348 C  
BRANCH   4   5
HETATM    5  O   UNL     1     -11.101  14.677  69.445  1.00  0.00    -0.252 OA 
BRANCH   5   6
HETATM    6  C   UNL     1     -11.991  14.415  70.450  1.00  0.00    -0.325 A  
HETATM    7  O   UNL     1     -12.771   8.049  71.502  1.00  0.00    -0.308 OA 
HETATM    8  O   UNL     1     -14.291   9.070  72.828  1.00  0.00    -0.596 OA 
HETATM    9  C   UNL     1     -12.611  15.424  71.204  1.00  0.00    -0.485 A  
HETATM   10  C   UNL     1     -13.551  15.115  72.187  1.00  0.00    -0.558 A  
HETATM   11  C   UNL     1     -13.309   9.068  71.897  1.00  0.00    -0.417 C  
HETATM   12  C   UNL     1     -13.888  13.791  72.431  1.00  0.00    -0.681 A  
HETATM   13  O   UNL     1     -13.641  11.494  72.040  1.00  0.00    -0.302 OA 
HETATM   14  C   UNL     1     -12.975  10.444  71.443  1.00  0.00    -0.443 C  
HETATM   15  C   UNL     1     -13.268  12.774  71.705  1.00  0.00    -0.374 A  
HETATM   16  C   UNL     1     -12.045  10.579  70.491  1.00  0.00    -0.437 C  
HETATM   17  C   UNL     1     -12.321  13.072  70.715  1.00  0.00    -0.394 A  
HETATM   18  O   UNL     1     -10.861  12.026  69.117  1.00  0.00    -0.203 OA 
HETATM   19  C   UNL     1     -11.678  11.926  70.019  1.00  0.00    -0.286 C  
ENDBRANCH   5   6
ENDBRANCH   4   5
ENDBRANCH   2   4
BRANCH   2  20
HETATM   20  C   UNL     1     -11.150  15.761  65.825  1.00  0.00    -0.124 C  
BRANCH  20  21
HETATM   21  O   UNL     1     -10.018  16.500  65.414  1.00  0.00    -0.552 OA 
BRANCH  21  22
HETATM   22  C   UNL     1      -9.687  17.657  66.082  1.00  0.00    -0.213 A  
HETATM   23  C   UNL     1      -6.837  17.443  68.705  1.00  0.00    -0.217 C  
HETATM   24  C   UNL     1      -7.565  17.078  67.488  1.00  0.00    -0.165 C  
HETATM   25  C   UNL     1      -8.705  17.944  67.062  1.00  0.00    -0.254 A  
HETATM   26  C   UNL     1      -8.743  19.207  67.699  1.00  0.00    -0.296 A  
HETATM   27  C   UNL     1      -7.020  18.653  69.229  1.00  0.00    -0.196 C  
HETATM   28  C   UNL     1      -9.656  20.195  67.315  1.00  0.00    -0.555 A  
HETATM   29  O   UNL     1      -7.907  19.584  68.733  1.00  0.00    -0.355 OA 
HETATM   30  C   UNL     1     -10.564  19.939  66.300  1.00  0.00    -0.534 A  
HETATM   31  C   UNL     1      -6.155  19.022  70.380  1.00  0.00    -0.046 C  
HETATM   32  O   UNL     1      -6.408  20.270  70.830  1.00  0.00    -0.486 OA 
HETATM   33  C   UNL     1     -10.591  18.677  65.713  1.00  0.00    -0.290 A  
HETATM   34  O   UNL     1      -7.114  16.132  66.861  1.00  0.00    -0.217 OA 
HETATM   35  O   UNL     1      -5.303  18.297  70.868  1.00  0.00    -0.264 OA 
ENDBRANCH  21  22
ENDBRANCH  20  21
ENDBRANCH   2  20
TORSDOF 6
ENDMDL
MODEL        2
REMARK 921   NORMALIZED FREE ENERGY PREDICTED BY IDOCK:   -8.58 KCAL/MOL
REMARK 922        TOTAL FREE ENERGY PREDICTED BY IDOCK:  -12.88 KCAL/MOL
REMARK 923 INTER-LIGAND FREE ENERGY PREDICTED BY IDOCK:  -11.25 KCAL/MOL
REMARK 924 INTRA-LIGAND FREE ENERGY PREDICTED BY IDOCK:   -1.63 KCAL/MOL
REMARK 927      BINDING AFFINITY PREDICTED BY RF-SCORE:    0.00 PKD
ROOT
HETATM    1  O   UNL     1      -8.247  10.887  69.462  1.00  0.00    -0.374 OA 
HETATM    2  C   UNL     1      -8.302   9.526  68.990  1.00  0.00    -0.126 C  
HETATM    3  H   UNL     1      -7.634  11.360  68.911  1.00  0.00     0.000 HD 
ENDROOT
BRANCH   2   4
HETATM    4  C   UNL     1      -8.730   9.534  67.523  1.00  0.00    -0.126 C  
BRANCH   4   5
HETATM    5  O   UNL     1      -8.521  10.842  66.976  1.00  0.00    -0.129 OA 
BRANCH   5   6
HETATM    6  C   UNL     1      -9.240  11.202  65.869  1.00  0.00    -0.206 A  
HETATM    7  O   UNL     1     -10.340  17.601  65.579  1.00  0.00    -0.627 OA 
HETATM    8  O   UNL     1     -11.517  16.709  63.866  1.00  0.00    -1.186 OA 
HETATM    9  C   UNL     1      -9.635  10.286  64.882  1.00  0.00    -0.365 A  
HETATM   10  C   UNL     1     -10.411  10.686  63.795  1.00  0.00    -0.183 A  
HETATM   11  C   UNL     1     -10.716  16.626  64.954  1.00  0.00    -0.082 C  
HETATM   12  C   UNL     1     -10.806  12.011  63.677  1.00  0.00    -0.510 A  
HETATM   13  O   UNL     1     -10.819  14.234  64.420  1.00  0.00    -0.329 OA 
HETATM   14  C   UNL     1     -10.355  15.218  65.268  1.00  0.00    -0.401 C  
HETATM   15  C   UNL     1     -10.407  12.941  64.638  1.00  0.00    -0.344 A  
HETATM   16  C   UNL     1      -9.598  14.992  66.348  1.00  0.00    -0.314 C  
HETATM   17  C   UNL     1      -9.628  12.550  65.736  1.00  0.00    -0.137 A  
HETATM   18  O   UNL     1      -8.559  13.424  67.704  1.00  0.00    -0.167 OA 
HETATM   19  C   UNL     1      -9.212  13.613  66.690  1.00  0.00    -0.212 C  
ENDBRANCH   5   6
ENDBRANCH   4   5
ENDBRANCH   2   4
BRANCH   2  20
HETATM   20  C   UNL     1      -9.291   8.764  69.879  1.00  0.00    -0.162 C  
BRANCH  20  21
HETATM   21  O   UNL     1     -10.634   8.824  69.443  1.00  0.00    -0.225 OA 
BRANCH  21  22
HETATM   22  C   UNL     1     -11.592   9.352  70.278  1.00  0.00    -0.138 A  
HETATM   23  C   UNL     1     -12.127  13.192  70.165  1.00  0.00    -0.392 C  
HETATM   24  C   UNL     1     -11.778  11.874  69.631  1.00  0.00    -0.343 C  
HETATM   25  C   UNL     1     -12.059  10.674  70.476  1.00  0.00    -0.448 A  
HETATM   26  C   UNL     1     -12.935  10.922  71.559  1.00  0.00    -0.451 A  
HETATM   27  C   UNL     1     -12.917  13.269  71.233  1.00  0.00    -0.270 C  
HETATM   28  C   UNL     1     -13.418   9.883  72.364  1.00  0.00    -0.301 A  
HETATM   29  O   UNL     1     -13.393  12.173  71.922  1.00  0.00    -0.463 OA 
HETATM   30  C   UNL     1     -13.021   8.578  72.117  1.00  0.00    -0.403 A  
HETATM   31  C   UNL     1     -13.352  14.628  71.649  1.00  0.00    -0.355 C  
HETATM   32  O   UNL     1     -14.160  14.597  72.731  1.00  0.00    -0.498 OA 
HETATM   33  C   UNL     1     -12.101   8.325  71.103  1.00  0.00    -0.274 A  
HETATM   34  O   UNL     1     -11.364  11.858  68.482  1.00  0.00    -0.228 OA 
HETATM   35  O   UNL     1     -13.035  15.661  71.082  1.00  0.00    -0.480 OA 
ENDBRANCH  21  22
ENDBRANCH  20  21
ENDBRANCH   2  20
TORSDOF 6
ENDMDL
MODEL        3
REMARK 921   NORMALIZED FREE ENERGY PREDICTED BY IDOCK:   -8.55 KCAL/MOL
REMARK 922        TOTAL FREE ENERGY PREDICTED BY IDOCK:  -12.85 KCAL/MOL
REMARK 923 INTER-LIGAND FREE ENERGY PREDICTED BY IDOCK:  -11.71 KCAL/MOL
REMARK 924 INTRA-LIGAND FREE ENERGY PREDICTED BY IDOCK:   -1.14 KCAL/MOL
REMARK 927      BINDING AFFINITY PREDICTED BY RF-SCORE:    0.00 PKD
ROOT
HETATM    1  O   UNL     1     -12.405  14.447  63.875  1.00  0.00    -0.897 OA 
HETATM    2  C   UNL     1     -11.574  14.858  64.978  1.00  0.00    -0.357 C  
HETATM    3  H   UNL     1     -13.115  15.075  63.798  1.00  0.00     0.000 HD 
ENDROOT
BRANCH   2   4
HETATM    4  C   UNL     1     -11.068  16.275  64.708  1.00  0.00    -0.281 C  
BRANCH   4   5
HETATM    5  O   UNL     1      -9.978  16.565  65.592  1.00  0.00    -0.497 OA 
BRANCH   5   6
HETATM    6  C   UNL     1      -9.863  17.837  66.081  1.00  0.00    -0.244 A  
HETATM    7  O   UNL     1      -5.248  18.358  70.628  1.00  0.00    -0.235 OA 
HETATM    8  O   UNL     1      -6.276  20.371  70.579  1.00  0.00    -0.487 OA 
HETATM    9  C   UNL     1     -10.623  18.914  65.598  1.00  0.00    -0.236 A  
HETATM   10  C   UNL     1     -10.511  20.185  66.160  1.00  0.00    -0.452 A  
HETATM   11  C   UNL     1      -6.118  19.087  70.186  1.00  0.00    -0.157 C  
HETATM   12  C   UNL     1      -9.636  20.401  67.215  1.00  0.00    -0.592 A  
HETATM   13  O   UNL     1      -7.999  19.665  68.721  1.00  0.00    -0.343 OA 
HETATM   14  C   UNL     1      -7.118  18.697  69.156  1.00  0.00    -0.224 C  
HETATM   15  C   UNL     1      -8.858  19.348  67.697  1.00  0.00    -0.308 A  
HETATM   16  C   UNL     1      -7.098  17.435  68.711  1.00  0.00    -0.246 C  
HETATM   17  C   UNL     1      -8.962  18.065  67.141  1.00  0.00    -0.255 A  
HETATM   18  O   UNL     1      -8.061  15.844  67.325  1.00  0.00    -0.155 OA 
HETATM   19  C   UNL     1      -8.066  17.011  67.685  1.00  0.00    -0.180 C  
ENDBRANCH   5   6
ENDBRANCH   4   5
ENDBRANCH   2   4
BRANCH   2  20
HETATM   20  C   UNL     1     -10.429  13.847  65.103  1.00  0.00    -0.393 C  
BRANCH  20  21
HETATM   21  O   UNL     1      -9.940  13.678  66.417  1.00  0.00    -0.281 OA 
BRANCH  21  22
HETATM   22  C   UNL     1     -10.697  12.990  67.337  1.00  0.00    -0.245 A  
HETATM   23  C   UNL     1     -12.188  15.019  70.288  1.00  0.00    -0.390 C  
HETATM   24  C   UNL     1     -11.699  14.804  68.924  1.00  0.00    -0.309 C  
HETATM   25  C   UNL     1     -11.398  13.405  68.496  1.00  0.00    -0.324 A  
HETATM   26  C   UNL     1     -11.934  12.411  69.348  1.00  0.00    -0.260 A  
HETATM   27  C   UNL     1     -12.606  13.974  70.997  1.00  0.00    -0.366 C  
HETATM   28  C   UNL     1     -11.871  11.052  69.020  1.00  0.00    -0.399 A  
HETATM   29  O   UNL     1     -12.558  12.669  70.553  1.00  0.00    -0.216 OA 
HETATM   30  C   UNL     1     -11.254  10.654  67.844  1.00  0.00    -0.376 A  
HETATM   31  C   UNL     1     -13.221  14.264  72.320  1.00  0.00    -0.417 C  
HETATM   32  O   UNL     1     -13.624  13.141  72.952  1.00  0.00    -0.543 OA 
HETATM   33  C   UNL     1     -10.655  11.612  67.030  1.00  0.00    -0.272 A  
HETATM   34  O   UNL     1     -11.666  15.793  68.208  1.00  0.00    -0.345 OA 
HETATM   35  O   UNL     1     -13.362  15.382  72.788  1.00  0.00    -0.425 OA 
ENDBRANCH  21  22
ENDBRANCH  20  21
ENDBRANCH   2  20
TORSDOF 6
ENDMDL
MODEL        4
REMARK 921   NORMALIZED FREE ENERGY PREDICTED BY IDOCK:   -8.35 KCAL/MOL
REMARK 922        TOTAL FREE ENERGY PREDICTED BY IDOCK:  -12.57 KCAL/MOL
REMARK 923 INTER-LIGAND FREE ENERGY PREDICTED BY IDOCK:  -11.48 KCAL/MOL
REMARK 924 INTRA-LIGAND FREE ENERGY PREDICTED BY IDOCK:   -1.09 KCAL/MOL
REMARK 927      BINDING AFFINITY PREDICTED BY RF-SCORE:    0.00 PKD
ROOT
HETATM    1  O   UNL     1     -12.080  11.228  62.832  1.00  0.00    -0.879 OA 
HETATM    2  C   UNL     1     -10.866  11.748  63.408  1.00  0.00    -0.388 C  
HETATM    3  H   UNL     1     -11.847  10.483  62.289  1.00  0.00     0.000 HD 
ENDROOT
BRANCH   2   4
HETATM    4  C   UNL     1     -10.189  10.636  64.210  1.00  0.00    -0.320 C  
BRANCH   4   5
HETATM    5  O   UNL     1     -10.652  10.681  65.565  1.00  0.00    -0.212 OA 
BRANCH   5   6
HETATM    6  C   UNL     1     -10.209   9.719  66.432  1.00  0.00    -0.217 A  
HETATM    7  O   UNL     1     -12.956  10.190  72.303  1.00  0.00    -0.381 OA 
HETATM    8  O   UNL     1     -11.388   8.574  72.499  1.00  0.00    -0.368 OA 
HETATM    9  C   UNL     1      -9.306   8.711  66.059  1.00  0.00    -0.284 A  
HETATM   10  C   UNL     1      -8.841   7.780  66.987  1.00  0.00    -0.136 A  
HETATM   11  C   UNL     1     -12.055   9.531  71.816  1.00  0.00    -0.384 C  
HETATM   12  C   UNL     1      -9.269   7.844  68.305  1.00  0.00    -0.137 A  
HETATM   13  O   UNL     1     -10.572   8.790  70.008  1.00  0.00    -0.215 OA 
HETATM   14  C   UNL     1     -11.562   9.658  70.418  1.00  0.00    -0.236 C  
HETATM   15  C   UNL     1     -10.181   8.827  68.691  1.00  0.00    -0.194 A  
HETATM   16  C   UNL     1     -12.112  10.601  69.645  1.00  0.00    -0.312 C  
HETATM   17  C   UNL     1     -10.656   9.768  67.767  1.00  0.00    -0.320 A  
HETATM   18  O   UNL     1     -12.139  11.651  67.576  1.00  0.00    -0.611 OA 
HETATM   19  C   UNL     1     -11.657  10.755  68.252  1.00  0.00    -0.221 C  
ENDBRANCH   5   6
ENDBRANCH   4   5
ENDBRANCH   2   4
BRANCH   2  20
HETATM   20  C   UNL     1     -11.242  12.948  64.284  1.00  0.00    -0.367 C  
BRANCH  20  21
HETATM   21  O   UNL     1     -10.186  13.858  64.514  1.00  0.00    -0.405 OA 
BRANCH  21  22
HETATM   22  C   UNL     1     -10.045  14.431  65.757  1.00  0.00    -0.340 A  
HETATM   23  C   UNL     1     -10.414  18.285  65.989  1.00  0.00    -0.380 C  
HETATM   24  C   UNL     1     -10.662  16.948  65.446  1.00  0.00    -0.150 C  
HETATM   25  C   UNL     1     -10.140  15.771  66.204  1.00  0.00    -0.337 A  
HETATM   26  C   UNL     1      -9.751  16.064  67.532  1.00  0.00    -0.228 A  
HETATM   27  C   UNL     1      -9.989  18.405  67.245  1.00  0.00    -0.335 C  
HETATM   28  C   UNL     1      -9.376  15.055  68.426  1.00  0.00    -0.193 A  
HETATM   29  O   UNL     1      -9.705  17.336  68.069  1.00  0.00    -0.261 OA 
HETATM   30  C   UNL     1      -9.362  13.734  68.009  1.00  0.00    -0.199 A  
HETATM   31  C   UNL     1      -9.886  19.784  67.790  1.00  0.00    -0.398 C  
HETATM   32  O   UNL     1      -9.462  19.797  69.071  1.00  0.00    -0.313 OA 
HETATM   33  C   UNL     1      -9.669  13.435  66.684  1.00  0.00    -0.275 A  
HETATM   34  O   UNL     1     -11.367  16.901  64.450  1.00  0.00    -1.133 OA 
HETATM   35  O   UNL     1     -10.161  20.797  67.168  1.00  0.00    -0.354 OA 
ENDBRANCH  21  22
ENDBRANCH  20  21
ENDBRANCH   2  20
TORSDOF 6
ENDMDL
MODEL        5
REMARK 921   NORMALIZED FREE ENERGY PREDICTED BY IDOCK:   -8.27 KCAL/MOL
REMARK 922        TOTAL FREE ENERGY PREDICTED BY IDOCK:  -12.46 KCAL/MOL
REMARK 923 INTER-LIGAND FREE ENERGY PREDICTED BY IDOCK:  -10.75 KCAL/MOL
REMARK 924 INTRA-LIGAND FREE ENERGY PREDICTED BY IDOCK:   -1.72 KCAL/MOL
REMARK 927      BINDING AFFINITY PREDICTED BY RF-SCORE:    0.00 PKD
ROOT
HETATM    1  O   UNL     1     -11.787  13.120  62.705  1.00  0.00    -0.696 OA 
HETATM    2  C   UNL     1     -11.937  12.136  63.748  1.00  0.00    -0.513 C  
HETATM    3  H   UNL     1     -12.644  13.496  62.537  1.00  0.00     0.000 HD 
ENDROOT
BRANCH   2   4
HETATM    4  C   UNL     1     -12.523  12.818  64.984  1.00  0.00    -0.506 C  
BRANCH   4   5
HETATM    5  O   UNL     1     -11.762  13.997  65.280  1.00  0.00    -0.324 OA 
BRANCH   5   6
HETATM    6  C   UNL     1     -11.648  14.381  66.587  1.00  0.00    -0.384 A  
HETATM    7  O   UNL     1      -9.678  20.542  67.216  1.00  0.00    -0.443 OA 
HETATM    8  O   UNL     1      -9.716  19.705  69.316  1.00  0.00    -0.386 OA 
HETATM    9  C   UNL     1     -11.985  13.544  67.663  1.00  0.00    -0.373 A  
HETATM   10  C   UNL     1     -11.805  13.958  68.982  1.00  0.00    -0.397 A  
HETATM   11  C   UNL     1      -9.857  19.606  67.974  1.00  0.00    -0.415 C  
HETATM   12  C   UNL     1     -11.285  15.217  69.248  1.00  0.00    -0.287 A  
HETATM   13  O   UNL     1     -10.485  17.307  68.555  1.00  0.00    -0.343 OA 
HETATM   14  C   UNL     1     -10.265  18.237  67.560  1.00  0.00    -0.369 C  
HETATM   15  C   UNL     1     -10.963  16.070  68.193  1.00  0.00    -0.339 A  
HETATM   16  C   UNL     1     -10.399  17.994  66.251  1.00  0.00    -0.384 C  
HETATM   17  C   UNL     1     -11.138  15.665  66.862  1.00  0.00    -0.181 A  
HETATM   18  O   UNL     1     -10.882  16.438  64.600  1.00  0.00    -0.717 OA 
HETATM   19  C   UNL     1     -10.809  16.653  65.800  1.00  0.00    -0.104 C  
ENDBRANCH   5   6
ENDBRANCH   4   5
ENDBRANCH   2   4
BRANCH   2  20
HETATM   20  C   UNL     1     -10.555  11.531  64.019  1.00  0.00    -0.379 C  
BRANCH  20  21
HETATM   21  O   UNL     1     -10.546  10.514  65.000  1.00  0.00    -0.234 OA 
BRANCH  21  22
HETATM   22  C   UNL     1      -9.847  10.709  66.170  1.00  0.00    -0.217 A  
HETATM   23  C   UNL     1     -10.439   8.168  69.040  1.00  0.00    -0.211 C  
HETATM   24  C   UNL     1     -10.350   8.618  67.649  1.00  0.00    -0.254 C  
HETATM   25  C   UNL     1      -9.799   9.981  67.384  1.00  0.00    -0.226 A  
HETATM   26  C   UNL     1      -9.115  10.553  68.482  1.00  0.00    -0.154 A  
HETATM   27  C   UNL     1      -9.787   8.846  69.982  1.00  0.00    -0.174 C  
HETATM   28  C   UNL     1      -8.415  11.759  68.363  1.00  0.00    -0.155 A  
HETATM   29  O   UNL     1      -9.068   9.998  69.747  1.00  0.00    -0.215 OA 
HETATM   30  C   UNL     1      -8.397  12.429  67.150  1.00  0.00    -0.181 A  
HETATM   31  C   UNL     1      -9.796   8.268  71.352  1.00  0.00    -0.184 C  
HETATM   32  O   UNL     1      -9.098   9.021  72.228  1.00  0.00    -0.351 OA 
HETATM   33  C   UNL     1      -9.126  11.919  66.079  1.00  0.00    -0.120 A  
HETATM   34  O   UNL     1     -10.654   7.792  66.802  1.00  0.00    -0.331 OA 
HETATM   35  O   UNL     1     -10.355   7.228  71.662  1.00  0.00    -0.198 OA 
ENDBRANCH  21  22
ENDBRANCH  20  21
ENDBRANCH   2  20
TORSDOF 6
ENDMDL
MODEL        6
REMARK 921   NORMALIZED FREE ENERGY PREDICTED BY IDOCK:   -8.26 KCAL/MOL
REMARK 922        TOTAL FREE ENERGY PREDICTED BY IDOCK:  -12.45 KCAL/MOL
REMARK 923 INTER-LIGAND FREE ENERGY PREDICTED BY IDOCK:  -11.35 KCAL/MOL
REMARK 924 INTRA-LIGAND FREE ENERGY PREDICTED BY IDOCK:   -1.11 KCAL/MOL
REMARK 927      BINDING AFFINITY PREDICTED BY RF-SCORE:    0.00 PKD
ROOT
HETATM    1  O   UNL     1     -11.137  18.481  68.156  1.00  0.00    -0.188 OA 
HETATM    2  C   UNL     1     -10.729  17.109  67.981  1.00  0.00    -0.372 C  
HETATM    3  H   UNL     1     -11.969  18.479  68.614  1.00  0.00     0.000 HD 
ENDROOT
BRANCH   2   4
HETATM    4  C   UNL     1     -10.633  16.448  69.355  1.00  0.00    -0.317 C  
BRANCH   4   5
HETATM    5  O   UNL     1     -11.369  15.219  69.342  1.00  0.00    -0.256 OA 
BRANCH   5   6
HETATM    6  C   UNL     1     -12.087  14.883  70.457  1.00  0.00    -0.320 A  
HETATM    7  O   UNL     1     -12.679   8.455  71.206  1.00  0.00    -0.285 OA 
HETATM    8  O   UNL     1     -13.971   9.371  72.820  1.00  0.00    -0.372 OA 
HETATM    9  C   UNL     1     -12.581  15.835  71.363  1.00  0.00    -0.516 A  
HETATM   10  C   UNL     1     -13.353  15.453  72.460  1.00  0.00    -0.569 A  
HETATM   11  C   UNL     1     -13.150   9.439  71.747  1.00  0.00    -0.409 C  
HETATM   12  C   UNL     1     -13.644  14.112  72.669  1.00  0.00    -0.618 A  
HETATM   13  O   UNL     1     -13.459  11.848  72.096  1.00  0.00    -0.458 OA 
HETATM   14  C   UNL     1     -12.894  10.846  71.335  1.00  0.00    -0.449 C  
HETATM   15  C   UNL     1     -13.146  13.151  71.790  1.00  0.00    -0.383 A  
HETATM   16  C   UNL     1     -12.127  11.052  70.258  1.00  0.00    -0.448 C  
HETATM   17  C   UNL     1     -12.369  13.522  70.683  1.00  0.00    -0.432 A  
HETATM   18  O   UNL     1     -11.180  12.597  68.810  1.00  0.00    -0.247 OA 
HETATM   19  C   UNL     1     -11.843  12.430  69.822  1.00  0.00    -0.317 C  
ENDBRANCH   5   6
ENDBRANCH   4   5
ENDBRANCH   2   4
BRANCH   2  20
HETATM   20  C   UNL     1      -9.386  17.112  67.242  1.00  0.00    -0.242 C  
BRANCH  20  21
HETATM   21  O   UNL     1      -9.449  16.634  65.914  1.00  0.00    -0.447 OA 
BRANCH  21  22
HETATM   22  C   UNL     1     -10.119  15.461  65.649  1.00  0.00    -0.376 A  
HETATM   23  C   UNL     1      -8.481  12.164  66.871  1.00  0.00    -0.173 C  
HETATM   24  C   UNL     1      -8.794  13.594  66.903  1.00  0.00    -0.187 C  
HETATM   25  C   UNL     1      -9.834  14.110  65.963  1.00  0.00    -0.329 A  
HETATM   26  C   UNL     1     -10.636  13.102  65.377  1.00  0.00    -0.299 A  
HETATM   27  C   UNL     1      -9.301  11.337  66.225  1.00  0.00    -0.207 C  
HETATM   28  C   UNL     1     -11.747  13.416  64.586  1.00  0.00    -0.406 A  
HETATM   29  O   UNL     1     -10.414  11.746  65.522  1.00  0.00    -0.248 OA 
HETATM   30  C   UNL     1     -12.070  14.742  64.346  1.00  0.00    -0.457 A  
HETATM   31  C   UNL     1      -9.014   9.883  66.341  1.00  0.00    -0.147 C  
HETATM   32  O   UNL     1      -9.907   9.131  65.664  1.00  0.00    -0.264 OA 
HETATM   33  C   UNL     1     -11.249  15.746  64.852  1.00  0.00    -0.358 A  
HETATM   34  O   UNL     1      -8.236  14.241  67.776  1.00  0.00    -0.148 OA 
HETATM   35  O   UNL     1      -8.088   9.408  66.978  1.00  0.00    -0.105 OA 
ENDBRANCH  21  22
ENDBRANCH  20  21
ENDBRANCH   2  20
TORSDOF 6
ENDMDL
MODEL        7
REMARK 921   NORMALIZED FREE ENERGY PREDICTED BY IDOCK:   -8.24 KCAL/MOL
REMARK 922        TOTAL FREE ENERGY PREDICTED BY IDOCK:  -12.42 KCAL/MOL
REMARK 923 INTER-LIGAND FREE ENERGY PREDICTED BY IDOCK:  -11.18 KCAL/MOL
REMARK 924 INTRA-LIGAND FREE ENERGY PREDICTED BY IDOCK:   -1.24 KCAL/MOL
REMARK 927      BINDING AFFINITY PREDICTED BY RF-SCORE:    0.00 PKD
ROOT
HETATM    1  O   UNL     1      -8.463   9.981  67.045  1.00  0.00    -0.124 OA 
HETATM    2  C   UNL     1      -9.568   9.186  66.573  1.00  0.00    -0.227 C  
HETATM    3  H   UNL     1      -7.940  10.227  66.291  1.00  0.00     0.000 HD 
ENDROOT
BRANCH   2   4
HETATM    4  C   UNL     1     -10.365  10.009  65.561  1.00  0.00    -0.076 C  
BRANCH   4   5
HETATM    5  O   UNL     1      -9.815  11.331  65.487  1.00  0.00    -0.210 OA 
BRANCH   5   6
HETATM    6  C   UNL     1     -10.567  12.313  64.904  1.00  0.00    -0.293 A  
HETATM    7  O   UNL     1      -8.895  18.264  66.908  1.00  0.00    -0.260 OA 
HETATM    8  O   UNL     1     -10.728  18.556  65.616  1.00  0.00    -0.549 OA 
HETATM    9  C   UNL     1     -11.547  12.051  63.933  1.00  0.00    -0.536 A  
HETATM   10  C   UNL     1     -12.327  13.076  63.400  1.00  0.00    -0.478 A  
HETATM   11  C   UNL     1      -9.792  17.796  66.230  1.00  0.00    -0.294 C  
HETATM   12  C   UNL     1     -12.141  14.382  63.830  1.00  0.00    -0.190 A  
HETATM   13  O   UNL     1     -11.027  15.990  65.120  1.00  0.00    -0.389 OA 
HETATM   14  C   UNL     1      -9.994  16.347  65.961  1.00  0.00    -0.345 C  
HETATM   15  C   UNL     1     -11.159  14.665  64.780  1.00  0.00    -0.384 A  
HETATM   16  C   UNL     1      -9.158  15.481  66.545  1.00  0.00    -0.336 C  
HETATM   17  C   UNL     1     -10.369  13.643  65.324  1.00  0.00    -0.362 A  
HETATM   18  O   UNL     1      -8.574  13.261  66.877  1.00  0.00    -0.191 OA 
HETATM   19  C   UNL     1      -9.318  14.038  66.299  1.00  0.00    -0.175 C  
ENDBRANCH   5   6
ENDBRANCH   4   5
ENDBRANCH   2   4
BRANCH   2  20
HETATM   20  C   UNL     1     -10.412   8.789  67.789  1.00  0.00    -0.229 C  
BRANCH  20  21
HETATM   21  O   UNL     1     -10.086   9.482  68.977  1.00  0.00    -0.179 OA 
BRANCH  21  22
HETATM   22  C   UNL     1     -11.086   9.806  69.866  1.00  0.00    -0.254 A  
HETATM   23  C   UNL     1     -12.217  13.514  69.993  1.00  0.00    -0.381 C  
HETATM   24  C   UNL     1     -11.685  12.298  69.374  1.00  0.00    -0.330 C  
HETATM   25  C   UNL     1     -11.747  11.025  70.153  1.00  0.00    -0.442 A  
HETATM   26  C   UNL     1     -12.613  11.072  71.270  1.00  0.00    -0.412 A  
HETATM   27  C   UNL     1     -12.973  13.407  71.084  1.00  0.00    -0.236 C  
HETATM   28  C   UNL     1     -12.900   9.928  72.024  1.00  0.00    -0.488 A  
HETATM   29  O   UNL     1     -13.248  12.214  71.718  1.00  0.00    -0.448 OA 
HETATM   30  C   UNL     1     -12.314   8.717  71.691  1.00  0.00    -0.394 A  
HETATM   31  C   UNL     1     -13.601  14.656  71.590  1.00  0.00    -0.393 C  
HETATM   32  O   UNL     1     -14.356  14.439  72.688  1.00  0.00    -0.480 OA 
HETATM   33  C   UNL     1     -11.400   8.668  70.640  1.00  0.00    -0.277 A  
HETATM   34  O   UNL     1     -11.314  12.410  68.216  1.00  0.00    -0.240 OA 
HETATM   35  O   UNL     1     -13.468  15.755  71.078  1.00  0.00    -0.581 OA 
ENDBRANCH  21  22
ENDBRANCH  20  21
ENDBRANCH   2  20
TORSDOF 6
ENDMDL
MODEL        8
REMARK 921   NORMALIZED FREE ENERGY PREDICTED BY IDOCK:   -8.16 KCAL/MOL
REMARK 922        TOTAL FREE ENERGY PREDICTED BY IDOCK:  -12.32 KCAL/MOL
REMARK 923 INTER-LIGAND FREE ENERGY PREDICTED BY IDOCK:  -10.47 KCAL/MOL
REMARK 924 INTRA-LIGAND FREE ENERGY PREDICTED BY IDOCK:   -1.86 KCAL/MOL
REMARK 927      BINDING AFFINITY PREDICTED BY RF-SCORE:    0.00 PKD
ROOT
HETATM    1  O   UNL     1     -13.855   8.916  73.325  1.00  0.00    -1.163 OA 
HETATM    2  C   UNL     1     -12.976   8.986  72.185  1.00  0.00    -0.424 C  
HETATM    3  H   UNL     1     -13.890   9.782  73.716  1.00  0.00     0.000 HD 
ENDROOT
BRANCH   2   4
HETATM    4  C   UNL     1     -13.513  10.039  71.216  1.00  0.00    -0.258 C  
BRANCH   4   5
HETATM    5  O   UNL     1     -12.422  10.602  70.477  1.00  0.00    -0.316 OA 
BRANCH   5   6
HETATM    6  C   UNL     1     -12.306  11.964  70.431  1.00  0.00    -0.251 A  
HETATM    7  O   UNL     1     -10.632  14.132  64.537  1.00  0.00    -0.406 OA 
HETATM    8  O   UNL     1     -10.596  15.950  65.881  1.00  0.00    -0.323 OA 
HETATM    9  C   UNL     1     -12.584  12.793  71.529  1.00  0.00    -0.259 A  
HETATM   10  C   UNL     1     -12.404  14.174  71.455  1.00  0.00    -0.425 A  
HETATM   11  C   UNL     1     -10.753  14.628  65.643  1.00  0.00    -0.332 C  
HETATM   12  C   UNL     1     -11.942  14.749  70.280  1.00  0.00    -0.367 A  
HETATM   13  O   UNL     1     -11.258  14.607  68.043  1.00  0.00    -0.270 OA 
HETATM   14  C   UNL     1     -11.099  13.881  66.881  1.00  0.00    -0.301 C  
HETATM   15  C   UNL     1     -11.679  13.944  69.171  1.00  0.00    -0.338 A  
HETATM   16  C   UNL     1     -11.242  12.554  66.792  1.00  0.00    -0.347 C  
HETATM   17  C   UNL     1     -11.856  12.555  69.234  1.00  0.00    -0.360 A  
HETATM   18  O   UNL     1     -11.674  10.562  67.901  1.00  0.00    -0.453 OA 
HETATM   19  C   UNL     1     -11.593  11.777  67.994  1.00  0.00    -0.316 C  
ENDBRANCH   5   6
ENDBRANCH   4   5
ENDBRANCH   2   4
BRANCH   2  20
HETATM   20  C   UNL     1     -12.920   7.591  71.553  1.00  0.00    -0.359 C  
BRANCH  20  21
HETATM   21  O   UNL     1     -11.618   7.054  71.437  1.00  0.00    -0.264 OA 
BRANCH  21  22
HETATM   22  C   UNL     1     -10.933   7.190  70.251  1.00  0.00    -0.263 A  
HETATM   23  C   UNL     1      -8.484  10.183  69.947  1.00  0.00    -0.106 C  
HETATM   24  C   UNL     1      -9.231   9.130  70.639  1.00  0.00    -0.258 C  
HETATM   25  C   UNL     1      -9.965   8.126  69.812  1.00  0.00    -0.191 A  
HETATM   26  C   UNL     1      -9.585   8.109  68.450  1.00  0.00    -0.147 A  
HETATM   27  C   UNL     1      -8.253  10.059  68.641  1.00  0.00    -0.111 C  
HETATM   28  C   UNL     1     -10.067   7.136  67.566  1.00  0.00    -0.241 A  
HETATM   29  O   UNL     1      -8.725   9.020  67.868  1.00  0.00    -0.128 OA 
HETATM   30  C   UNL     1     -10.953   6.172  68.018  1.00  0.00    -0.399 A  
HETATM   31  C   UNL     1      -7.374  11.083  68.017  1.00  0.00    -0.088 C  
HETATM   32  O   UNL     1      -7.190  10.862  66.698  1.00  0.00    -0.124 OA 
HETATM   33  C   UNL     1     -11.396   6.218  69.338  1.00  0.00    -0.448 A  
HETATM   34  O   UNL     1      -9.113   9.107  71.855  1.00  0.00    -0.354 OA 
HETATM   35  O   UNL     1      -6.861  12.014  68.615  1.00  0.00    -0.078 OA 
ENDBRANCH  21  22
ENDBRANCH  20  21
ENDBRANCH   2  20
TORSDOF 6
ENDMDL
MODEL        9
REMARK 921   NORMALIZED FREE ENERGY PREDICTED BY IDOCK:   -8.15 KCAL/MOL
REMARK 922        TOTAL FREE ENERGY PREDICTED BY IDOCK:  -12.31 KCAL/MOL
REMARK 923 INTER-LIGAND FREE ENERGY PREDICTED BY IDOCK:  -11.06 KCAL/MOL
REMARK 924 INTRA-LIGAND FREE ENERGY PREDICTED BY IDOCK:   -1.25 KCAL/MOL
REMARK 927      BINDING AFFINITY PREDICTED BY RF-SCORE:    0.00 PKD
ROOT
HETATM    1  O   UNL     1     -10.582  17.984  68.056  1.00  0.00    -0.387 OA 
HETATM    2  C   UNL     1     -10.245  16.617  67.750  1.00  0.00    -0.292 C  
HETATM    3  H   UNL     1     -10.363  18.513  67.297  1.00  0.00     0.000 HD 
ENDROOT
BRANCH   2   4
HETATM    4  C   UNL     1     -11.020  16.190  66.503  1.00  0.00    -0.047 C  
BRANCH   4   5
HETATM    5  O   UNL     1     -10.180  15.368  65.682  1.00  0.00    -0.318 OA 
BRANCH   5   6
HETATM    6  C   UNL     1     -10.716  14.231  65.144  1.00  0.00    -0.394 A  
HETATM    7  O   UNL     1      -7.933   8.828  67.448  1.00  0.00    -0.097 OA 
HETATM    8  O   UNL     1      -9.340   8.134  65.819  1.00  0.00    -0.113 OA 
HETATM    9  C   UNL     1     -11.791  14.244  64.241  1.00  0.00    -0.401 A  
HETATM   10  C   UNL     1     -12.274  13.064  63.677  1.00  0.00    -0.568 A  
HETATM   11  C   UNL     1      -8.734   9.085  66.566  1.00  0.00    -0.129 C  
HETATM   12  C   UNL     1     -11.688  11.849  64.005  1.00  0.00    -0.469 A  
HETATM   13  O   UNL     1     -10.138  10.564  65.203  1.00  0.00    -0.291 OA 
HETATM   14  C   UNL     1      -9.176  10.453  66.186  1.00  0.00    -0.168 C  
HETATM   15  C   UNL     1     -10.631  11.814  64.915  1.00  0.00    -0.294 A  
HETATM   16  C   UNL     1      -8.620  11.490  66.823  1.00  0.00    -0.170 C  
HETATM   17  C   UNL     1     -10.137  12.994  65.489  1.00  0.00    -0.270 A  
HETATM   18  O   UNL     1      -8.485  13.795  67.041  1.00  0.00    -0.201 OA 
HETATM   19  C   UNL     1      -9.037  12.861  66.481  1.00  0.00    -0.132 C  
ENDBRANCH   5   6
ENDBRANCH   4   5
ENDBRANCH   2   4
BRANCH   2  20
HETATM   20  C   UNL     1     -10.598  15.764  68.973  1.00  0.00    -0.232 C  
BRANCH  20  21
HETATM   21  O   UNL     1     -11.887  15.185  68.930  1.00  0.00    -0.326 OA 
BRANCH  21  22
HETATM   22  C   UNL     1     -12.401  14.596  70.062  1.00  0.00    -0.315 A  
HETATM   23  C   UNL     1     -12.218  10.728  70.294  1.00  0.00    -0.431 C  
HETATM   24  C   UNL     1     -11.786  12.066  69.882  1.00  0.00    -0.331 C  
HETATM   25  C   UNL     1     -12.477  13.246  70.483  1.00  0.00    -0.332 A  
HETATM   26  C   UNL     1     -13.246  12.944  71.631  1.00  0.00    -0.324 A  
HETATM   27  C   UNL     1     -12.996  10.602  71.366  1.00  0.00    -0.443 C  
HETATM   28  C   UNL     1     -13.841  13.949  72.402  1.00  0.00    -0.668 A  
HETATM   29  O   UNL     1     -13.481  11.665  72.098  1.00  0.00    -0.423 OA 
HETATM   30  C   UNL     1     -13.697  15.277  72.032  1.00  0.00    -0.596 A  
HETATM   31  C   UNL     1     -13.290   9.217  71.822  1.00  0.00    -0.409 C  
HETATM   32  O   UNL     1     -14.073   9.197  72.921  1.00  0.00    -0.478 OA 
HETATM   33  C   UNL     1     -13.007  15.589  70.863  1.00  0.00    -0.526 A  
HETATM   34  O   UNL     1     -10.818  12.107  69.138  1.00  0.00    -0.201 OA 
HETATM   35  O   UNL     1     -12.872   8.207  71.281  1.00  0.00    -0.280 OA 
ENDBRANCH  21  22
ENDBRANCH  20  21
ENDBRANCH   2  20
TORSDOF 6
ENDMDL
MODEL       10
REMARK 921   NORMALIZED FREE ENERGY PREDICTED BY IDOCK:   -8.14 KCAL/MOL
REMARK 922        TOTAL FREE ENERGY PREDICTED BY IDOCK:  -12.29 KCAL/MOL
REMARK 923 INTER-LIGAND FREE ENERGY PREDICTED BY IDOCK:  -10.49 KCAL/MOL
REMARK 924 INTRA-LIGAND FREE ENERGY PREDICTED BY IDOCK:   -1.79 KCAL/MOL
REMARK 927      BINDING AFFINITY PREDICTED BY RF-SCORE:    0.00 PKD
ROOT
HETATM    1  O   UNL     1     -12.401  14.283  63.259  1.00  0.00    -1.118 OA 
HETATM    2  C   UNL     1     -12.323  12.957  63.817  1.00  0.00    -0.417 C  
HETATM    3  H   UNL     1     -13.255  14.639  63.476  1.00  0.00     0.000 HD 
ENDROOT
BRANCH   2   4
HETATM    4  C   UNL     1     -12.544  13.048  65.327  1.00  0.00    -0.457 C  
BRANCH   4   5
HETATM    5  O   UNL     1     -11.325  13.456  65.960  1.00  0.00    -0.301 OA 
BRANCH   5   6
HETATM    6  C   UNL     1     -11.404  14.077  67.176  1.00  0.00    -0.331 A  
HETATM    7  O   UNL     1      -9.954  20.404  66.849  1.00  0.00    -0.450 OA 
HETATM    8  O   UNL     1     -10.202  19.955  69.051  1.00  0.00    -0.432 OA 
HETATM    9  C   UNL     1     -11.816  13.419  68.346  1.00  0.00    -0.401 A  
HETATM   10  C   UNL     1     -11.835  14.077  69.575  1.00  0.00    -0.378 A  
HETATM   11  C   UNL     1     -10.164  19.606  67.745  1.00  0.00    -0.436 C  
HETATM   12  C   UNL     1     -11.439  15.405  69.656  1.00  0.00    -0.331 A  
HETATM   13  O   UNL     1     -10.702  17.401  68.675  1.00  0.00    -0.335 OA 
HETATM   14  C   UNL     1     -10.422  18.154  67.554  1.00  0.00    -0.410 C  
HETATM   15  C   UNL     1     -11.045  16.081  68.501  1.00  0.00    -0.347 A  
HETATM   16  C   UNL     1     -10.372  17.669  66.308  1.00  0.00    -0.342 C  
HETATM   17  C   UNL     1     -11.022  15.431  67.260  1.00  0.00    -0.317 A  
HETATM   18  O   UNL     1     -10.534  15.806  64.936  1.00  0.00    -0.499 OA 
HETATM   19  C   UNL     1     -10.629  16.237  66.074  1.00  0.00    -0.281 C  
ENDBRANCH   5   6
ENDBRANCH   4   5
ENDBRANCH   2   4
BRANCH   2  20
HETATM   20  C   UNL     1     -10.945  12.383  63.466  1.00  0.00    -0.450 C  
BRANCH  20  21
HETATM   21  O   UNL     1     -10.797  11.006  63.749  1.00  0.00    -0.339 OA 
BRANCH  21  22
HETATM   22  C   UNL     1      -9.589  10.538  64.213  1.00  0.00    -0.307 A  
HETATM   23  C   UNL     1      -9.103  10.377  68.058  1.00  0.00    -0.136 C  
HETATM   24  C   UNL     1      -9.856  10.344  66.802  1.00  0.00    -0.195 C  
HETATM   25  C   UNL     1      -9.088  10.325  65.521  1.00  0.00    -0.211 A  
HETATM   26  C   UNL     1      -7.718  10.007  65.671  1.00  0.00    -0.136 A  
HETATM   27  C   UNL     1      -7.798  10.115  68.037  1.00  0.00    -0.096 C  
HETATM   28  C   UNL     1      -6.886   9.806  64.564  1.00  0.00    -0.118 A  
HETATM   29  O   UNL     1      -7.079   9.865  66.887  1.00  0.00    -0.087 OA 
HETATM   30  C   UNL     1      -7.399   9.936  63.283  1.00  0.00    -0.132 A  
HETATM   31  C   UNL     1      -7.111  10.025  69.352  1.00  0.00    -0.074 C  
HETATM   32  O   UNL     1      -5.798   9.741  69.224  1.00  0.00    -0.035 OA 
HETATM   33  C   UNL     1      -8.727  10.322  63.116  1.00  0.00    -0.207 A  
HETATM   34  O   UNL     1     -11.068  10.238  66.911  1.00  0.00    -0.141 OA 
HETATM   35  O   UNL     1      -7.659  10.176  70.432  1.00  0.00    -0.249 OA 
ENDBRANCH  21  22
ENDBRANCH  20  21
ENDBRANCH   2  20
TORSDOF 6
ENDMDL
MODEL       11
REMARK 921   NORMALIZED FREE ENERGY PREDICTED BY IDOCK:   -8.07 KCAL/MOL
REMARK 922        TOTAL FREE ENERGY PREDICTED BY IDOCK:  -12.19 KCAL/MOL
REMARK 923 INTER-LIGAND FREE ENERGY PREDICTED BY IDOCK:  -11.27 KCAL/MOL
REMARK 924 INTRA-LIGAND FREE ENERGY PREDICTED BY IDOCK:   -0.92 KCAL/MOL
REMARK 927      BINDING AFFINITY PREDICTED BY RF-SCORE:    0.00 PKD
ROOT
HETATM    1  O   UNL     1     -12.745  14.284  64.833  1.00  0.00    -0.637 OA 
HETATM    2  C   UNL     1     -11.404  14.732  64.553  1.00  0.00    -0.303 C  
HETATM    3  H   UNL     1     -12.846  13.419  64.452  1.00  0.00     0.000 HD 
ENDROOT
BRANCH   2   4
HETATM    4  C   UNL     1     -10.418  13.722  65.139  1.00  0.00    -0.384 C  
BRANCH   4   5
HETATM    5  O   UNL     1     -10.312  13.930  66.553  1.00  0.00    -0.276 OA 
BRANCH   5   6
HETATM    6  C   UNL     1     -10.927  13.036  67.386  1.00  0.00    -0.260 A  
HETATM    7  O   UNL     1     -13.353  15.850  72.718  1.00  0.00    -0.496 OA 
HETATM    8  O   UNL     1     -13.645  13.629  73.023  1.00  0.00    -0.578 OA 
HETATM    9  C   UNL     1     -11.066  11.673  67.078  1.00  0.00    -0.359 A  
HETATM   10  C   UNL     1     -11.655  10.786  67.978  1.00  0.00    -0.245 A  
HETATM   11  C   UNL     1     -13.205  14.705  72.331  1.00  0.00    -0.406 C  
HETATM   12  C   UNL     1     -12.115  11.247  69.203  1.00  0.00    -0.348 A  
HETATM   13  O   UNL     1     -12.516  12.969  70.741  1.00  0.00    -0.354 OA 
HETATM   14  C   UNL     1     -12.546  14.311  71.058  1.00  0.00    -0.358 C  
HETATM   15  C   UNL     1     -12.003  12.601  69.520  1.00  0.00    -0.270 A  
HETATM   16  C   UNL     1     -12.028  15.282  70.296  1.00  0.00    -0.367 C  
HETATM   17  C   UNL     1     -11.413  13.503  68.623  1.00  0.00    -0.343 A  
HETATM   18  O   UNL     1     -10.867  15.830  68.364  1.00  0.00    -0.270 OA 
HETATM   19  C   UNL     1     -11.373  14.935  69.023  1.00  0.00    -0.292 C  
ENDBRANCH   5   6
ENDBRANCH   4   5
ENDBRANCH   2   4
BRANCH   2  20
HETATM   20  C   UNL     1     -11.239  16.127  65.167  1.00  0.00    -0.147 C  
BRANCH  20  21
HETATM   21  O   UNL     1      -9.898  16.544  65.318  1.00  0.00    -0.488 OA 
BRANCH  21  22
HETATM   22  C   UNL     1      -9.625  17.711  65.995  1.00  0.00    -0.103 A  
HETATM   23  C   UNL     1      -6.685  17.655  68.524  1.00  0.00    -0.208 C  
HETATM   24  C   UNL     1      -7.425  17.258  67.324  1.00  0.00    -0.176 C  
HETATM   25  C   UNL     1      -8.634  18.051  66.948  1.00  0.00    -0.262 A  
HETATM   26  C   UNL     1      -8.737  19.299  67.606  1.00  0.00    -0.296 A  
HETATM   27  C   UNL     1      -6.933  18.842  69.074  1.00  0.00    -0.295 C  
HETATM   28  C   UNL     1      -9.727  20.228  67.267  1.00  0.00    -0.590 A  
HETATM   29  O   UNL     1      -7.896  19.717  68.620  1.00  0.00    -0.321 OA 
HETATM   30  C   UNL     1     -10.647  19.925  66.277  1.00  0.00    -0.534 A  
HETATM   31  C   UNL     1      -6.058  19.253  70.203  1.00  0.00    -0.201 C  
HETATM   32  O   UNL     1      -6.381  20.474  70.681  1.00  0.00    -0.510 OA 
HETATM   33  C   UNL     1     -10.608  18.672  65.670  1.00  0.00    -0.171 A  
HETATM   34  O   UNL     1      -6.931  16.354  66.669  1.00  0.00    -0.203 OA 
HETATM   35  O   UNL     1      -5.144  18.581  70.652  1.00  0.00    -0.217 OA 
ENDBRANCH  21  22
ENDBRANCH  20  21
ENDBRANCH   2  20
TORSDOF 6
ENDMDL
MODEL       12
REMARK 921   NORMALIZED FREE ENERGY PREDICTED BY IDOCK:   -8.02 KCAL/MOL
REMARK 922        TOTAL FREE ENERGY PREDICTED BY IDOCK:  -12.13 KCAL/MOL
REMARK 923 INTER-LIGAND FREE ENERGY PREDICTED BY IDOCK:  -10.79 KCAL/MOL
REMARK 924 INTRA-LIGAND FREE ENERGY PREDICTED BY IDOCK:   -1.34 KCAL/MOL
REMARK 927      BINDING AFFINITY PREDICTED BY RF-SCORE:    0.00 PKD
ROOT
HETATM    1  O   UNL     1     -14.157   9.056  72.856  1.00  0.00    -1.009 OA 
HETATM    2  C   UNL     1     -13.159   9.418  71.881  1.00  0.00    -0.424 C  
HETATM    3  H   UNL     1     -14.225   8.108  72.862  1.00  0.00     0.000 HD 
ENDROOT
BRANCH   2   4
HETATM    4  C   UNL     1     -11.840   8.744  72.259  1.00  0.00    -0.333 C  
BRANCH   4   5
HETATM    5  O   UNL     1     -10.869   8.996  71.234  1.00  0.00    -0.261 OA 
BRANCH   5   6
HETATM    6  C   UNL     1     -10.779   8.108  70.197  1.00  0.00    -0.243 A  
HETATM    7  O   UNL     1      -7.913  10.671  64.957  1.00  0.00    -0.119 OA 
HETATM    8  O   UNL     1      -8.629   8.625  64.313  1.00  0.00    -0.134 OA 
HETATM    9  C   UNL     1     -11.206   6.775  70.293  1.00  0.00    -0.385 A  
HETATM   10  C   UNL     1     -11.143   5.916  69.195  1.00  0.00    -0.328 A  
HETATM   11  C   UNL     1      -8.498   9.632  65.207  1.00  0.00    -0.146 C  
HETATM   12  C   UNL     1     -10.651   6.379  67.983  1.00  0.00    -0.315 A  
HETATM   13  O   UNL     1      -9.704   8.052  66.644  1.00  0.00    -0.210 OA 
HETATM   14  C   UNL     1      -9.135   9.301  66.509  1.00  0.00    -0.154 C  
HETATM   15  C   UNL     1     -10.204   7.695  67.874  1.00  0.00    -0.198 A  
HETATM   16  C   UNL     1      -9.112  10.232  67.470  1.00  0.00    -0.146 C  
HETATM   17  C   UNL     1     -10.263   8.568  68.969  1.00  0.00    -0.218 A  
HETATM   18  O   UNL     1      -9.735  10.819  69.626  1.00  0.00    -0.080 OA 
HETATM   19  C   UNL     1      -9.726   9.941  68.778  1.00  0.00    -0.160 C  
ENDBRANCH   5   6
ENDBRANCH   4   5
ENDBRANCH   2   4
BRANCH   2  20
HETATM   20  C   UNL     1     -13.048  10.946  71.871  1.00  0.00    -0.432 C  
BRANCH  20  21
HETATM   21  O   UNL     1     -12.561  11.489  70.661  1.00  0.00    -0.304 OA 
BRANCH  21  22
HETATM   22  C   UNL     1     -12.505  12.855  70.507  1.00  0.00    -0.217 A  
HETATM   23  C   UNL     1     -10.985  14.212  67.206  1.00  0.00    -0.304 C  
HETATM   24  C   UNL     1     -11.697  13.257  68.058  1.00  0.00    -0.359 C  
HETATM   25  C   UNL     1     -12.049  13.677  69.447  1.00  0.00    -0.364 A  
HETATM   26  C   UNL     1     -11.948  15.070  69.674  1.00  0.00    -0.321 A  
HETATM   27  C   UNL     1     -10.920  15.488  67.581  1.00  0.00    -0.315 C  
HETATM   28  C   UNL     1     -12.377  15.651  70.873  1.00  0.00    -0.479 A  
HETATM   29  O   UNL     1     -11.434  15.973  68.764  1.00  0.00    -0.360 OA 
HETATM   30  C   UNL     1     -12.898  14.852  71.879  1.00  0.00    -0.402 A  
HETATM   31  C   UNL     1     -10.308  16.439  66.615  1.00  0.00    -0.292 C  
HETATM   32  O   UNL     1     -10.302  17.706  67.081  1.00  0.00    -0.329 OA 
HETATM   33  C   UNL     1     -12.935  13.471  71.702  1.00  0.00    -0.447 A  
HETATM   34  O   UNL     1     -12.031  12.212  67.520  1.00  0.00    -0.544 OA 
HETATM   35  O   UNL     1      -9.869  16.129  65.520  1.00  0.00    -0.458 OA 
ENDBRANCH  21  22
ENDBRANCH  20  21
ENDBRANCH   2  20
TORSDOF 6
ENDMDL
MODEL       13
REMARK 921   NORMALIZED FREE ENERGY PREDICTED BY IDOCK:   -8.01 KCAL/MOL
REMARK 922        TOTAL FREE ENERGY PREDICTED BY IDOCK:  -12.11 KCAL/MOL
REMARK 923 INTER-LIGAND FREE ENERGY PREDICTED BY IDOCK:  -10.88 KCAL/MOL
REMARK 924 INTRA-LIGAND FREE ENERGY PREDICTED BY IDOCK:   -1.24 KCAL/MOL
REMARK 927      BINDING AFFINITY PREDICTED BY RF-SCORE:    0.00 PKD
ROOT
HETATM    1  O   UNL     1     -12.156  12.097  66.812  1.00  0.00    -0.609 OA 
HETATM    2  C   UNL     1     -11.667  13.416  66.500  1.00  0.00    -0.373 C  
HETATM    3  H   UNL     1     -11.894  11.516  66.108  1.00  0.00     0.000 HD 
ENDROOT
BRANCH   2   4
HETATM    4  C   UNL     1     -10.149  13.350  66.340  1.00  0.00    -0.292 C  
BRANCH   4   5
HETATM    5  O   UNL     1      -9.625  14.680  66.241  1.00  0.00    -0.282 OA 
BRANCH   5   6
HETATM    6  C   UNL     1      -8.457  14.966  66.894  1.00  0.00    -0.223 A  
HETATM    7  O   UNL     1      -7.238  21.344  67.159  1.00  0.00    -0.506 OA 
HETATM    8  O   UNL     1      -5.401  20.343  68.017  1.00  0.00    -0.189 OA 
HETATM    9  C   UNL     1      -7.655  13.981  67.492  1.00  0.00    -0.195 A  
HETATM   10  C   UNL     1      -6.446  14.310  68.104  1.00  0.00    -0.135 A  
HETATM   11  C   UNL     1      -6.626  20.330  67.443  1.00  0.00    -0.226 C  
HETATM   12  C   UNL     1      -6.019  15.630  68.129  1.00  0.00    -0.138 A  
HETATM   13  O   UNL     1      -6.323  17.905  67.660  1.00  0.00    -0.167 OA 
HETATM   14  C   UNL     1      -7.119  18.944  67.223  1.00  0.00    -0.208 C  
HETATM   15  C   UNL     1      -6.812  16.625  67.558  1.00  0.00    -0.151 A  
HETATM   16  C   UNL     1      -8.304  18.790  66.622  1.00  0.00    -0.296 C  
HETATM   17  C   UNL     1      -8.029  16.307  66.939  1.00  0.00    -0.278 A  
HETATM   18  O   UNL     1      -9.894  17.313  65.803  1.00  0.00    -0.528 OA 
HETATM   19  C   UNL     1      -8.832  17.434  66.393  1.00  0.00    -0.242 C  
ENDBRANCH   5   6
ENDBRANCH   4   5
ENDBRANCH   2   4
BRANCH   2  20
HETATM   20  C   UNL     1     -12.091  14.352  67.637  1.00  0.00    -0.277 C  
BRANCH  20  21
HETATM   21  O   UNL     1     -11.350  14.194  68.830  1.00  0.00    -0.246 OA 
BRANCH  21  22
HETATM   22  C   UNL     1     -11.986  13.746  69.966  1.00  0.00    -0.338 A  
HETATM   23  C   UNL     1     -12.146   9.909  70.516  1.00  0.00    -0.289 C  
HETATM   24  C   UNL     1     -11.577  11.169  70.032  1.00  0.00    -0.338 C  
HETATM   25  C   UNL     1     -12.203  12.447  70.486  1.00  0.00    -0.382 A  
HETATM   26  C   UNL     1     -13.069  12.305  71.596  1.00  0.00    -0.306 A  
HETATM   27  C   UNL     1     -13.001   9.937  71.536  1.00  0.00    -0.422 C  
HETATM   28  C   UNL     1     -13.626  13.416  72.238  1.00  0.00    -0.703 A  
HETATM   29  O   UNL     1     -13.441  11.093  72.144  1.00  0.00    -0.380 OA 
HETATM   30  C   UNL     1     -13.347  14.692  71.776  1.00  0.00    -0.445 A  
HETATM   31  C   UNL     1     -13.440   8.623  72.078  1.00  0.00    -0.403 C  
HETATM   32  O   UNL     1     -14.292   8.758  73.116  1.00  0.00    -0.324 OA 
HETATM   33  C   UNL     1     -12.557  14.848  70.639  1.00  0.00    -0.420 A  
HETATM   34  O   UNL     1     -10.562  11.070  69.359  1.00  0.00    -0.223 OA 
HETATM   35  O   UNL     1     -13.074   7.540  71.651  1.00  0.00    -0.345 OA 
ENDBRANCH  21  22
ENDBRANCH  20  21
ENDBRANCH   2  20
TORSDOF 6
ENDMDL
MODEL       14
REMARK 921   NORMALIZED FREE ENERGY PREDICTED BY IDOCK:   -7.98 KCAL/MOL
REMARK 922        TOTAL FREE ENERGY PREDICTED BY IDOCK:  -12.07 KCAL/MOL
REMARK 923 INTER-LIGAND FREE ENERGY PREDICTED BY IDOCK:  -11.02 KCAL/MOL
REMARK 924 INTRA-LIGAND FREE ENERGY PREDICTED BY IDOCK:   -1.05 KCAL/MOL
REMARK 927      BINDING AFFINITY PREDICTED BY RF-SCORE:    0.00 PKD
ROOT
HETATM    1  O   UNL     1     -11.100  17.677  67.748  1.00  0.00    -0.220 OA 
HETATM    2  C   UNL     1     -10.179  17.489  68.840  1.00  0.00    -0.353 C  
HETATM    3  H   UNL     1     -10.964  18.551  67.401  1.00  0.00     0.000 HD 
ENDROOT
BRANCH   2   4
HETATM    4  C   UNL     1      -8.756  17.689  68.319  1.00  0.00    -0.276 C  
BRANCH   4   5
HETATM    5  O   UNL     1      -8.626  17.056  67.040  1.00  0.00    -0.196 OA 
BRANCH   5   6
HETATM    6  C   UNL     1      -8.431  15.702  67.006  1.00  0.00    -0.226 A  
HETATM    7  O   UNL     1     -12.544  12.689  62.975  1.00  0.00    -0.484 OA 
HETATM    8  O   UNL     1     -11.410  11.038  64.024  1.00  0.00    -0.054 OA 
HETATM    9  C   UNL     1      -7.410  15.058  67.721  1.00  0.00    -0.183 A  
HETATM   10  C   UNL     1      -7.278  13.670  67.699  1.00  0.00    -0.179 A  
HETATM   11  C   UNL     1     -11.719  12.336  63.799  1.00  0.00    -0.478 C  
HETATM   12  C   UNL     1      -8.167  12.902  66.960  1.00  0.00    -0.086 A  
HETATM   13  O   UNL     1      -9.988  12.686  65.502  1.00  0.00    -0.264 OA 
HETATM   14  C   UNL     1     -10.926  13.251  64.662  1.00  0.00    -0.370 C  
HETATM   15  C   UNL     1      -9.177  13.526  66.227  1.00  0.00    -0.050 A  
HETATM   16  C   UNL     1     -11.166  14.564  64.568  1.00  0.00    -0.302 C  
HETATM   17  C   UNL     1      -9.320  14.920  66.242  1.00  0.00    -0.329 A  
HETATM   18  O   UNL     1     -10.662  16.695  65.332  1.00  0.00    -0.473 OA 
HETATM   19  C   UNL     1     -10.397  15.505  65.400  1.00  0.00    -0.394 C  
ENDBRANCH   5   6
ENDBRANCH   4   5
ENDBRANCH   2   4
BRANCH   2  20
HETATM   20  C   UNL     1     -10.399  16.079  69.399  1.00  0.00    -0.272 C  
BRANCH  20  21
HETATM   21  O   UNL     1     -11.737  15.629  69.337  1.00  0.00    -0.341 OA 
BRANCH  21  22
HETATM   22  C   UNL     1     -12.259  14.915  70.392  1.00  0.00    -0.336 A  
HETATM   23  C   UNL     1     -12.128  11.045  70.160  1.00  0.00    -0.438 C  
HETATM   24  C   UNL     1     -11.678  12.417  69.910  1.00  0.00    -0.266 C  
HETATM   25  C   UNL     1     -12.353  13.526  70.649  1.00  0.00    -0.432 A  
HETATM   26  C   UNL     1     -13.126  13.099  71.755  1.00  0.00    -0.383 A  
HETATM   27  C   UNL     1     -12.907  10.802  71.212  1.00  0.00    -0.438 C  
HETATM   28  C   UNL     1     -13.707  14.013  72.640  1.00  0.00    -0.586 A  
HETATM   29  O   UNL     1     -13.378  11.776  72.066  1.00  0.00    -0.487 OA 
HETATM   30  C   UNL     1     -13.546  15.373  72.431  1.00  0.00    -0.618 A  
HETATM   31  C   UNL     1     -13.220   9.377  71.499  1.00  0.00    -0.384 C  
HETATM   32  O   UNL     1     -14.002   9.236  72.590  1.00  0.00    -0.438 OA 
HETATM   33  C   UNL     1     -12.851  15.813  71.307  1.00  0.00    -0.486 A  
HETATM   34  O   UNL     1     -10.710  12.533  69.175  1.00  0.00    -0.153 OA 
HETATM   35  O   UNL     1     -12.815   8.433  70.841  1.00  0.00    -0.047 OA 
ENDBRANCH  21  22
ENDBRANCH  20  21
ENDBRANCH   2  20
TORSDOF 6
ENDMDL
MODEL       15
REMARK 921   NORMALIZED FREE ENERGY PREDICTED BY IDOCK:   -7.97 KCAL/MOL
REMARK 922        TOTAL FREE ENERGY PREDICTED BY IDOCK:  -12.06 KCAL/MOL
REMARK 923 INTER-LIGAND FREE ENERGY PREDICTED BY IDOCK:  -11.24 KCAL/MOL
REMARK 924 INTRA-LIGAND FREE ENERGY PREDICTED BY IDOCK:   -0.81 KCAL/MOL
REMARK 927      BINDING AFFINITY PREDICTED BY RF-SCORE:    0.00 PKD
ROOT
HETATM    1  O   UNL     1      -9.188   7.518  65.775  1.00  0.00    -0.381 OA 
HETATM    2  C   UNL     1      -9.351   8.706  66.574  1.00  0.00    -0.200 C  
HETATM    3  H   UNL     1      -9.001   6.796  66.364  1.00  0.00     0.000 HD 
ENDROOT
BRANCH   2   4
HETATM    4  C   UNL     1     -10.480   8.470  67.577  1.00  0.00    -0.258 C  
BRANCH   4   5
HETATM    5  O   UNL     1     -10.094   8.989  68.856  1.00  0.00    -0.184 OA 
BRANCH   5   6
HETATM    6  C   UNL     1     -11.025   8.998  69.858  1.00  0.00    -0.193 A  
HETATM    7  O   UNL     1     -13.212  14.974  71.180  1.00  0.00    -0.376 OA 
HETATM    8  O   UNL     1     -14.133  13.634  72.751  1.00  0.00    -0.711 OA 
HETATM    9  C   UNL     1     -11.492   7.829  70.479  1.00  0.00    -0.219 A  
HETATM   10  C   UNL     1     -12.404   7.887  71.532  1.00  0.00    -0.340 A  
HETATM   11  C   UNL     1     -13.337  13.872  71.684  1.00  0.00    -0.362 C  
HETATM   12  C   UNL     1     -12.865   9.116  71.983  1.00  0.00    -0.483 A  
HETATM   13  O   UNL     1     -12.962  11.454  71.858  1.00  0.00    -0.453 OA 
HETATM   14  C   UNL     1     -12.662  12.634  71.210  1.00  0.00    -0.257 C  
HETATM   15  C   UNL     1     -12.427  10.288  71.365  1.00  0.00    -0.424 A  
HETATM   16  C   UNL     1     -11.812  12.740  70.183  1.00  0.00    -0.326 C  
HETATM   17  C   UNL     1     -11.509  10.243  70.306  1.00  0.00    -0.395 A  
HETATM   18  O   UNL     1     -10.322  11.660  68.769  1.00  0.00    -0.214 OA 
HETATM   19  C   UNL     1     -11.128  11.536  69.678  1.00  0.00    -0.143 C  
ENDBRANCH   5   6
ENDBRANCH   4   5
ENDBRANCH   2   4
BRANCH   2  20
HETATM   20  C   UNL     1      -9.653   9.870  65.624  1.00  0.00    -0.256 C  
BRANCH  20  21
HETATM   21  O   UNL     1     -10.554  10.828  66.142  1.00  0.00    -0.239 OA 
BRANCH  21  22
HETATM   22  C   UNL     1     -10.890  11.923  65.378  1.00  0.00    -0.294 A  
HETATM   23  C   UNL     1      -9.612  15.384  66.573  1.00  0.00    -0.298 C  
HETATM   24  C   UNL     1      -9.576  13.930  66.406  1.00  0.00    -0.277 C  
HETATM   25  C   UNL     1     -10.581  13.299  65.498  1.00  0.00    -0.295 A  
HETATM   26  C   UNL     1     -11.243  14.212  64.644  1.00  0.00    -0.368 A  
HETATM   27  C   UNL     1     -10.332  16.115  65.724  1.00  0.00    -0.378 C  
HETATM   28  C   UNL     1     -12.107  13.777  63.633  1.00  0.00    -0.330 A  
HETATM   29  O   UNL     1     -11.107  15.586  64.714  1.00  0.00    -0.426 OA 
HETATM   30  C   UNL     1     -12.345  12.422  63.466  1.00  0.00    -0.648 A  
HETATM   31  C   UNL     1     -10.222  17.592  65.852  1.00  0.00    -0.232 C  
HETATM   32  O   UNL     1     -10.977  18.241  64.939  1.00  0.00    -0.660 OA 
HETATM   33  C   UNL     1     -11.761  11.513  64.345  1.00  0.00    -0.131 A  
HETATM   34  O   UNL     1      -8.653  13.354  66.961  1.00  0.00    -0.208 OA 
HETATM   35  O   UNL     1      -9.528  18.167  66.673  1.00  0.00    -0.284 OA 
ENDBRANCH  21  22
ENDBRANCH  20  21
ENDBRANCH   2  20
TORSDOF 6
ENDMDL
MODEL       16
REMARK 921   NORMALIZED FREE ENERGY PREDICTED BY IDOCK:   -7.95 KCAL/MOL
REMARK 922        TOTAL FREE ENERGY PREDICTED BY IDOCK:  -12.03 KCAL/MOL
REMARK 923 INTER-LIGAND FREE ENERGY PREDICTED BY IDOCK:  -11.31 KCAL/MOL
REMARK 924 INTRA-LIGAND FREE ENERGY PREDICTED BY IDOCK:   -0.72 KCAL/MOL
REMARK 927      BINDING AFFINITY PREDICTED BY RF-SCORE:    0.00 PKD
ROOT
HETATM    1  O   UNL     1     -12.089  15.261  63.991  1.00  0.00    -0.901 OA 
HETATM    2  C   UNL     1     -11.276  14.664  65.021  1.00  0.00    -0.386 C  
HETATM    3  H   UNL     1     -12.338  14.574  63.384  1.00  0.00     0.000 HD 
ENDROOT
BRANCH   2   4
HETATM    4  C   UNL     1     -12.081  13.556  65.699  1.00  0.00    -0.430 C  
BRANCH   4   5
HETATM    5  O   UNL     1     -11.351  13.065  66.831  1.00  0.00    -0.284 OA 
BRANCH   5   6
HETATM    6  C   UNL     1     -10.926  11.766  66.811  1.00  0.00    -0.288 A  
HETATM    7  O   UNL     1     -12.016   8.697  72.436  1.00  0.00    -0.375 OA 
HETATM    8  O   UNL     1     -10.825   7.245  71.178  1.00  0.00    -0.238 OA 
HETATM    9  C   UNL     1     -10.374  11.158  65.673  1.00  0.00    -0.311 A  
HETATM   10  C   UNL     1      -9.906   9.845  65.710  1.00  0.00    -0.356 A  
HETATM   11  C   UNL     1     -11.419   8.438  71.407  1.00  0.00    -0.277 C  
HETATM   12  C   UNL     1      -9.982   9.117  66.890  1.00  0.00    -0.304 A  
HETATM   13  O   UNL     1     -10.606   8.889  69.136  1.00  0.00    -0.227 OA 
HETATM   14  C   UNL     1     -11.261   9.364  70.253  1.00  0.00    -0.246 C  
HETATM   15  C   UNL     1     -10.545   9.697  68.026  1.00  0.00    -0.243 A  
HETATM   16  C   UNL     1     -11.769  10.596  70.367  1.00  0.00    -0.446 C  
HETATM   17  C   UNL     1     -11.018  11.017  68.001  1.00  0.00    -0.312 A  
HETATM   18  O   UNL     1     -12.071  12.676  69.385  1.00  0.00    -0.264 OA 
HETATM   19  C   UNL     1     -11.641  11.542  69.245  1.00  0.00    -0.322 C  
ENDBRANCH   5   6
ENDBRANCH   4   5
ENDBRANCH   2   4
BRANCH   2  20
HETATM   20  C   UNL     1     -10.874  15.773  66.000  1.00  0.00    -0.255 C  
BRANCH  20  21
HETATM   21  O   UNL     1      -9.820  16.597  65.548  1.00  0.00    -0.549 OA 
BRANCH  21  22
HETATM   22  C   UNL     1      -9.523  17.752  66.235  1.00  0.00    -0.217 A  
HETATM   23  C   UNL     1      -6.660  17.582  68.846  1.00  0.00    -0.226 C  
HETATM   24  C   UNL     1      -7.380  17.215  67.625  1.00  0.00    -0.164 C  
HETATM   25  C   UNL     1      -8.548  18.053  67.217  1.00  0.00    -0.240 A  
HETATM   26  C   UNL     1      -8.622  19.303  67.875  1.00  0.00    -0.312 A  
HETATM   27  C   UNL     1      -6.879  18.777  69.392  1.00  0.00    -0.189 C  
HETATM   28  C   UNL     1      -9.566  20.269  67.511  1.00  0.00    -0.562 A  
HETATM   29  O   UNL     1      -7.795  19.689  68.913  1.00  0.00    -0.339 OA 
HETATM   30  C   UNL     1     -10.469  20.002  66.494  1.00  0.00    -0.525 A  
HETATM   31  C   UNL     1      -6.022  19.153  70.547  1.00  0.00    -0.092 C  
HETATM   32  O   UNL     1      -6.312  20.385  71.018  1.00  0.00    -0.559 OA 
HETATM   33  C   UNL     1     -10.459  18.750  65.885  1.00  0.00    -0.424 A  
HETATM   34  O   UNL     1      -6.902  16.294  66.982  1.00  0.00    -0.192 OA 
HETATM   35  O   UNL     1      -5.146  18.447  71.020  1.00  0.00    -0.258 OA 
ENDBRANCH  21  22
ENDBRANCH  20  21
ENDBRANCH   2  20
TORSDOF 6
ENDMDL
MODEL       17
REMARK 921   NORMALIZED FREE ENERGY PREDICTED BY IDOCK:   -7.91 KCAL/MOL
REMARK 922        TOTAL FREE ENERGY PREDICTED BY IDOCK:  -11.98 KCAL/MOL
REMARK 923 INTER-LIGAND FREE ENERGY PREDICTED BY IDOCK:   -9.73 KCAL/MOL
REMARK 924 INTRA-LIGAND FREE ENERGY PREDICTED BY IDOCK:   -2.25 KCAL/MOL
REMARK 927      BINDING AFFINITY PREDICTED BY RF-SCORE:    0.00 PKD
ROOT
HETATM    1  O   UNL     1     -11.460   8.042  72.961  1.00  0.00    -0.488 OA 
HETATM    2  C   UNL     1     -12.732   7.922  72.295  1.00  0.00    -0.158 C  
HETATM    3  H   UNL     1     -11.128   7.165  73.111  1.00  0.00     0.000 HD 
ENDROOT
BRANCH   2   4
HETATM    4  C   UNL     1     -12.532   7.147  70.993  1.00  0.00    -0.316 C  
BRANCH   4   5
HETATM    5  O   UNL     1     -11.136   7.116  70.670  1.00  0.00    -0.249 OA 
BRANCH   5   6
HETATM    6  C   UNL     1     -10.769   7.303  69.366  1.00  0.00    -0.225 A  
HETATM    7  O   UNL     1      -6.447  12.103  68.650  1.00  0.00    -0.062 OA 
HETATM    8  O   UNL     1      -6.993  11.466  66.551  1.00  0.00    -0.130 OA 
HETATM    9  C   UNL     1     -11.237   6.496  68.317  1.00  0.00    -0.259 A  
HETATM   10  C   UNL     1     -10.878   6.754  66.994  1.00  0.00    -0.453 A  
HETATM   11  C   UNL     1      -7.102  11.406  67.898  1.00  0.00    -0.075 C  
HETATM   12  C   UNL     1     -10.045   7.823  66.698  1.00  0.00    -0.294 A  
HETATM   13  O   UNL     1      -8.711   9.639  67.343  1.00  0.00    -0.128 OA 
HETATM   14  C   UNL     1      -8.098  10.387  68.326  1.00  0.00    -0.113 C  
HETATM   15  C   UNL     1      -9.554   8.624  67.729  1.00  0.00    -0.148 A  
HETATM   16  C   UNL     1      -8.333  10.255  69.637  1.00  0.00    -0.139 C  
HETATM   17  C   UNL     1      -9.908   8.376  69.063  1.00  0.00    -0.184 A  
HETATM   18  O   UNL     1      -9.541   9.179  71.299  1.00  0.00    -0.275 OA 
HETATM   19  C   UNL     1      -9.307   9.253  70.103  1.00  0.00    -0.228 C  
ENDBRANCH   5   6
ENDBRANCH   4   5
ENDBRANCH   2   4
BRANCH   2  20
HETATM   20  C   UNL     1     -13.268   9.337  72.052  1.00  0.00    -0.447 C  
BRANCH  20  21
HETATM   21  O   UNL     1     -12.669  10.009  70.962  1.00  0.00    -0.331 OA 
BRANCH  21  22
HETATM   22  C   UNL     1     -12.733  11.382  70.897  1.00  0.00    -0.303 A  
HETATM   23  C   UNL     1     -11.045  13.099  67.856  1.00  0.00    -0.288 C  
HETATM   24  C   UNL     1     -11.737  12.025  68.571  1.00  0.00    -0.332 C  
HETATM   25  C   UNL     1     -12.261  12.314  69.940  1.00  0.00    -0.234 A  
HETATM   26  C   UNL     1     -12.321  13.691  70.259  1.00  0.00    -0.322 A  
HETATM   27  C   UNL     1     -11.142  14.346  68.311  1.00  0.00    -0.259 C  
HETATM   28  C   UNL     1     -12.918  14.145  71.440  1.00  0.00    -0.422 A  
HETATM   29  O   UNL     1     -11.813  14.699  69.462  1.00  0.00    -0.295 OA 
HETATM   30  C   UNL     1     -13.452  13.234  72.338  1.00  0.00    -0.670 A  
HETATM   31  C   UNL     1     -10.538  15.414  67.471  1.00  0.00    -0.283 C  
HETATM   32  O   UNL     1     -10.701  16.641  68.011  1.00  0.00    -0.330 OA 
HETATM   33  C   UNL     1     -13.336  11.871  72.076  1.00  0.00    -0.425 A  
HETATM   34  O   UNL     1     -11.913  10.993  67.941  1.00  0.00    -0.620 OA 
HETATM   35  O   UNL     1      -9.966  15.222  66.411  1.00  0.00    -0.250 OA 
ENDBRANCH  21  22
ENDBRANCH  20  21
ENDBRANCH   2  20
TORSDOF 6
ENDMDL
MODEL       18
REMARK 921   NORMALIZED FREE ENERGY PREDICTED BY IDOCK:   -7.90 KCAL/MOL
REMARK 922        TOTAL FREE ENERGY PREDICTED BY IDOCK:  -11.97 KCAL/MOL
REMARK 923 INTER-LIGAND FREE ENERGY PREDICTED BY IDOCK:  -11.43 KCAL/MOL
REMARK 924 INTRA-LIGAND FREE ENERGY PREDICTED BY IDOCK:   -0.53 KCAL/MOL
REMARK 927      BINDING AFFINITY PREDICTED BY RF-SCORE:    0.00 PKD
ROOT
HETATM    1  O   UNL     1     -10.470  18.273  68.034  1.00  0.00    -0.381 OA 
HETATM    2  C   UNL     1     -10.503  16.856  68.291  1.00  0.00    -0.352 C  
HETATM    3  H   UNL     1     -11.261  18.500  67.559  1.00  0.00     0.000 HD 
ENDROOT
BRANCH   2   4
HETATM    4  C   UNL     1     -11.769  16.532  69.085  1.00  0.00     0.130 C  
BRANCH   4   5
HETATM    5  O   UNL     1     -11.869  15.113  69.258  1.00  0.00    -0.304 OA 
BRANCH   5   6
HETATM    6  C   UNL     1     -12.533  14.640  70.357  1.00  0.00    -0.352 A  
HETATM    7  O   UNL     1     -11.722   8.248  71.206  1.00  0.00    -0.275 OA 
HETATM    8  O   UNL     1     -13.236   8.876  72.764  1.00  0.00    -0.389 OA 
HETATM    9  C   UNL     1     -13.253  15.470  71.230  1.00  0.00    -0.588 A  
HETATM   10  C   UNL     1     -13.958  14.940  72.311  1.00  0.00    -0.602 A  
HETATM   11  C   UNL     1     -12.415   9.111  71.715  1.00  0.00    -0.372 C  
HETATM   12  C   UNL     1     -13.954  13.571  72.535  1.00  0.00    -0.557 A  
HETATM   13  O   UNL     1     -13.257  11.396  72.010  1.00  0.00    -0.503 OA 
HETATM   14  C   UNL     1     -12.461  10.534  71.285  1.00  0.00    -0.419 C  
HETATM   15  C   UNL     1     -13.227  12.732  71.690  1.00  0.00    -0.317 A  
HETATM   16  C   UNL     1     -11.723  10.892  70.227  1.00  0.00    -0.437 C  
HETATM   17  C   UNL     1     -12.516  13.253  70.600  1.00  0.00    -0.373 A  
HETATM   18  O   UNL     1     -11.091  12.591  68.780  1.00  0.00    -0.245 OA 
HETATM   19  C   UNL     1     -11.735  12.294  69.774  1.00  0.00    -0.298 C  
ENDBRANCH   5   6
ENDBRANCH   4   5
ENDBRANCH   2   4
BRANCH   2  20
HETATM   20  C   UNL     1      -9.228  16.490  69.058  1.00  0.00    -0.237 C  
BRANCH  20  21
HETATM   21  O   UNL     1      -8.189  15.974  68.250  1.00  0.00    -0.152 OA 
BRANCH  21  22
HETATM   22  C   UNL     1      -8.376  14.781  67.590  1.00  0.00    -0.170 A  
HETATM   23  C   UNL     1     -11.007  14.720  64.740  1.00  0.00    -0.393 C  
HETATM   24  C   UNL     1      -9.992  15.316  65.611  1.00  0.00    -0.364 C  
HETATM   25  C   UNL     1      -9.213  14.411  66.509  1.00  0.00    -0.269 A  
HETATM   26  C   UNL     1      -9.314  13.040  66.177  1.00  0.00    -0.080 A  
HETATM   27  C   UNL     1     -11.017  13.399  64.569  1.00  0.00    -0.390 C  
HETATM   28  C   UNL     1      -8.538  12.070  66.823  1.00  0.00    -0.177 A  
HETATM   29  O   UNL     1     -10.161  12.531  65.211  1.00  0.00    -0.278 OA 
HETATM   30  C   UNL     1      -7.660  12.445  67.826  1.00  0.00    -0.134 A  
HETATM   31  C   UNL     1     -11.976  12.861  63.569  1.00  0.00    -0.556 C  
HETATM   32  O   UNL     1     -11.899  11.517  63.460  1.00  0.00    -0.364 OA 
HETATM   33  C   UNL     1      -7.602  13.781  68.217  1.00  0.00    -0.129 A  
HETATM   34  O   UNL     1      -9.798  16.513  65.461  1.00  0.00    -0.537 OA 
HETATM   35  O   UNL     1     -12.743  13.541  62.908  1.00  0.00    -0.569 OA 
ENDBRANCH  21  22
ENDBRANCH  20  21
ENDBRANCH   2  20
TORSDOF 6
ENDMDL
MODEL       19
REMARK 921   NORMALIZED FREE ENERGY PREDICTED BY IDOCK:   -7.90 KCAL/MOL
REMARK 922        TOTAL FREE ENERGY PREDICTED BY IDOCK:  -11.97 KCAL/MOL
REMARK 923 INTER-LIGAND FREE ENERGY PREDICTED BY IDOCK:  -10.38 KCAL/MOL
REMARK 924 INTRA-LIGAND FREE ENERGY PREDICTED BY IDOCK:   -1.59 KCAL/MOL
REMARK 927      BINDING AFFINITY PREDICTED BY RF-SCORE:    0.00 PKD
ROOT
HETATM    1  O   UNL     1     -13.787   9.125  73.080  1.00  0.00    -1.065 OA 
HETATM    2  C   UNL     1     -13.028   9.357  71.878  1.00  0.00    -0.417 C  
HETATM    3  H   UNL     1     -13.633   8.226  73.350  1.00  0.00     0.000 HD 
ENDROOT
BRANCH   2   4
HETATM    4  C   UNL     1     -11.552   9.085  72.170  1.00  0.00    -0.278 C  
BRANCH   4   5
HETATM    5  O   UNL     1     -11.056   8.118  71.235  1.00  0.00    -0.239 OA 
BRANCH   5   6
HETATM    6  C   UNL     1     -10.214   8.548  70.246  1.00  0.00    -0.193 A  
HETATM    7  O   UNL     1      -9.870   4.380  65.272  1.00  0.00    -0.184 OA 
HETATM    8  O   UNL     1      -8.327   5.973  64.831  1.00  0.00    -0.139 OA 
HETATM    9  C   UNL     1      -9.553   9.786  70.289  1.00  0.00    -0.264 A  
HETATM   10  C   UNL     1      -8.663  10.163  69.284  1.00  0.00    -0.186 A  
HETATM   11  C   UNL     1      -9.280   5.394  65.598  1.00  0.00    -0.114 C  
HETATM   12  C   UNL     1      -8.419   9.308  68.219  1.00  0.00    -0.120 A  
HETATM   13  O   UNL     1      -8.799   7.318  67.042  1.00  0.00    -0.123 OA 
HETATM   14  C   UNL     1      -9.513   6.153  66.856  1.00  0.00    -0.136 C  
HETATM   15  C   UNL     1      -9.081   8.082  68.149  1.00  0.00    -0.134 A  
HETATM   16  C   UNL     1     -10.404   5.662  67.725  1.00  0.00    -0.260 C  
HETATM   17  C   UNL     1      -9.977   7.691  69.154  1.00  0.00    -0.181 A  
HETATM   18  O   UNL     1     -11.454   5.900  69.780  1.00  0.00    -0.307 OA 
HETATM   19  C   UNL     1     -10.671   6.387  68.979  1.00  0.00    -0.286 C  
ENDBRANCH   5   6
ENDBRANCH   4   5
ENDBRANCH   2   4
BRANCH   2  20
HETATM   20  C   UNL     1     -13.275  10.806  71.443  1.00  0.00    -0.287 C  
BRANCH  20  21
HETATM   21  O   UNL     1     -12.099  11.555  71.211  1.00  0.00    -0.186 OA 
BRANCH  21  22
HETATM   22  C   UNL     1     -12.168  12.706  70.459  1.00  0.00    -0.299 A  
HETATM   23  C   UNL     1     -11.166  12.449  66.721  1.00  0.00    -0.363 C  
HETATM   24  C   UNL     1     -11.694  11.970  68.000  1.00  0.00    -0.331 C  
HETATM   25  C   UNL     1     -11.908  12.967  69.092  1.00  0.00    -0.360 A  
HETATM   26  C   UNL     1     -11.889  14.314  68.658  1.00  0.00    -0.344 A  
HETATM   27  C   UNL     1     -11.155  13.757  66.475  1.00  0.00    -0.306 C  
HETATM   28  C   UNL     1     -12.215  15.367  69.520  1.00  0.00    -0.277 A  
HETATM   29  O   UNL     1     -11.560  14.716  67.378  1.00  0.00    -0.363 OA 
HETATM   30  C   UNL     1     -12.548  15.101  70.839  1.00  0.00    -0.441 A  
HETATM   31  C   UNL     1     -10.739  14.179  65.111  1.00  0.00    -0.388 C  
HETATM   32  O   UNL     1     -10.776  15.520  64.958  1.00  0.00    -0.413 OA 
HETATM   33  C   UNL     1     -12.499  13.789  71.303  1.00  0.00    -0.428 A  
HETATM   34  O   UNL     1     -12.008  10.790  68.038  1.00  0.00    -0.537 OA 
HETATM   35  O   UNL     1     -10.411  13.414  64.218  1.00  0.00    -0.429 OA 
ENDBRANCH  21  22
ENDBRANCH  20  21
ENDBRANCH   2  20
TORSDOF 6
ENDMDL
MODEL       20
REMARK 921   NORMALIZED FREE ENERGY PREDICTED BY IDOCK:   -7.89 KCAL/MOL
REMARK 922        TOTAL FREE ENERGY PREDICTED BY IDOCK:  -11.96 KCAL/MOL
REMARK 923 INTER-LIGAND FREE ENERGY PREDICTED BY IDOCK:  -10.64 KCAL/MOL
REMARK 924 INTRA-LIGAND FREE ENERGY PREDICTED BY IDOCK:   -1.32 KCAL/MOL
REMARK 927      BINDING AFFINITY PREDICTED BY RF-SCORE:    0.00 PKD
ROOT
HETATM    1  O   UNL     1     -10.241  13.671  64.237  1.00  0.00    -0.678 OA 
HETATM    2  C   UNL     1     -10.894  12.553  64.870  1.00  0.00    -0.293 C  
HETATM    3  H   UNL     1     -10.885  14.118  63.701  1.00  0.00     0.000 HD 
ENDROOT
BRANCH   2   4
HETATM    4  C   UNL     1     -12.070  13.077  65.695  1.00  0.00    -0.454 C  
BRANCH   4   5
HETATM    5  O   UNL     1     -11.903  14.483  65.917  1.00  0.00    -0.369 OA 
BRANCH   5   6
HETATM    6  C   UNL     1     -11.514  14.899  67.161  1.00  0.00    -0.335 A  
HETATM    7  O   UNL     1      -7.982  20.351  66.979  1.00  0.00    -0.321 OA 
HETATM    8  O   UNL     1      -7.938  19.676  69.137  1.00  0.00    -0.313 OA 
HETATM    9  C   UNL     1     -11.898  14.244  68.341  1.00  0.00    -0.373 A  
HETATM   10  C   UNL     1     -11.437  14.671  69.586  1.00  0.00    -0.329 A  
HETATM   11  C   UNL     1      -8.285  19.541  67.836  1.00  0.00    -0.310 C  
HETATM   12  C   UNL     1     -10.584  15.762  69.671  1.00  0.00    -0.295 A  
HETATM   13  O   UNL     1      -9.386  17.525  68.697  1.00  0.00    -0.280 OA 
HETATM   14  C   UNL     1      -9.079  18.305  67.602  1.00  0.00    -0.263 C  
HETATM   15  C   UNL     1     -10.207  16.438  68.511  1.00  0.00    -0.257 A  
HETATM   16  C   UNL     1      -9.452  18.030  66.347  1.00  0.00    -0.280 C  
HETATM   17  C   UNL     1     -10.663  16.018  67.253  1.00  0.00    -0.295 A  
HETATM   18  O   UNL     1     -10.538  16.563  64.915  1.00  0.00    -0.689 OA 
HETATM   19  C   UNL     1     -10.246  16.820  66.073  1.00  0.00    -0.346 C  
ENDBRANCH   5   6
ENDBRANCH   4   5
ENDBRANCH   2   4
BRANCH   2  20
HETATM   20  C   UNL     1      -9.854  11.832  65.734  1.00  0.00    -0.240 C  
BRANCH  20  21
HETATM   21  O   UNL     1     -10.312  11.475  67.023  1.00  0.00    -0.209 OA 
BRANCH  21  22
HETATM   22  C   UNL     1     -10.373  10.146  67.374  1.00  0.00    -0.238 A  
HETATM   23  C   UNL     1     -11.147   9.321  71.084  1.00  0.00    -0.411 C  
HETATM   24  C   UNL     1     -11.197  10.108  69.850  1.00  0.00    -0.287 C  
HETATM   25  C   UNL     1     -10.652   9.497  68.601  1.00  0.00    -0.239 A  
HETATM   26  C   UNL     1     -10.450   8.099  68.681  1.00  0.00    -0.165 A  
HETATM   27  C   UNL     1     -10.884   8.018  71.009  1.00  0.00    -0.235 C  
HETATM   28  C   UNL     1     -10.082   7.345  67.560  1.00  0.00    -0.250 A  
HETATM   29  O   UNL     1     -10.593   7.355  69.836  1.00  0.00    -0.226 OA 
HETATM   30  C   UNL     1      -9.888   7.973  66.341  1.00  0.00    -0.237 A  
HETATM   31  C   UNL     1     -10.983   7.241  72.273  1.00  0.00    -0.249 C  
HETATM   32  O   UNL     1     -10.712   5.931  72.089  1.00  0.00    -0.213 OA 
HETATM   33  C   UNL     1     -10.009   9.358  66.260  1.00  0.00    -0.353 A  
HETATM   34  O   UNL     1     -11.775  11.181  69.927  1.00  0.00    -0.292 OA 
HETATM   35  O   UNL     1     -11.283   7.715  73.357  1.00  0.00    -0.314 OA 
ENDBRANCH  21  22
ENDBRANCH  20  21
ENDBRANCH   2  20
TORSDOF 6
ENDMDL
MODEL       21
REMARK 921   NORMALIZED FREE ENERGY PREDICTED BY IDOCK:   -7.89 KCAL/MOL
REMARK 922        TOTAL FREE ENERGY PREDICTED BY IDOCK:  -11.95 KCAL/MOL
REMARK 923 INTER-LIGAND FREE ENERGY PREDICTED BY IDOCK:  -10.38 KCAL/MOL
REMARK 924 INTRA-LIGAND FREE ENERGY PREDICTED BY IDOCK:   -1.57 KCAL/MOL
REMARK 927      BINDING AFFINITY PREDICTED BY RF-SCORE:    0.00 PKD
ROOT
HETATM    1  O   UNL     1      -8.927  10.665  68.297  1.00  0.00    -0.133 OA 
HETATM    2  C   UNL     1     -10.176  10.028  67.965  1.00  0.00    -0.181 C  
HETATM    3  H   UNL     1      -8.227  10.142  67.924  1.00  0.00     0.000 HD 
ENDROOT
BRANCH   2   4
HETATM    4  C   UNL     1     -10.281   9.920  66.444  1.00  0.00    -0.222 C  
BRANCH   4   5
HETATM    5  O   UNL     1      -9.671  11.070  65.844  1.00  0.00    -0.206 OA 
BRANCH   5   6
HETATM    6  C   UNL     1     -10.462  11.920  65.122  1.00  0.00    -0.287 A  
HETATM    7  O   UNL     1      -9.353  18.168  66.528  1.00  0.00    -0.289 OA 
HETATM    8  O   UNL     1     -11.130  18.171  65.130  1.00  0.00    -0.540 OA 
HETATM    9  C   UNL     1     -11.365  11.478  64.143  1.00  0.00    -0.349 A  
HETATM   10  C   UNL     1     -12.191  12.374  63.465  1.00  0.00    -0.661 A  
HETATM   11  C   UNL     1     -10.174  17.559  65.866  1.00  0.00    -0.242 C  
HETATM   12  C   UNL     1     -12.127  13.730  63.756  1.00  0.00    -0.385 A  
HETATM   13  O   UNL     1     -11.208  15.551  64.908  1.00  0.00    -0.405 OA 
HETATM   14  C   UNL     1     -10.251  16.078  65.751  1.00  0.00    -0.377 C  
HETATM   15  C   UNL     1     -11.222  14.191  64.712  1.00  0.00    -0.378 A  
HETATM   16  C   UNL     1      -9.385  15.349  66.465  1.00  0.00    -0.311 C  
HETATM   17  C   UNL     1     -10.387  13.299  65.401  1.00  0.00    -0.316 A  
HETATM   18  O   UNL     1      -8.655  13.231  67.066  1.00  0.00    -0.208 OA 
HETATM   19  C   UNL     1      -9.423  13.880  66.372  1.00  0.00    -0.250 C  
ENDBRANCH   5   6
ENDBRANCH   4   5
ENDBRANCH   2   4
BRANCH   2  20
HETATM   20  C   UNL     1     -11.306  10.872  68.566  1.00  0.00    -0.299 C  
BRANCH  20  21
HETATM   21  O   UNL     1     -11.120  11.213  69.925  1.00  0.00    -0.243 OA 
BRANCH  21  22
HETATM   22  C   UNL     1     -11.568  10.356  70.904  1.00  0.00    -0.337 A  
HETATM   23  C   UNL     1      -9.186   7.493  71.986  1.00  0.00    -0.163 C  
HETATM   24  C   UNL     1      -9.537   8.822  71.481  1.00  0.00    -0.284 C  
HETATM   25  C   UNL     1     -10.968   9.244  71.544  1.00  0.00    -0.446 A  
HETATM   26  C   UNL     1     -11.772   8.444  72.390  1.00  0.00    -0.382 A  
HETATM   27  C   UNL     1     -10.072   6.826  72.723  1.00  0.00    -0.178 C  
HETATM   28  C   UNL     1     -13.099   8.783  72.677  1.00  0.00    -0.315 A  
HETATM   29  O   UNL     1     -11.343   7.282  73.002  1.00  0.00    -0.285 OA 
HETATM   30  C   UNL     1     -13.658   9.917  72.112  1.00  0.00    -0.392 A  
HETATM   31  C   UNL     1      -9.615   5.546  73.326  1.00  0.00    -0.146 C  
HETATM   32  O   UNL     1     -10.580   4.957  74.064  1.00  0.00    -0.255 OA 
HETATM   33  C   UNL     1     -12.907  10.676  71.218  1.00  0.00    -0.535 A  
HETATM   34  O   UNL     1      -8.600   9.521  71.129  1.00  0.00    -0.269 OA 
HETATM   35  O   UNL     1      -8.498   5.075  73.188  1.00  0.00    -0.110 OA 
ENDBRANCH  21  22
ENDBRANCH  20  21
ENDBRANCH   2  20
TORSDOF 6
ENDMDL
MODEL       22
REMARK 921   NORMALIZED FREE ENERGY PREDICTED BY IDOCK:   -7.88 KCAL/MOL
REMARK 922        TOTAL FREE ENERGY PREDICTED BY IDOCK:  -11.93 KCAL/MOL
REMARK 923 INTER-LIGAND FREE ENERGY PREDICTED BY IDOCK:  -10.34 KCAL/MOL
REMARK 924 INTRA-LIGAND FREE ENERGY PREDICTED BY IDOCK:   -1.59 KCAL/MOL
REMARK 927      BINDING AFFINITY PREDICTED BY RF-SCORE:    0.00 PKD
ROOT
HETATM    1  O   UNL     1     -13.533  10.018  70.203  1.00  0.00    -0.437 OA 
HETATM    2  C   UNL     1     -13.120  10.329  71.549  1.00  0.00    -0.433 C  
HETATM    3  H   UNL     1     -14.149  10.687  69.928  1.00  0.00     0.000 HD 
ENDROOT
BRANCH   2   4
HETATM    4  C   UNL     1     -12.501  11.726  71.561  1.00  0.00    -0.103 C  
BRANCH   4   5
HETATM    5  O   UNL     1     -11.922  11.999  70.278  1.00  0.00    -0.344 OA 
BRANCH   5   6
HETATM    6  C   UNL     1     -11.873  13.298  69.854  1.00  0.00    -0.310 A  
HETATM    7  O   UNL     1     -12.390  13.838  63.398  1.00  0.00    -0.750 OA 
HETATM    8  O   UNL     1     -11.954  15.928  64.145  1.00  0.00    -0.577 OA 
HETATM    9  C   UNL     1     -11.784  14.388  70.734  1.00  0.00    -0.296 A  
HETATM   10  C   UNL     1     -11.685  15.694  70.258  1.00  0.00    -0.375 A  
HETATM   11  C   UNL     1     -12.141  14.599  64.316  1.00  0.00    -0.415 C  
HETATM   12  C   UNL     1     -11.672  15.933  68.891  1.00  0.00    -0.376 A  
HETATM   13  O   UNL     1     -11.791  15.203  66.668  1.00  0.00    -0.151 OA 
HETATM   14  C   UNL     1     -12.018  14.203  65.744  1.00  0.00    -0.402 C  
HETATM   15  C   UNL     1     -11.779  14.865  68.000  1.00  0.00    -0.320 A  
HETATM   16  C   UNL     1     -12.140  12.906  66.046  1.00  0.00    -0.484 C  
HETATM   17  C   UNL     1     -11.879  13.547  68.467  1.00  0.00    -0.398 A  
HETATM   18  O   UNL     1     -12.102  11.280  67.700  1.00  0.00    -0.600 OA 
HETATM   19  C   UNL     1     -12.032  12.473  67.450  1.00  0.00    -0.213 C  
ENDBRANCH   5   6
ENDBRANCH   4   5
ENDBRANCH   2   4
BRANCH   2  20
HETATM   20  C   UNL     1     -12.126   9.250  71.993  1.00  0.00    -0.336 C  
BRANCH  20  21
HETATM   21  O   UNL     1     -10.878   9.298  71.331  1.00  0.00    -0.314 OA 
BRANCH  21  22
HETATM   22  C   UNL     1     -10.653   8.474  70.252  1.00  0.00    -0.226 A  
HETATM   23  C   UNL     1      -8.656   9.951  67.273  1.00  0.00    -0.125 C  
HETATM   24  C   UNL     1      -9.050   9.799  68.675  1.00  0.00    -0.130 C  
HETATM   25  C   UNL     1      -9.958   8.668  69.034  1.00  0.00    -0.197 A  
HETATM   26  C   UNL     1     -10.069   7.675  68.033  1.00  0.00    -0.187 A  
HETATM   27  C   UNL     1      -8.881   8.948  66.426  1.00  0.00    -0.152 C  
HETATM   28  C   UNL     1     -10.761   6.479  68.259  1.00  0.00    -0.341 A  
HETATM   29  O   UNL     1      -9.521   7.776  66.768  1.00  0.00    -0.172 OA 
HETATM   30  C   UNL     1     -11.374   6.258  69.482  1.00  0.00    -0.475 A  
HETATM   31  C   UNL     1      -8.337   9.099  65.050  1.00  0.00    -0.158 C  
HETATM   32  O   UNL     1      -8.605   8.026  64.276  1.00  0.00     0.028 OA 
HETATM   33  C   UNL     1     -11.339   7.256  70.453  1.00  0.00    -0.299 A  
HETATM   34  O   UNL     1      -8.520  10.567  69.463  1.00  0.00    -0.137 OA 
HETATM   35  O   UNL     1      -7.711  10.068  64.655  1.00  0.00    -0.138 OA 
ENDBRANCH  21  22
ENDBRANCH  20  21
ENDBRANCH   2  20
TORSDOF 6
ENDMDL
MODEL       23
REMARK 921   NORMALIZED FREE ENERGY PREDICTED BY IDOCK:   -7.86 KCAL/MOL
REMARK 922        TOTAL FREE ENERGY PREDICTED BY IDOCK:  -11.92 KCAL/MOL
REMARK 923 INTER-LIGAND FREE ENERGY PREDICTED BY IDOCK:  -11.08 KCAL/MOL
REMARK 924 INTRA-LIGAND FREE ENERGY PREDICTED BY IDOCK:   -0.84 KCAL/MOL
REMARK 927      BINDING AFFINITY PREDICTED BY RF-SCORE:    0.00 PKD
ROOT
HETATM    1  O   UNL     1     -12.534  14.037  63.356  1.00  0.00    -1.108 OA 
HETATM    2  C   UNL     1     -11.448  13.260  63.898  1.00  0.00    -0.362 C  
HETATM    3  H   UNL     1     -13.082  13.452  62.846  1.00  0.00     0.000 HD 
ENDROOT
BRANCH   2   4
HETATM    4  C   UNL     1     -12.031  12.127  64.743  1.00  0.00    -0.307 C  
BRANCH   4   5
HETATM    5  O   UNL     1     -11.298  12.027  65.971  1.00  0.00    -0.329 OA 
BRANCH   5   6
HETATM    6  C   UNL     1     -10.666  10.848  66.253  1.00  0.00    -0.176 A  
HETATM    7  O   UNL     1     -11.907   8.723  72.268  1.00  0.00    -0.360 OA 
HETATM    8  O   UNL     1     -10.350   7.309  71.438  1.00  0.00    -0.200 OA 
HETATM    9  C   UNL     1      -9.888  10.154  65.313  1.00  0.00    -0.388 A  
HETATM   10  C   UNL     1      -9.218   8.980  65.657  1.00  0.00    -0.288 A  
HETATM   11  C   UNL     1     -11.156   8.393  71.368  1.00  0.00    -0.255 C  
HETATM   12  C   UNL     1      -9.315   8.481  66.948  1.00  0.00    -0.219 A  
HETATM   13  O   UNL     1     -10.159   8.560  69.132  1.00  0.00    -0.192 OA 
HETATM   14  C   UNL     1     -11.014   9.103  70.069  1.00  0.00    -0.220 C  
HETATM   15  C   UNL     1     -10.098   9.147  67.891  1.00  0.00    -0.199 A  
HETATM   16  C   UNL     1     -11.728  10.220  69.886  1.00  0.00    -0.298 C  
HETATM   17  C   UNL     1     -10.776  10.328  67.557  1.00  0.00    -0.348 A  
HETATM   18  O   UNL     1     -12.248  11.990  68.479  1.00  0.00    -0.340 OA 
HETATM   19  C   UNL     1     -11.623  10.949  68.610  1.00  0.00    -0.303 C  
ENDBRANCH   5   6
ENDBRANCH   4   5
ENDBRANCH   2   4
BRANCH   2  20
HETATM   20  C   UNL     1     -10.564  14.203  64.722  1.00  0.00    -0.418 C  
BRANCH  20  21
HETATM   21  O   UNL     1     -11.278  15.099  65.549  1.00  0.00    -0.345 OA 
BRANCH  21  22
HETATM   22  C   UNL     1     -10.675  15.604  66.678  1.00  0.00    -0.296 A  
HETATM   23  C   UNL     1      -9.045  19.113  66.406  1.00  0.00    -0.362 C  
HETATM   24  C   UNL     1     -10.006  18.056  66.084  1.00  0.00    -0.285 C  
HETATM   25  C   UNL     1     -10.021  16.832  66.941  1.00  0.00    -0.274 A  
HETATM   26  C   UNL     1      -9.331  16.975  68.167  1.00  0.00    -0.254 A  
HETATM   27  C   UNL     1      -8.422  19.084  67.582  1.00  0.00    -0.288 C  
HETATM   28  C   UNL     1      -9.366  15.979  69.150  1.00  0.00    -0.251 A  
HETATM   29  O   UNL     1      -8.575  18.079  68.513  1.00  0.00    -0.297 OA 
HETATM   30  C   UNL     1     -10.074  14.810  68.921  1.00  0.00    -0.237 A  
HETATM   31  C   UNL     1      -7.564  20.252  67.914  1.00  0.00    -0.244 C  
HETATM   32  O   UNL     1      -6.989  20.133  69.130  1.00  0.00    -0.254 OA 
HETATM   33  C   UNL     1     -10.698  14.620  67.691  1.00  0.00    -0.271 A  
HETATM   34  O   UNL     1     -10.792  18.307  65.184  1.00  0.00    -0.656 OA 
HETATM   35  O   UNL     1      -7.397  21.218  67.188  1.00  0.00    -0.454 OA 
ENDBRANCH  21  22
ENDBRANCH  20  21
ENDBRANCH   2  20
TORSDOF 6
ENDMDL
MODEL       24
REMARK 921   NORMALIZED FREE ENERGY PREDICTED BY IDOCK:   -7.86 KCAL/MOL
REMARK 922        TOTAL FREE ENERGY PREDICTED BY IDOCK:  -11.91 KCAL/MOL
REMARK 923 INTER-LIGAND FREE ENERGY PREDICTED BY IDOCK:  -10.91 KCAL/MOL
REMARK 924 INTRA-LIGAND FREE ENERGY PREDICTED BY IDOCK:   -1.00 KCAL/MOL
REMARK 927      BINDING AFFINITY PREDICTED BY RF-SCORE:    0.00 PKD
ROOT
HETATM    1  O   UNL     1     -12.377  13.859  62.883  1.00  0.00    -1.023 OA 
HETATM    2  C   UNL     1     -12.344  12.770  63.826  1.00  0.00    -0.446 C  
HETATM    3  H   UNL     1     -13.240  14.255  62.928  1.00  0.00     0.000 HD 
ENDROOT
BRANCH   2   4
HETATM    4  C   UNL     1     -12.656  13.319  65.218  1.00  0.00    -0.470 C  
BRANCH   4   5
HETATM    5  O   UNL     1     -11.954  14.555  65.408  1.00  0.00    -0.362 OA 
BRANCH   5   6
HETATM    6  C   UNL     1     -11.412  14.808  66.637  1.00  0.00    -0.335 A  
HETATM    7  O   UNL     1      -8.457  20.590  66.919  1.00  0.00    -0.277 OA 
HETATM    8  O   UNL     1      -8.010  19.587  68.896  1.00  0.00    -0.353 OA 
HETATM    9  C   UNL     1     -11.542  13.932  67.726  1.00  0.00    -0.381 A  
HETATM   10  C   UNL     1     -10.930  14.205  68.949  1.00  0.00    -0.280 A  
HETATM   11  C   UNL     1      -8.546  19.623  67.655  1.00  0.00    -0.320 C  
HETATM   12  C   UNL     1     -10.175  15.359  69.103  1.00  0.00    -0.239 A  
HETATM   13  O   UNL     1      -9.311  17.382  68.295  1.00  0.00    -0.261 OA 
HETATM   14  C   UNL     1      -9.253  18.358  67.322  1.00  0.00    -0.269 C  
HETATM   15  C   UNL     1     -10.050  16.252  68.038  1.00  0.00    -0.245 A  
HETATM   16  C   UNL     1      -9.795  18.246  66.103  1.00  0.00    -0.264 C  
HETATM   17  C   UNL     1     -10.660  15.988  66.804  1.00  0.00    -0.297 A  
HETATM   18  O   UNL     1     -10.959  16.912  64.604  1.00  0.00    -0.894 OA 
HETATM   19  C   UNL     1     -10.511  17.012  65.736  1.00  0.00    -0.251 C  
ENDBRANCH   5   6
ENDBRANCH   4   5
ENDBRANCH   2   4
BRANCH   2  20
HETATM   20  C   UNL     1     -10.953  12.130  63.752  1.00  0.00    -0.431 C  
BRANCH  20  21
HETATM   21  O   UNL     1     -10.365  11.865  65.010  1.00  0.00    -0.267 OA 
BRANCH  21  22
HETATM   22  C   UNL     1      -9.904  10.598  65.286  1.00  0.00    -0.275 A  
HETATM   23  C   UNL     1     -10.522   9.220  68.859  1.00  0.00    -0.235 C  
HETATM   24  C   UNL     1     -10.805  10.023  67.667  1.00  0.00    -0.278 C  
HETATM   25  C   UNL     1      -9.975   9.790  66.447  1.00  0.00    -0.314 A  
HETATM   26  C   UNL     1      -9.228   8.589  66.475  1.00  0.00    -0.190 A  
HETATM   27  C   UNL     1      -9.747   8.144  68.744  1.00  0.00    -0.153 C  
HETATM   28  C   UNL     1      -8.511   8.145  65.359  1.00  0.00    -0.164 A  
HETATM   29  O   UNL     1      -9.133   7.756  67.573  1.00  0.00    -0.129 OA 
HETATM   30  C   UNL     1      -8.508   8.899  64.196  1.00  0.00    -0.156 A  
HETATM   31  C   UNL     1      -9.606   7.289  69.952  1.00  0.00    -0.163 C  
HETATM   32  O   UNL     1      -8.814   6.218  69.730  1.00  0.00    -0.138 OA 
HETATM   33  C   UNL     1      -9.176  10.121  64.174  1.00  0.00    -0.314 A  
HETATM   34  O   UNL     1     -11.774  10.764  67.742  1.00  0.00    -0.547 OA 
HETATM   35  O   UNL     1     -10.145   7.509  71.024  1.00  0.00    -0.187 OA 
ENDBRANCH  21  22
ENDBRANCH  20  21
ENDBRANCH   2  20
TORSDOF 6
ENDMDL
MODEL       25
REMARK 921   NORMALIZED FREE ENERGY PREDICTED BY IDOCK:   -7.86 KCAL/MOL
REMARK 922        TOTAL FREE ENERGY PREDICTED BY IDOCK:  -11.91 KCAL/MOL
REMARK 923 INTER-LIGAND FREE ENERGY PREDICTED BY IDOCK:  -10.72 KCAL/MOL
REMARK 924 INTRA-LIGAND FREE ENERGY PREDICTED BY IDOCK:   -1.19 KCAL/MOL
REMARK 927      BINDING AFFINITY PREDICTED BY RF-SCORE:    0.00 PKD
ROOT
HETATM    1  O   UNL     1     -12.750  11.373  62.938  1.00  0.00    -0.951 OA 
HETATM    2  C   UNL     1     -11.608  12.073  63.469  1.00  0.00    -0.461 C  
HETATM    3  H   UNL     1     -12.457  10.867  62.189  1.00  0.00     0.000 HD 
ENDROOT
BRANCH   2   4
HETATM    4  C   UNL     1     -10.538  11.048  63.846  1.00  0.00    -0.312 C  
BRANCH   4   5
HETATM    5  O   UNL     1     -10.530  10.873  65.269  1.00  0.00    -0.271 OA 
BRANCH   5   6
HETATM    6  C   UNL     1      -9.355  10.512  65.869  1.00  0.00    -0.181 A  
HETATM    7  O   UNL     1     -10.117   9.020  72.149  1.00  0.00    -0.296 OA 
HETATM    8  O   UNL     1      -7.886   8.969  71.783  1.00  0.00    -0.333 OA 
HETATM    9  C   UNL     1      -8.139  10.419  65.175  1.00  0.00    -0.145 A  
HETATM   10  C   UNL     1      -6.954  10.097  65.837  1.00  0.00    -0.116 A  
HETATM   11  C   UNL     1      -9.167   9.173  71.401  1.00  0.00    -0.138 C  
HETATM   12  C   UNL     1      -6.967   9.863  67.205  1.00  0.00    -0.084 A  
HETATM   13  O   UNL     1      -8.088   9.654  69.251  1.00  0.00    -0.092 OA 
HETATM   14  C   UNL     1      -9.260   9.586  69.975  1.00  0.00    -0.234 C  
HETATM   15  C   UNL     1      -8.169   9.932  67.908  1.00  0.00    -0.113 A  
HETATM   16  C   UNL     1     -10.473   9.860  69.481  1.00  0.00    -0.261 C  
HETATM   17  C   UNL     1      -9.367  10.256  67.254  1.00  0.00    -0.169 A  
HETATM   18  O   UNL     1     -11.718  10.556  67.652  1.00  0.00    -0.401 OA 
HETATM   19  C   UNL     1     -10.609  10.266  68.072  1.00  0.00    -0.231 C  
ENDBRANCH   5   6
ENDBRANCH   4   5
ENDBRANCH   2   4
BRANCH   2  20
HETATM   20  C   UNL     1     -12.081  12.889  64.677  1.00  0.00    -0.418 C  
BRANCH  20  21
HETATM   21  O   UNL     1     -11.364  14.088  64.889  1.00  0.00    -0.327 OA 
BRANCH  21  22
HETATM   22  C   UNL     1     -11.417  14.699  66.121  1.00  0.00    -0.339 A  
HETATM   23  C   UNL     1     -10.339  18.420  66.310  1.00  0.00    -0.440 C  
HETATM   24  C   UNL     1     -10.893  17.218  65.683  1.00  0.00    -0.029 C  
HETATM   25  C   UNL     1     -11.129  16.020  66.543  1.00  0.00     0.024 A  
HETATM   26  C   UNL     1     -11.101  16.289  67.932  1.00  0.00    -0.270 A  
HETATM   27  C   UNL     1     -10.323  18.508  67.638  1.00  0.00    -0.410 C  
HETATM   28  C   UNL     1     -11.444  15.314  68.875  1.00  0.00    -0.346 A  
HETATM   29  O   UNL     1     -10.746  17.504  68.484  1.00  0.00    -0.330 OA 
HETATM   30  C   UNL     1     -11.804  14.043  68.454  1.00  0.00    -0.397 A  
HETATM   31  C   UNL     1      -9.880  19.803  68.218  1.00  0.00    -0.428 C  
HETATM   32  O   UNL     1      -9.912  19.795  69.568  1.00  0.00    -0.337 OA 
HETATM   33  C   UNL     1     -11.765  13.738  67.096  1.00  0.00    -0.417 A  
HETATM   34  O   UNL     1     -11.208  17.328  64.508  1.00  0.00    -1.083 OA 
HETATM   35  O   UNL     1      -9.534  20.773  67.565  1.00  0.00    -0.390 OA 
ENDBRANCH  21  22
ENDBRANCH  20  21
ENDBRANCH   2  20
TORSDOF 6
ENDMDL
MODEL       26
REMARK 921   NORMALIZED FREE ENERGY PREDICTED BY IDOCK:   -7.82 KCAL/MOL
REMARK 922        TOTAL FREE ENERGY PREDICTED BY IDOCK:  -11.85 KCAL/MOL
REMARK 923 INTER-LIGAND FREE ENERGY PREDICTED BY IDOCK:  -10.80 KCAL/MOL
REMARK 924 INTRA-LIGAND FREE ENERGY PREDICTED BY IDOCK:   -1.05 KCAL/MOL
REMARK 927      BINDING AFFINITY PREDICTED BY RF-SCORE:    0.00 PKD
ROOT
HETATM    1  O   UNL     1     -12.923   8.996  70.870  1.00  0.00    -0.513 OA 
HETATM    2  C   UNL     1     -12.178  10.082  71.455  1.00  0.00    -0.405 C  
HETATM    3  H   UNL     1     -13.526   8.671  71.528  1.00  0.00     0.000 HD 
ENDROOT
BRANCH   2   4
HETATM    4  C   UNL     1     -13.162  11.155  71.921  1.00  0.00    -0.382 C  
BRANCH   4   5
HETATM    5  O   UNL     1     -13.184  12.223  70.965  1.00  0.00    -0.042 OA 
BRANCH   5   6
HETATM    6  C   UNL     1     -12.903  13.489  71.403  1.00  0.00    -0.355 A  
HETATM    7  O   UNL     1     -10.287  17.213  66.763  1.00  0.00    -0.311 OA 
HETATM    8  O   UNL     1     -10.198  18.452  68.653  1.00  0.00    -0.379 OA 
HETATM    9  C   UNL     1     -13.210  13.936  72.697  1.00  0.00    -0.592 A  
HETATM   10  C   UNL     1     -12.860  15.218  73.119  1.00  0.00    -0.606 A  
HETATM   11  C   UNL     1     -10.481  17.325  67.960  1.00  0.00    -0.375 C  
HETATM   12  C   UNL     1     -12.196  16.075  72.253  1.00  0.00    -0.604 A  
HETATM   13  O   UNL     1     -11.269  16.583  70.162  1.00  0.00    -0.323 OA 
HETATM   14  C   UNL     1     -11.060  16.270  68.835  1.00  0.00    -0.345 C  
HETATM   15  C   UNL     1     -11.899  15.655  70.956  1.00  0.00    -0.400 A  
HETATM   16  C   UNL     1     -11.347  15.087  68.281  1.00  0.00    -0.331 C  
HETATM   17  C   UNL     1     -12.245  14.368  70.520  1.00  0.00    -0.411 A  
HETATM   18  O   UNL     1     -12.142  12.930  68.597  1.00  0.00    -0.286 OA 
HETATM   19  C   UNL     1     -11.929  14.018  69.110  1.00  0.00    -0.360 C  
ENDBRANCH   5   6
ENDBRANCH   4   5
ENDBRANCH   2   4
BRANCH   2  20
HETATM   20  C   UNL     1     -11.206  10.607  70.393  1.00  0.00    -0.252 C  
BRANCH  20  21
HETATM   21  O   UNL     1     -10.111   9.753  70.131  1.00  0.00    -0.238 OA 
BRANCH  21  22
HETATM   22  C   UNL     1      -9.966   9.207  68.876  1.00  0.00    -0.180 A  
HETATM   23  C   UNL     1      -9.679  11.665  65.889  1.00  0.00    -0.260 C  
HETATM   24  C   UNL     1      -9.525  11.222  67.276  1.00  0.00    -0.173 C  
HETATM   25  C   UNL     1      -9.810   9.791  67.595  1.00  0.00    -0.202 A  
HETATM   26  C   UNL     1      -9.876   8.947  66.461  1.00  0.00    -0.274 A  
HETATM   27  C   UNL     1      -9.792  10.752  64.927  1.00  0.00    -0.292 C  
HETATM   28  C   UNL     1      -9.991   7.558  66.586  1.00  0.00    -0.270 A  
HETATM   29  O   UNL     1      -9.833   9.392  65.154  1.00  0.00    -0.182 OA 
HETATM   30  C   UNL     1     -10.062   6.982  67.844  1.00  0.00    -0.204 A  
HETATM   31  C   UNL     1      -9.806  11.251  63.527  1.00  0.00    -0.359 C  
HETATM   32  O   UNL     1      -9.909  10.249  62.628  1.00  0.00    -0.223 OA 
HETATM   33  C   UNL     1     -10.075   7.802  68.969  1.00  0.00    -0.198 A  
HETATM   34  O   UNL     1      -9.080  12.052  68.053  1.00  0.00    -0.175 OA 
HETATM   35  O   UNL     1      -9.723  12.426  63.209  1.00  0.00    -0.301 OA 
ENDBRANCH  21  22
ENDBRANCH  20  21
ENDBRANCH   2  20
TORSDOF 6
ENDMDL
MODEL       27
REMARK 921   NORMALIZED FREE ENERGY PREDICTED BY IDOCK:   -7.77 KCAL/MOL
REMARK 922        TOTAL FREE ENERGY PREDICTED BY IDOCK:  -11.80 KCAL/MOL
REMARK 923 INTER-LIGAND FREE ENERGY PREDICTED BY IDOCK:  -10.51 KCAL/MOL
REMARK 924 INTRA-LIGAND FREE ENERGY PREDICTED BY IDOCK:   -1.29 KCAL/MOL
REMARK 927      BINDING AFFINITY PREDICTED BY RF-SCORE:    0.00 PKD
ROOT
HETATM    1  O   UNL     1     -13.421  10.000  69.970  1.00  0.00    -0.349 OA 
HETATM    2  C   UNL     1     -13.164  10.306  71.354  1.00  0.00    -0.370 C  
HETATM    3  H   UNL     1     -13.982  10.683  69.622  1.00  0.00     0.000 HD 
ENDROOT
BRANCH   2   4
HETATM    4  C   UNL     1     -12.514  11.687  71.437  1.00  0.00    -0.208 C  
BRANCH   4   5
HETATM    5  O   UNL     1     -11.840  11.968  70.204  1.00  0.00    -0.335 OA 
BRANCH   5   6
HETATM    6  C   UNL     1     -11.791  13.266  69.775  1.00  0.00    -0.325 A  
HETATM    7  O   UNL     1     -12.481  13.797  63.334  1.00  0.00    -0.817 OA 
HETATM    8  O   UNL     1     -12.005  15.883  64.064  1.00  0.00    -0.660 OA 
HETATM    9  C   UNL     1     -11.667  14.357  70.650  1.00  0.00    -0.315 A  
HETATM   10  C   UNL     1     -11.569  15.661  70.167  1.00  0.00    -0.366 A  
HETATM   11  C   UNL     1     -12.199  14.557  64.243  1.00  0.00    -0.415 C  
HETATM   12  C   UNL     1     -11.592  15.897  68.800  1.00  0.00    -0.389 A  
HETATM   13  O   UNL     1     -11.779  15.162  66.583  1.00  0.00    -0.215 OA 
HETATM   14  C   UNL     1     -12.040  14.163  65.669  1.00  0.00    -0.415 C  
HETATM   15  C   UNL     1     -11.734  14.828  67.915  1.00  0.00    -0.341 A  
HETATM   16  C   UNL     1     -12.166  12.867  65.977  1.00  0.00    -0.431 C  
HETATM   17  C   UNL     1     -11.833  13.512  68.388  1.00  0.00    -0.408 A  
HETATM   18  O   UNL     1     -12.097  11.245  67.634  1.00  0.00    -0.600 OA 
HETATM   19  C   UNL     1     -12.024  12.437  67.379  1.00  0.00    -0.175 C  
ENDBRANCH   5   6
ENDBRANCH   4   5
ENDBRANCH   2   4
BRANCH   2  20
HETATM   20  C   UNL     1     -12.258   9.205  71.916  1.00  0.00    -0.379 C  
BRANCH  20  21
HETATM   21  O   UNL     1     -12.595   7.899  71.491  1.00  0.00    -0.311 OA 
BRANCH  21  22
HETATM   22  C   UNL     1     -11.592   6.984  71.262  1.00  0.00    -0.303 A  
HETATM   23  C   UNL     1      -9.661   7.265  67.910  1.00  0.00    -0.161 C  
HETATM   24  C   UNL     1     -10.423   7.757  69.060  1.00  0.00    -0.205 C  
HETATM   25  C   UNL     1     -10.688   6.811  70.185  1.00  0.00    -0.274 A  
HETATM   26  C   UNL     1      -9.890   5.643  70.161  1.00  0.00    -0.190 A  
HETATM   27  C   UNL     1      -9.004   6.112  68.014  1.00  0.00    -0.113 C  
HETATM   28  C   UNL     1      -9.906   4.722  71.215  1.00  0.00    -0.256 A  
HETATM   29  O   UNL     1      -9.037   5.303  69.130  1.00  0.00    -0.104 OA 
HETATM   30  C   UNL     1     -10.733   4.936  72.306  1.00  0.00    -0.218 A  
HETATM   31  C   UNL     1      -8.136   5.729  66.869  1.00  0.00    -0.102 C  
HETATM   32  O   UNL     1      -7.505   4.554  67.078  1.00  0.00    -0.079 OA 
HETATM   33  C   UNL     1     -11.581   6.041  72.312  1.00  0.00    -0.359 A  
HETATM   34  O   UNL     1     -10.702   8.946  69.044  1.00  0.00    -0.209 OA 
HETATM   35  O   UNL     1      -7.992   6.394  65.856  1.00  0.00    -0.106 OA 
ENDBRANCH  21  22
ENDBRANCH  20  21
ENDBRANCH   2  20
TORSDOF 6
ENDMDL
MODEL       28
REMARK 921   NORMALIZED FREE ENERGY PREDICTED BY IDOCK:   -7.76 KCAL/MOL
REMARK 922        TOTAL FREE ENERGY PREDICTED BY IDOCK:  -11.78 KCAL/MOL
REMARK 923 INTER-LIGAND FREE ENERGY PREDICTED BY IDOCK:  -10.27 KCAL/MOL
REMARK 924 INTRA-LIGAND FREE ENERGY PREDICTED BY IDOCK:   -1.51 KCAL/MOL
REMARK 927      BINDING AFFINITY PREDICTED BY RF-SCORE:    0.00 PKD
ROOT
HETATM    1  O   UNL     1     -12.909  16.111  71.947  1.00  0.00    -0.494 OA 
HETATM    2  C   UNL     1     -12.492  15.710  70.627  1.00  0.00    -0.417 C  
HETATM    3  H   UNL     1     -13.804  15.815  72.070  1.00  0.00     0.000 HD 
ENDROOT
BRANCH   2   4
HETATM    4  C   UNL     1     -12.620  14.191  70.513  1.00  0.00    -0.342 C  
BRANCH   4   5
HETATM    5  O   UNL     1     -12.375  13.796  69.157  1.00  0.00    -0.303 OA 
BRANCH   5   6
HETATM    6  C   UNL     1     -11.843  12.556  68.932  1.00  0.00    -0.301 A  
HETATM    7  O   UNL     1      -9.659  11.843  62.852  1.00  0.00    -0.367 OA 
HETATM    8  O   UNL     1      -9.462   9.803  63.807  1.00  0.00    -0.223 OA 
HETATM    9  C   UNL     1     -11.732  11.578  69.932  1.00  0.00    -0.420 A  
HETATM   10  C   UNL     1     -11.231  10.308  69.647  1.00  0.00    -0.322 A  
HETATM   11  C   UNL     1      -9.821  11.107  63.809  1.00  0.00    -0.331 C  
HETATM   12  C   UNL     1     -10.832   9.995  68.356  1.00  0.00    -0.277 A  
HETATM   13  O   UNL     1     -10.469  10.568  66.113  1.00  0.00    -0.230 OA 
HETATM   14  C   UNL     1     -10.413  11.515  65.111  1.00  0.00    -0.286 C  
HETATM   15  C   UNL     1     -10.917  10.960  67.352  1.00  0.00    -0.293 A  
HETATM   16  C   UNL     1     -10.849  12.774  65.232  1.00  0.00    -0.319 C  
HETATM   17  C   UNL     1     -11.420  12.240  67.626  1.00  0.00    -0.401 A  
HETATM   18  O   UNL     1     -11.869  14.359  66.584  1.00  0.00    -0.389 OA 
HETATM   19  C   UNL     1     -11.436  13.220  66.508  1.00  0.00    -0.337 C  
ENDBRANCH   5   6
ENDBRANCH   4   5
ENDBRANCH   2   4
BRANCH   2  20
HETATM   20  C   UNL     1     -11.048  16.187  70.429  1.00  0.00    -0.351 C  
BRANCH  20  21
HETATM   21  O   UNL     1     -10.813  16.842  69.199  1.00  0.00    -0.324 OA 
BRANCH  21  22
HETATM   22  C   UNL     1      -9.619  16.642  68.545  1.00  0.00    -0.241 A  
HETATM   23  C   UNL     1      -8.219  19.596  66.457  1.00  0.00    -0.350 C  
HETATM   24  C   UNL     1      -8.964  18.963  67.548  1.00  0.00    -0.284 C  
HETATM   25  C   UNL     1      -8.823  17.488  67.735  1.00  0.00    -0.241 A  
HETATM   26  C   UNL     1      -7.727  16.919  67.044  1.00  0.00    -0.195 A  
HETATM   27  C   UNL     1      -7.249  18.912  65.855  1.00  0.00    -0.244 C  
HETATM   28  C   UNL     1      -7.363  15.580  67.223  1.00  0.00    -0.249 A  
HETATM   29  O   UNL     1      -6.926  17.605  66.151  1.00  0.00    -0.260 OA 
HETATM   30  C   UNL     1      -8.096  14.774  68.079  1.00  0.00    -0.140 A  
HETATM   31  C   UNL     1      -6.434  19.647  64.852  1.00  0.00    -0.234 C  
HETATM   32  O   UNL     1      -5.470  18.872  64.310  1.00  0.00    -0.240 OA 
HETATM   33  C   UNL     1      -9.223  15.297  68.710  1.00  0.00    -0.203 A  
HETATM   34  O   UNL     1      -9.576  19.722  68.284  1.00  0.00    -0.354 OA 
HETATM   35  O   UNL     1      -6.598  20.818  64.549  1.00  0.00    -0.311 OA 
ENDBRANCH  21  22
ENDBRANCH  20  21
ENDBRANCH   2  20
TORSDOF 6
ENDMDL
MODEL       29
REMARK 921   NORMALIZED FREE ENERGY PREDICTED BY IDOCK:   -7.76 KCAL/MOL
REMARK 922        TOTAL FREE ENERGY PREDICTED BY IDOCK:  -11.77 KCAL/MOL
REMARK 923 INTER-LIGAND FREE ENERGY PREDICTED BY IDOCK:  -10.92 KCAL/MOL
REMARK 924 INTRA-LIGAND FREE ENERGY PREDICTED BY IDOCK:   -0.85 KCAL/MOL
REMARK 927      BINDING AFFINITY PREDICTED BY RF-SCORE:    0.00 PKD
ROOT
HETATM    1  O   UNL     1      -8.572   7.841  67.000  1.00  0.00    -0.124 OA 
HETATM    2  C   UNL     1     -10.008   7.860  67.121  1.00  0.00    -0.230 C  
HETATM    3  H   UNL     1      -8.359   7.910  66.077  1.00  0.00     0.000 HD 
ENDROOT
BRANCH   2   4
HETATM    4  C   UNL     1     -10.534   9.154  66.500  1.00  0.00    -0.127 C  
BRANCH   4   5
HETATM    5  O   UNL     1      -9.441   9.884  65.929  1.00  0.00    -0.182 OA 
BRANCH   5   6
HETATM    6  C   UNL     1      -9.078  11.067  66.512  1.00  0.00    -0.173 A  
HETATM    7  O   UNL     1     -12.119  16.178  63.892  1.00  0.00    -0.956 OA 
HETATM    8  O   UNL     1     -10.620  17.048  65.344  1.00  0.00    -0.601 OA 
HETATM    9  C   UNL     1      -8.192  11.144  67.598  1.00  0.00    -0.118 A  
HETATM   10  C   UNL     1      -7.808  12.375  68.129  1.00  0.00    -0.146 A  
HETATM   11  C   UNL     1     -11.216  16.022  64.694  1.00  0.00    -0.330 C  
HETATM   12  C   UNL     1      -8.305  13.550  67.583  1.00  0.00    -0.179 A  
HETATM   13  O   UNL     1      -9.664  14.705  66.064  1.00  0.00    -0.295 OA 
HETATM   14  C   UNL     1     -10.645  14.708  65.093  1.00  0.00    -0.421 C  
HETATM   15  C   UNL     1      -9.202  13.493  66.516  1.00  0.00    -0.173 A  
HETATM   16  C   UNL     1     -11.120  13.611  64.492  1.00  0.00    -0.396 C  
HETATM   17  C   UNL     1      -9.594  12.261  65.972  1.00  0.00    -0.230 A  
HETATM   18  O   UNL     1     -11.000  11.305  64.273  1.00  0.00    -0.354 OA 
HETATM   19  C   UNL     1     -10.586  12.290  64.865  1.00  0.00    -0.293 C  
ENDBRANCH   5   6
ENDBRANCH   4   5
ENDBRANCH   2   4
BRANCH   2  20
HETATM   20  C   UNL     1     -10.353   7.749  68.611  1.00  0.00    -0.199 C  
BRANCH  20  21
HETATM   21  O   UNL     1     -10.199   8.952  69.337  1.00  0.00    -0.197 OA 
BRANCH  21  22
HETATM   22  C   UNL     1     -11.180   9.336  70.222  1.00  0.00    -0.231 A  
HETATM   23  C   UNL     1     -12.284  13.054  70.149  1.00  0.00    -0.342 C  
HETATM   24  C   UNL     1     -11.772  11.799  69.594  1.00  0.00    -0.344 C  
HETATM   25  C   UNL     1     -11.827  10.576  70.449  1.00  0.00    -0.431 A  
HETATM   26  C   UNL     1     -12.672  10.695  71.577  1.00  0.00    -0.444 A  
HETATM   27  C   UNL     1     -13.020  13.017  71.259  1.00  0.00    -0.243 C  
HETATM   28  C   UNL     1     -12.953   9.600  72.403  1.00  0.00    -0.358 A  
HETATM   29  O   UNL     1     -13.291  11.867  71.968  1.00  0.00    -0.487 OA 
HETATM   30  C   UNL     1     -12.381   8.368  72.131  1.00  0.00    -0.426 A  
HETATM   31  C   UNL     1     -13.630  14.299  71.701  1.00  0.00    -0.381 C  
HETATM   32  O   UNL     1     -14.365  14.154  72.823  1.00  0.00    -0.473 OA 
HETATM   33  C   UNL     1     -11.487   8.249  71.069  1.00  0.00    -0.303 A  
HETATM   34  O   UNL     1     -11.421  11.840  68.425  1.00  0.00    -0.244 OA 
HETATM   35  O   UNL     1     -13.499  15.365  71.122  1.00  0.00    -0.488 OA 
ENDBRANCH  21  22
ENDBRANCH  20  21
ENDBRANCH   2  20
TORSDOF 6
ENDMDL
MODEL       30
REMARK 921   NORMALIZED FREE ENERGY PREDICTED BY IDOCK:   -7.75 KCAL/MOL
REMARK 922        TOTAL FREE ENERGY PREDICTED BY IDOCK:  -11.77 KCAL/MOL
REMARK 923 INTER-LIGAND FREE ENERGY PREDICTED BY IDOCK:  -11.16 KCAL/MOL
REMARK 924 INTRA-LIGAND FREE ENERGY PREDICTED BY IDOCK:   -0.61 KCAL/MOL
REMARK 927      BINDING AFFINITY PREDICTED BY RF-SCORE:    0.00 PKD
ROOT
HETATM    1  O   UNL     1     -12.464  14.815  63.854  1.00  0.00    -0.997 OA 
HETATM    2  C   UNL     1     -11.906  15.076  65.157  1.00  0.00    -0.195 C  
HETATM    3  H   UNL     1     -12.566  15.649  63.410  1.00  0.00     0.000 HD 
ENDROOT
BRANCH   2   4
HETATM    4  C   UNL     1     -10.574  15.804  64.981  1.00  0.00    -0.371 C  
BRANCH   4   5
HETATM    5  O   UNL     1     -10.069  16.185  66.268  1.00  0.00    -0.284 OA 
BRANCH   5   6
HETATM    6  C   UNL     1      -9.875  17.515  66.518  1.00  0.00    -0.310 A  
HETATM    7  O   UNL     1      -5.133  18.579  70.833  1.00  0.00    -0.238 OA 
HETATM    8  O   UNL     1      -6.053  20.606  70.437  1.00  0.00    -0.499 OA 
HETATM    9  C   UNL     1     -10.588  18.530  65.859  1.00  0.00    -0.336 A  
HETATM   10  C   UNL     1     -10.395  19.873  66.181  1.00  0.00    -0.604 A  
HETATM   11  C   UNL     1      -5.973  19.265  70.280  1.00  0.00    -0.203 C  
HETATM   12  C   UNL     1      -9.486  20.224  67.169  1.00  0.00    -0.557 A  
HETATM   13  O   UNL     1      -7.855  19.678  68.760  1.00  0.00    -0.349 OA 
HETATM   14  C   UNL     1      -7.017  18.755  69.350  1.00  0.00    -0.150 C  
HETATM   15  C   UNL     1      -8.754  19.231  67.821  1.00  0.00    -0.306 A  
HETATM   16  C   UNL     1      -7.074  17.435  69.139  1.00  0.00    -0.196 C  
HETATM   17  C   UNL     1      -8.939  17.878  67.507  1.00  0.00    -0.248 A  
HETATM   18  O   UNL     1      -8.153  15.678  68.076  1.00  0.00    -0.133 OA 
HETATM   19  C   UNL     1      -8.088  16.889  68.220  1.00  0.00    -0.217 C  
ENDBRANCH   5   6
ENDBRANCH   4   5
ENDBRANCH   2   4
BRANCH   2  20
HETATM   20  C   UNL     1     -11.741  13.730  65.872  1.00  0.00    -0.352 C  
BRANCH  20  21
HETATM   21  O   UNL     1     -10.842  13.754  66.962  1.00  0.00    -0.281 OA 
BRANCH  21  22
HETATM   22  C   UNL     1     -11.324  13.592  68.241  1.00  0.00    -0.294 A  
HETATM   23  C   UNL     1     -11.539   9.971  69.615  1.00  0.00    -0.156 C  
HETATM   24  C   UNL     1     -11.000  11.064  68.801  1.00  0.00    -0.221 C  
HETATM   25  C   UNL     1     -11.511  12.445  69.050  1.00  0.00    -0.352 A  
HETATM   26  C   UNL     1     -12.214  12.592  70.269  1.00  0.00    -0.267 A  
HETATM   27  C   UNL     1     -12.238  10.263  70.709  1.00  0.00    -0.350 C  
HETATM   28  C   UNL     1     -12.635  13.846  70.727  1.00  0.00    -0.424 A  
HETATM   29  O   UNL     1     -12.547  11.546  71.109  1.00  0.00    -0.389 OA 
HETATM   30  C   UNL     1     -12.379  14.978  69.970  1.00  0.00    -0.353 A  
HETATM   31  C   UNL     1     -12.641   9.122  71.572  1.00  0.00    -0.343 C  
HETATM   32  O   UNL     1     -13.331   9.523  72.660  1.00  0.00    -0.361 OA 
HETATM   33  C   UNL     1     -11.755  14.844  68.732  1.00  0.00    -0.353 A  
HETATM   34  O   UNL     1     -10.096  10.762  68.038  1.00  0.00    -0.169 OA 
HETATM   35  O   UNL     1     -12.378   7.952  71.342  1.00  0.00    -0.307 OA 
ENDBRANCH  21  22
ENDBRANCH  20  21
ENDBRANCH   2  20
TORSDOF 6
ENDMDL
MODEL       31
REMARK 921   NORMALIZED FREE ENERGY PREDICTED BY IDOCK:   -7.75 KCAL/MOL
REMARK 922        TOTAL FREE ENERGY PREDICTED BY IDOCK:  -11.76 KCAL/MOL
REMARK 923 INTER-LIGAND FREE ENERGY PREDICTED BY IDOCK:  -10.72 KCAL/MOL
REMARK 924 INTRA-LIGAND FREE ENERGY PREDICTED BY IDOCK:   -1.04 KCAL/MOL
REMARK 927      BINDING AFFINITY PREDICTED BY RF-SCORE:    0.00 PKD
ROOT
HETATM    1  O   UNL     1     -12.050  11.676  62.997  1.00  0.00    -0.915 OA 
HETATM    2  C   UNL     1     -11.285  11.813  64.210  1.00  0.00    -0.344 C  
HETATM    3  H   UNL     1     -12.547  12.477  62.876  1.00  0.00     0.000 HD 
ENDROOT
BRANCH   2   4
HETATM    4  C   UNL     1     -10.383  13.040  64.085  1.00  0.00    -0.321 C  
BRANCH   4   5
HETATM    5  O   UNL     1     -10.854  14.066  64.969  1.00  0.00    -0.346 OA 
BRANCH   5   6
HETATM    6  C   UNL     1     -10.071  14.411  66.036  1.00  0.00    -0.322 A  
HETATM    7  O   UNL     1      -9.787  20.838  66.955  1.00  0.00    -0.380 OA 
HETATM    8  O   UNL     1      -8.323  19.952  68.433  1.00  0.00    -0.287 OA 
HETATM    9  C   UNL     1      -9.455  13.464  66.869  1.00  0.00    -0.253 A  
HETATM   10  C   UNL     1      -8.622  13.858  67.916  1.00  0.00    -0.180 A  
HETATM   11  C   UNL     1      -9.221  19.868  67.424  1.00  0.00    -0.351 C  
HETATM   12  C   UNL     1      -8.392  15.207  68.147  1.00  0.00    -0.147 A  
HETATM   13  O   UNL     1      -8.750  17.472  67.667  1.00  0.00    -0.220 OA 
HETATM   14  C   UNL     1      -9.428  18.462  66.986  1.00  0.00    -0.281 C  
HETATM   15  C   UNL     1      -9.012  16.163  67.342  1.00  0.00    -0.191 A  
HETATM   16  C   UNL     1     -10.263  18.242  65.964  1.00  0.00    -0.334 C  
HETATM   17  C   UNL     1      -9.850  15.779  66.286  1.00  0.00    -0.320 A  
HETATM   18  O   UNL     1     -11.233  16.687  64.542  1.00  0.00    -0.909 OA 
HETATM   19  C   UNL     1     -10.503  16.863  65.504  1.00  0.00    -0.204 C  
ENDBRANCH   5   6
ENDBRANCH   4   5
ENDBRANCH   2   4
BRANCH   2  20
HETATM   20  C   UNL     1     -10.483  10.521  64.405  1.00  0.00    -0.042 C  
BRANCH  20  21
HETATM   21  O   UNL     1      -9.593  10.546  65.502  1.00  0.00    -0.199 OA 
BRANCH  21  22
HETATM   22  C   UNL     1      -9.800   9.691  66.560  1.00  0.00    -0.235 A  
HETATM   23  C   UNL     1     -12.018  10.970  69.474  1.00  0.00    -0.413 C  
HETATM   24  C   UNL     1     -11.558  10.869  68.087  1.00  0.00    -0.241 C  
HETATM   25  C   UNL     1     -10.557   9.813  67.751  1.00  0.00    -0.320 A  
HETATM   26  C   UNL     1     -10.414   8.815  68.743  1.00  0.00    -0.191 A  
HETATM   27  C   UNL     1     -11.756   9.972  70.316  1.00  0.00    -0.251 C  
HETATM   28  C   UNL     1      -9.627   7.677  68.530  1.00  0.00    -0.149 A  
HETATM   29  O   UNL     1     -11.018   8.856  69.985  1.00  0.00    -0.236 OA 
HETATM   30  C   UNL     1      -8.951   7.520  67.330  1.00  0.00    -0.129 A  
HETATM   31  C   UNL     1     -12.364  10.060  71.670  1.00  0.00    -0.394 C  
HETATM   32  O   UNL     1     -12.050   8.997  72.441  1.00  0.00    -0.324 OA 
HETATM   33  C   UNL     1      -9.020   8.529  66.372  1.00  0.00    -0.201 A  
HETATM   34  O   UNL     1     -12.111  11.610  67.289  1.00  0.00    -0.595 OA 
HETATM   35  O   UNL     1     -13.075  10.976  72.052  1.00  0.00    -0.496 OA 
ENDBRANCH  21  22
ENDBRANCH  20  21
ENDBRANCH   2  20
TORSDOF 6
ENDMDL
MODEL       32
REMARK 921   NORMALIZED FREE ENERGY PREDICTED BY IDOCK:   -7.75 KCAL/MOL
REMARK 922        TOTAL FREE ENERGY PREDICTED BY IDOCK:  -11.76 KCAL/MOL
REMARK 923 INTER-LIGAND FREE ENERGY PREDICTED BY IDOCK:   -9.55 KCAL/MOL
REMARK 924 INTRA-LIGAND FREE ENERGY PREDICTED BY IDOCK:   -2.21 KCAL/MOL
REMARK 927      BINDING AFFINITY PREDICTED BY RF-SCORE:    0.00 PKD
ROOT
HETATM    1  O   UNL     1      -9.136  12.208  62.984  1.00  0.00    -0.569 OA 
HETATM    2  C   UNL     1     -10.397  11.571  63.270  1.00  0.00    -0.384 C  
HETATM    3  H   UNL     1      -9.289  12.867  62.317  1.00  0.00     0.000 HD 
ENDROOT
BRANCH   2   4
HETATM    4  C   UNL     1     -11.391  12.638  63.728  1.00  0.00    -0.467 C  
BRANCH   4   5
HETATM    5  O   UNL     1     -11.326  12.765  65.154  1.00  0.00    -0.297 OA 
BRANCH   5   6
HETATM    6  C   UNL     1     -11.066  13.999  65.683  1.00  0.00    -0.302 A  
HETATM    7  O   UNL     1     -12.221  14.274  72.072  1.00  0.00    -0.258 OA 
HETATM    8  O   UNL     1     -11.727  16.393  71.457  1.00  0.00    -0.448 OA 
HETATM    9  C   UNL     1     -10.547  15.061  64.926  1.00  0.00    -0.400 A  
HETATM   10  C   UNL     1     -10.344  16.319  65.493  1.00  0.00    -0.363 A  
HETATM   11  C   UNL     1     -11.943  15.082  71.204  1.00  0.00    -0.323 C  
HETATM   12  C   UNL     1     -10.658  16.536  66.827  1.00  0.00    -0.224 A  
HETATM   13  O   UNL     1     -11.407  15.789  68.917  1.00  0.00    -0.309 OA 
HETATM   14  C   UNL     1     -11.785  14.765  69.760  1.00  0.00    -0.310 C  
HETATM   15  C   UNL     1     -11.157  15.488  67.600  1.00  0.00    -0.311 A  
HETATM   16  C   UNL     1     -12.013  13.506  69.368  1.00  0.00    -0.383 C  
HETATM   17  C   UNL     1     -11.366  14.219  67.042  1.00  0.00    -0.354 A  
HETATM   18  O   UNL     1     -12.116  12.005  67.602  1.00  0.00    -0.547 OA 
HETATM   19  C   UNL     1     -11.860  13.148  67.947  1.00  0.00    -0.348 C  
ENDBRANCH   5   6
ENDBRANCH   4   5
ENDBRANCH   2   4
BRANCH   2  20
HETATM   20  C   UNL     1     -10.150  10.508  64.347  1.00  0.00    -0.325 C  
BRANCH  20  21
HETATM   21  O   UNL     1      -8.887  10.596  64.975  1.00  0.00    -0.192 OA 
BRANCH  21  22
HETATM   22  C   UNL     1      -8.820  10.695  66.347  1.00  0.00    -0.154 A  
HETATM   23  C   UNL     1     -10.476   7.861  68.415  1.00  0.00    -0.207 C  
HETATM   24  C   UNL     1      -9.792   8.452  67.262  1.00  0.00    -0.203 C  
HETATM   25  C   UNL     1      -9.282   9.850  67.386  1.00  0.00    -0.151 A  
HETATM   26  C   UNL     1      -9.223  10.330  68.715  1.00  0.00    -0.166 A  
HETATM   27  C   UNL     1     -10.382   8.461  69.600  1.00  0.00    -0.218 C  
HETATM   28  C   UNL     1      -8.638  11.563  69.025  1.00  0.00     0.120 A  
HETATM   29  O   UNL     1      -9.722   9.653  69.812  1.00  0.00    -0.195 OA 
HETATM   30  C   UNL     1      -8.114  12.352  68.014  1.00  0.00    -0.162 A  
HETATM   31  C   UNL     1     -10.976   7.748  70.761  1.00  0.00    -0.252 C  
HETATM   32  O   UNL     1     -10.816   8.431  71.915  1.00  0.00    -0.257 OA 
HETATM   33  C   UNL     1      -8.229  11.930  66.691  1.00  0.00    -0.088 A  
HETATM   34  O   UNL     1      -9.611   7.706  66.312  1.00  0.00    -0.170 OA 
HETATM   35  O   UNL     1     -11.537   6.667  70.697  1.00  0.00    -0.338 OA 
ENDBRANCH  21  22
ENDBRANCH  20  21
ENDBRANCH   2  20
TORSDOF 6
ENDMDL
MODEL       33
REMARK 921   NORMALIZED FREE ENERGY PREDICTED BY IDOCK:   -7.74 KCAL/MOL
REMARK 922        TOTAL FREE ENERGY PREDICTED BY IDOCK:  -11.75 KCAL/MOL
REMARK 923 INTER-LIGAND FREE ENERGY PREDICTED BY IDOCK:  -10.60 KCAL/MOL
REMARK 924 INTRA-LIGAND FREE ENERGY PREDICTED BY IDOCK:   -1.15 KCAL/MOL
REMARK 927      BINDING AFFINITY PREDICTED BY RF-SCORE:    0.00 PKD
ROOT
HETATM    1  O   UNL     1     -12.958  12.403  64.605  1.00  0.00    -0.793 OA 
HETATM    2  C   UNL     1     -11.884  13.116  63.961  1.00  0.00    -0.453 C  
HETATM    3  H   UNL     1     -13.354  11.830  63.959  1.00  0.00     0.000 HD 
ENDROOT
BRANCH   2   4
HETATM    4  C   UNL     1     -10.889  12.101  63.400  1.00  0.00    -0.414 C  
BRANCH   4   5
HETATM    5  O   UNL     1      -9.925  11.775  64.409  1.00  0.00    -0.256 OA 
BRANCH   5   6
HETATM    6  C   UNL     1      -9.305  10.558  64.341  1.00  0.00    -0.262 A  
HETATM    7  O   UNL     1     -10.853   6.682  69.322  1.00  0.00    -0.243 OA 
HETATM    8  O   UNL     1      -9.250   5.576  68.174  1.00  0.00    -0.108 OA 
HETATM    9  C   UNL     1      -8.476  10.181  63.272  1.00  0.00    -0.184 A  
HETATM   10  C   UNL     1      -7.821   8.949  63.267  1.00  0.00    -0.143 A  
HETATM   11  C   UNL     1     -10.055   6.639  68.404  1.00  0.00    -0.156 C  
HETATM   12  C   UNL     1      -7.984   8.075  64.332  1.00  0.00    -0.145 A  
HETATM   13  O   UNL     1      -8.943   7.481  66.386  1.00  0.00    -0.153 OA 
HETATM   14  C   UNL     1      -9.847   7.716  67.400  1.00  0.00    -0.173 C  
HETATM   15  C   UNL     1      -8.819   8.424  65.394  1.00  0.00    -0.103 A  
HETATM   16  C   UNL     1     -10.555   8.844  67.538  1.00  0.00    -0.307 C  
HETATM   17  C   UNL     1      -9.482   9.659  65.411  1.00  0.00    -0.343 A  
HETATM   18  O   UNL     1     -11.005  10.971  66.729  1.00  0.00    -0.267 OA 
HETATM   19  C   UNL     1     -10.385   9.933  66.560  1.00  0.00    -0.188 C  
ENDBRANCH   5   6
ENDBRANCH   4   5
ENDBRANCH   2   4
BRANCH   2  20
HETATM   20  C   UNL     1     -11.245  14.040  65.004  1.00  0.00    -0.352 C  
BRANCH  20  21
HETATM   21  O   UNL     1     -11.794  13.925  66.301  1.00  0.00    -0.367 OA 
BRANCH  21  22
HETATM   22  C   UNL     1     -11.417  14.819  67.277  1.00  0.00    -0.366 A  
HETATM   23  C   UNL     1     -12.509  14.046  70.917  1.00  0.00    -0.439 C  
HETATM   24  C   UNL     1     -12.117  13.729  69.542  1.00  0.00    -0.334 C  
HETATM   25  C   UNL     1     -11.614  14.839  68.679  1.00  0.00    -0.345 A  
HETATM   26  C   UNL     1     -11.260  16.010  69.389  1.00  0.00    -0.349 A  
HETATM   27  C   UNL     1     -12.156  15.220  71.436  1.00  0.00    -0.354 C  
HETATM   28  C   UNL     1     -10.638  17.092  68.756  1.00  0.00    -0.336 A  
HETATM   29  O   UNL     1     -11.483  16.201  70.739  1.00  0.00    -0.393 OA 
HETATM   30  C   UNL     1     -10.373  17.037  67.397  1.00  0.00    -0.319 A  
HETATM   31  C   UNL     1     -12.457  15.434  72.876  1.00  0.00    -0.418 C  
HETATM   32  O   UNL     1     -12.048  16.645  73.308  1.00  0.00    -0.480 OA 
HETATM   33  C   UNL     1     -10.782  15.924  66.668  1.00  0.00    -0.270 A  
HETATM   34  O   UNL     1     -12.147  12.546  69.240  1.00  0.00    -0.256 OA 
HETATM   35  O   UNL     1     -13.001  14.615  73.600  1.00  0.00    -0.531 OA 
ENDBRANCH  21  22
ENDBRANCH  20  21
ENDBRANCH   2  20
TORSDOF 6
ENDMDL
MODEL       34
REMARK 921   NORMALIZED FREE ENERGY PREDICTED BY IDOCK:   -7.74 KCAL/MOL
REMARK 922        TOTAL FREE ENERGY PREDICTED BY IDOCK:  -11.74 KCAL/MOL
REMARK 923 INTER-LIGAND FREE ENERGY PREDICTED BY IDOCK:  -10.91 KCAL/MOL
REMARK 924 INTRA-LIGAND FREE ENERGY PREDICTED BY IDOCK:   -0.83 KCAL/MOL
REMARK 927      BINDING AFFINITY PREDICTED BY RF-SCORE:    0.00 PKD
ROOT
HETATM    1  O   UNL     1     -13.966   8.875  73.205  1.00  0.00    -1.203 OA 
HETATM    2  C   UNL     1     -12.943   8.901  72.190  1.00  0.00    -0.416 C  
HETATM    3  H   UNL     1     -13.993   9.734  73.611  1.00  0.00     0.000 HD 
ENDROOT
BRANCH   2   4
HETATM    4  C   UNL     1     -13.277  10.004  71.187  1.00  0.00    -0.361 C  
BRANCH   4   5
HETATM    5  O   UNL     1     -12.094  10.764  70.908  1.00  0.00    -0.331 OA 
BRANCH   5   6
HETATM    6  C   UNL     1     -12.232  12.099  70.643  1.00  0.00    -0.300 A  
HETATM    7  O   UNL     1     -10.962  13.555  64.437  1.00  0.00    -0.378 OA 
HETATM    8  O   UNL     1     -11.267  15.542  65.473  1.00  0.00    -0.286 OA 
HETATM    9  C   UNL     1     -12.661  13.029  71.602  1.00  0.00    -0.308 A  
HETATM   10  C   UNL     1     -12.739  14.389  71.304  1.00  0.00    -0.414 A  
HETATM   11  C   UNL     1     -11.177  14.193  65.453  1.00  0.00    -0.325 C  
HETATM   12  C   UNL     1     -12.386  14.842  70.040  1.00  0.00    -0.358 A  
HETATM   13  O   UNL     1     -11.678  14.468  67.838  1.00  0.00    -0.329 OA 
HETATM   14  C   UNL     1     -11.385  13.605  66.803  1.00  0.00    -0.328 C  
HETATM   15  C   UNL     1     -11.975  13.930  69.068  1.00  0.00    -0.364 A  
HETATM   16  C   UNL     1     -11.280  12.277  66.930  1.00  0.00    -0.367 C  
HETATM   17  C   UNL     1     -11.893  12.561  69.355  1.00  0.00    -0.368 A  
HETATM   18  O   UNL     1     -11.342  10.446  68.353  1.00  0.00    -0.276 OA 
HETATM   19  C   UNL     1     -11.486  11.654  68.249  1.00  0.00    -0.303 C  
ENDBRANCH   5   6
ENDBRANCH   4   5
ENDBRANCH   2   4
BRANCH   2  20
HETATM   20  C   UNL     1     -12.899   7.515  71.536  1.00  0.00    -0.360 C  
BRANCH  20  21
HETATM   21  O   UNL     1     -12.074   7.435  70.392  1.00  0.00    -0.114 OA 
BRANCH  21  22
HETATM   22  C   UNL     1     -11.174   6.401  70.279  1.00  0.00    -0.382 A  
HETATM   23  C   UNL     1     -10.296   5.190  66.700  1.00  0.00    -0.325 C  
HETATM   24  C   UNL     1     -10.696   6.157  67.724  1.00  0.00    -0.303 C  
HETATM   25  C   UNL     1     -10.618   5.739  69.156  1.00  0.00    -0.365 A  
HETATM   26  C   UNL     1      -9.851   4.572  69.378  1.00  0.00    -0.190 A  
HETATM   27  C   UNL     1      -9.627   4.099  67.067  1.00  0.00    -0.201 C  
HETATM   28  C   UNL     1      -9.554   4.123  70.670  1.00  0.00    -0.264 A  
HETATM   29  O   UNL     1      -9.329   3.778  68.374  1.00  0.00    -0.148 OA 
HETATM   30  C   UNL     1     -10.033   4.819  71.769  1.00  0.00    -0.255 A  
HETATM   31  C   UNL     1      -9.124   3.222  65.976  1.00  0.00    -0.150 C  
HETATM   32  O   UNL     1      -8.449   2.154  66.450  1.00  0.00    -0.090 OA 
HETATM   33  C   UNL     1     -10.852   5.928  71.570  1.00  0.00    -0.325 A  
HETATM   34  O   UNL     1     -10.978   7.274  67.320  1.00  0.00    -0.293 OA 
HETATM   35  O   UNL     1      -9.284   3.436  64.786  1.00  0.00    -0.130 OA 
ENDBRANCH  21  22
ENDBRANCH  20  21
ENDBRANCH   2  20
TORSDOF 6
ENDMDL
MODEL       35
REMARK 921   NORMALIZED FREE ENERGY PREDICTED BY IDOCK:   -7.73 KCAL/MOL
REMARK 922        TOTAL FREE ENERGY PREDICTED BY IDOCK:  -11.73 KCAL/MOL
REMARK 923 INTER-LIGAND FREE ENERGY PREDICTED BY IDOCK:  -10.72 KCAL/MOL
REMARK 924 INTRA-LIGAND FREE ENERGY PREDICTED BY IDOCK:   -1.01 KCAL/MOL
REMARK 927      BINDING AFFINITY PREDICTED BY RF-SCORE:    0.00 PKD
ROOT
HETATM    1  O   UNL     1     -12.736  10.143  70.016  1.00  0.00    -0.549 OA 
HETATM    2  C   UNL     1     -13.525  10.144  71.222  1.00  0.00    -0.228 C  
HETATM    3  H   UNL     1     -12.989  10.901  69.503  1.00  0.00     0.000 HD 
ENDROOT
BRANCH   2   4
HETATM    4  C   UNL     1     -13.278  11.455  71.967  1.00  0.00    -0.327 C  
BRANCH   4   5
HETATM    5  O   UNL     1     -13.143  12.521  71.018  1.00  0.00    -0.134 OA 
BRANCH   5   6
HETATM    6  C   UNL     1     -12.795  13.760  71.482  1.00  0.00    -0.362 A  
HETATM    7  O   UNL     1     -10.096  17.481  66.888  1.00  0.00    -0.300 OA 
HETATM    8  O   UNL     1      -9.913  18.664  68.807  1.00  0.00    -0.375 OA 
HETATM    9  C   UNL     1     -13.057  14.186  72.794  1.00  0.00    -0.573 A  
HETATM   10  C   UNL     1     -12.640  15.439  73.241  1.00  0.00    -0.618 A  
HETATM   11  C   UNL     1     -10.262  17.570  68.092  1.00  0.00    -0.359 C  
HETATM   12  C   UNL     1     -11.953  16.287  72.384  1.00  0.00    -0.630 A  
HETATM   13  O   UNL     1     -11.042  16.807  70.289  1.00  0.00    -0.211 OA 
HETATM   14  C   UNL     1     -10.873  16.520  68.950  1.00  0.00    -0.336 C  
HETATM   15  C   UNL     1     -11.700  15.888  71.072  1.00  0.00    -0.432 A  
HETATM   16  C   UNL     1     -11.225  15.366  68.372  1.00  0.00    -0.318 C  
HETATM   17  C   UNL     1     -12.114  14.631  70.610  1.00  0.00    -0.385 A  
HETATM   18  O   UNL     1     -12.114  13.241  68.648  1.00  0.00    -0.337 OA 
HETATM   19  C   UNL     1     -11.841  14.303  69.185  1.00  0.00    -0.330 C  
ENDBRANCH   5   6
ENDBRANCH   4   5
ENDBRANCH   2   4
BRANCH   2  20
HETATM   20  C   UNL     1     -13.116   8.920  72.050  1.00  0.00    -0.402 C  
BRANCH  20  21
HETATM   21  O   UNL     1     -11.720   8.752  72.192  1.00  0.00    -0.357 OA 
BRANCH  21  22
HETATM   22  C   UNL     1     -11.155   7.527  71.917  1.00  0.00    -0.239 A  
HETATM   23  C   UNL     1     -10.462   6.684  68.195  1.00  0.00    -0.257 C  
HETATM   24  C   UNL     1     -10.622   7.554  69.362  1.00  0.00    -0.223 C  
HETATM   25  C   UNL     1     -10.752   6.914  70.706  1.00  0.00    -0.262 A  
HETATM   26  C   UNL     1     -10.374   5.552  70.737  1.00  0.00    -0.251 A  
HETATM   27  C   UNL     1     -10.164   5.400  68.381  1.00  0.00    -0.163 C  
HETATM   28  C   UNL     1     -10.297   4.839  71.939  1.00  0.00    -0.242 A  
HETATM   29  O   UNL     1     -10.049   4.806  69.620  1.00  0.00    -0.229 OA 
HETATM   30  C   UNL     1     -10.615   5.466  73.133  1.00  0.00    -0.278 A  
HETATM   31  C   UNL     1      -9.875   4.596  67.165  1.00  0.00    -0.195 C  
HETATM   32  O   UNL     1      -9.571   3.314  67.461  1.00  0.00    -0.205 OA 
HETATM   33  C   UNL     1     -11.062   6.784  73.114  1.00  0.00    -0.220 A  
HETATM   34  O   UNL     1     -10.541   8.754  69.146  1.00  0.00    -0.224 OA 
HETATM   35  O   UNL     1      -9.897   5.031  66.025  1.00  0.00    -0.168 OA 
ENDBRANCH  21  22
ENDBRANCH  20  21
ENDBRANCH   2  20
TORSDOF 6
ENDMDL
MODEL       36
REMARK 921   NORMALIZED FREE ENERGY PREDICTED BY IDOCK:   -7.71 KCAL/MOL
REMARK 922        TOTAL FREE ENERGY PREDICTED BY IDOCK:  -11.71 KCAL/MOL
REMARK 923 INTER-LIGAND FREE ENERGY PREDICTED BY IDOCK:   -9.99 KCAL/MOL
REMARK 924 INTRA-LIGAND FREE ENERGY PREDICTED BY IDOCK:   -1.71 KCAL/MOL
REMARK 927      BINDING AFFINITY PREDICTED BY RF-SCORE:    0.00 PKD
ROOT
HETATM    1  O   UNL     1     -12.386  12.673  65.523  1.00  0.00    -0.563 OA 
HETATM    2  C   UNL     1     -11.212  12.737  64.690  1.00  0.00    -0.319 C  
HETATM    3  H   UNL     1     -12.836  11.860  65.325  1.00  0.00     0.000 HD 
ENDROOT
BRANCH   2   4
HETATM    4  C   UNL     1     -10.344  11.511  64.971  1.00  0.00    -0.281 C  
BRANCH   4   5
HETATM    5  O   UNL     1     -10.492  11.132  66.346  1.00  0.00    -0.244 OA 
BRANCH   5   6
HETATM    6  C   UNL     1      -9.360  10.934  67.087  1.00  0.00    -0.159 A  
HETATM    7  O   UNL     1     -10.585   8.102  72.807  1.00  0.00    -0.332 OA 
HETATM    8  O   UNL     1      -8.387   8.628  72.854  1.00  0.00    -0.400 OA 
HETATM    9  C   UNL     1      -8.075  11.256  66.623  1.00  0.00    -0.160 A  
HETATM   10  C   UNL     1      -6.952  11.085  67.431  1.00  0.00    -0.086 A  
HETATM   11  C   UNL     1      -9.612   8.609  72.280  1.00  0.00    -0.278 C  
HETATM   12  C   UNL     1      -7.095  10.590  68.720  1.00  0.00    -0.073 A  
HETATM   13  O   UNL     1      -8.401   9.734  70.467  1.00  0.00    -0.194 OA 
HETATM   14  C   UNL     1      -9.606   9.263  70.944  1.00  0.00    -0.269 C  
HETATM   15  C   UNL     1      -8.362  10.246  69.192  1.00  0.00    -0.154 A  
HETATM   16  C   UNL     1     -10.768   9.349  70.285  1.00  0.00    -0.299 C  
HETATM   17  C   UNL     1      -9.499  10.414  68.389  1.00  0.00    -0.151 A  
HETATM   18  O   UNL     1     -11.881  10.092  68.391  1.00  0.00    -0.109 OA 
HETATM   19  C   UNL     1     -10.804   9.983  68.956  1.00  0.00    -0.222 C  
ENDBRANCH   5   6
ENDBRANCH   4   5
ENDBRANCH   2   4
BRANCH   2  20
HETATM   20  C   UNL     1     -10.484  14.049  65.008  1.00  0.00    -0.420 C  
BRANCH  20  21
HETATM   21  O   UNL     1     -11.316  15.067  65.526  1.00  0.00    -0.347 OA 
BRANCH  21  22
HETATM   22  C   UNL     1     -10.933  15.739  66.664  1.00  0.00    -0.179 A  
HETATM   23  C   UNL     1     -12.359  14.476  70.042  1.00  0.00    -0.376 C  
HETATM   24  C   UNL     1     -11.896  14.358  68.658  1.00  0.00    -0.331 C  
HETATM   25  C   UNL     1     -11.231  15.542  68.034  1.00  0.00    -0.332 A  
HETATM   26  C   UNL     1     -10.827  16.533  68.959  1.00  0.00    -0.329 A  
HETATM   27  C   UNL     1     -11.940  15.503  70.779  1.00  0.00    -0.378 C  
HETATM   28  C   UNL     1     -10.064  17.637  68.563  1.00  0.00    -0.375 A  
HETATM   29  O   UNL     1     -11.131  16.514  70.306  1.00  0.00    -0.348 OA 
HETATM   30  C   UNL     1      -9.704  17.786  67.233  1.00  0.00    -0.285 A  
HETATM   31  C   UNL     1     -12.327  15.500  72.215  1.00  0.00    -0.395 C  
HETATM   32  O   UNL     1     -11.843  16.572  72.876  1.00  0.00    -0.519 OA 
HETATM   33  C   UNL     1     -10.156  16.860  66.296  1.00  0.00    -0.335 A  
HETATM   34  O   UNL     1     -12.011  13.253  68.151  1.00  0.00    -0.344 OA 
HETATM   35  O   UNL     1     -12.995  14.630  72.750  1.00  0.00    -0.407 OA 
ENDBRANCH  21  22
ENDBRANCH  20  21
ENDBRANCH   2  20
TORSDOF 6
ENDMDL
MODEL       37
REMARK 921   NORMALIZED FREE ENERGY PREDICTED BY IDOCK:   -7.69 KCAL/MOL
REMARK 922        TOTAL FREE ENERGY PREDICTED BY IDOCK:  -11.68 KCAL/MOL
REMARK 923 INTER-LIGAND FREE ENERGY PREDICTED BY IDOCK:   -9.89 KCAL/MOL
REMARK 924 INTRA-LIGAND FREE ENERGY PREDICTED BY IDOCK:   -1.79 KCAL/MOL
REMARK 927      BINDING AFFINITY PREDICTED BY RF-SCORE:    0.00 PKD
ROOT
HETATM    1  O   UNL     1     -13.944   9.071  73.370  1.00  0.00    -1.220 OA 
HETATM    2  C   UNL     1     -12.987   9.161  72.296  1.00  0.00    -0.420 C  
HETATM    3  H   UNL     1     -14.051   9.942  73.736  1.00  0.00     0.000 HD 
ENDROOT
BRANCH   2   4
HETATM    4  C   UNL     1     -13.504  10.163  71.263  1.00  0.00    -0.228 C  
BRANCH   4   5
HETATM    5  O   UNL     1     -12.536  11.207  71.091  1.00  0.00    -0.377 OA 
BRANCH   5   6
HETATM    6  C   UNL     1     -12.016  11.407  69.842  1.00  0.00    -0.359 A  
HETATM    7  O   UNL     1     -10.821  17.675  68.609  1.00  0.00    -0.213 OA 
HETATM    8  O   UNL     1     -10.421  16.592  66.666  1.00  0.00    -0.297 OA 
HETATM    9  C   UNL     1     -11.721  10.357  68.959  1.00  0.00    -0.167 A  
HETATM   10  C   UNL     1     -11.239  10.608  67.675  1.00  0.00    -0.361 A  
HETATM   11  C   UNL     1     -10.808  16.645  67.961  1.00  0.00    -0.337 C  
HETATM   12  C   UNL     1     -11.046  11.915  67.251  1.00  0.00    -0.344 A  
HETATM   13  O   UNL     1     -11.063  14.228  67.625  1.00  0.00    -0.277 OA 
HETATM   14  C   UNL     1     -11.194  15.304  68.477  1.00  0.00    -0.303 C  
HETATM   15  C   UNL     1     -11.316  12.972  68.121  1.00  0.00    -0.294 A  
HETATM   16  C   UNL     1     -11.637  15.224  69.737  1.00  0.00    -0.335 C  
HETATM   17  C   UNL     1     -11.801  12.732  69.415  1.00  0.00    -0.359 A  
HETATM   18  O   UNL     1     -12.466  13.867  71.426  1.00  0.00    -0.351 OA 
HETATM   19  C   UNL     1     -12.021  13.914  70.290  1.00  0.00    -0.331 C  
ENDBRANCH   5   6
ENDBRANCH   4   5
ENDBRANCH   2   4
BRANCH   2  20
HETATM   20  C   UNL     1     -12.814   7.757  71.705  1.00  0.00    -0.327 C  
BRANCH  20  21
HETATM   21  O   UNL     1     -11.492   7.262  71.756  1.00  0.00    -0.254 OA 
BRANCH  21  22
HETATM   22  C   UNL     1     -10.734   7.237  70.607  1.00  0.00    -0.235 A  
HETATM   23  C   UNL     1      -7.843   9.807  70.327  1.00  0.00    -0.190 C  
HETATM   24  C   UNL     1      -8.777   8.914  71.016  1.00  0.00    -0.224 C  
HETATM   25  C   UNL     1      -9.613   7.994  70.188  1.00  0.00    -0.175 A  
HETATM   26  C   UNL     1      -9.171   7.855  68.852  1.00  0.00    -0.144 A  
HETATM   27  C   UNL     1      -7.567   9.588  69.043  1.00  0.00    -0.075 C  
HETATM   28  C   UNL     1      -9.751   6.925  67.981  1.00  0.00    -0.138 A  
HETATM   29  O   UNL     1      -8.153   8.597  68.285  1.00  0.00    -0.115 OA 
HETATM   30  C   UNL     1     -10.796   6.128  68.419  1.00  0.00    -0.382 A  
HETATM   31  C   UNL     1      -6.511  10.436  68.431  1.00  0.00    -0.055 C  
HETATM   32  O   UNL     1      -6.296  10.128  67.134  1.00  0.00    -0.065 OA 
HETATM   33  C   UNL     1     -11.294   6.303  69.707  1.00  0.00    -0.506 A  
HETATM   34  O   UNL     1      -8.726   8.930  72.236  1.00  0.00    -0.395 OA 
HETATM   35  O   UNL     1      -5.892  11.307  69.021  1.00  0.00    -0.040 OA 
ENDBRANCH  21  22
ENDBRANCH  20  21
ENDBRANCH   2  20
TORSDOF 6
ENDMDL
MODEL       38
REMARK 921   NORMALIZED FREE ENERGY PREDICTED BY IDOCK:   -7.66 KCAL/MOL
REMARK 922        TOTAL FREE ENERGY PREDICTED BY IDOCK:  -11.65 KCAL/MOL
REMARK 923 INTER-LIGAND FREE ENERGY PREDICTED BY IDOCK:  -10.97 KCAL/MOL
REMARK 924 INTRA-LIGAND FREE ENERGY PREDICTED BY IDOCK:   -0.68 KCAL/MOL
REMARK 927      BINDING AFFINITY PREDICTED BY RF-SCORE:    0.00 PKD
ROOT
HETATM    1  O   UNL     1     -14.047   8.808  73.211  1.00  0.00    -1.180 OA 
HETATM    2  C   UNL     1     -13.433   9.297  72.003  1.00  0.00    -0.451 C  
HETATM    3  H   UNL     1     -14.004   7.858  73.194  1.00  0.00     0.000 HD 
ENDROOT
BRANCH   2   4
HETATM    4  C   UNL     1     -11.995   8.784  71.941  1.00  0.00    -0.365 C  
BRANCH   4   5
HETATM    5  O   UNL     1     -11.927   7.672  71.040  1.00  0.00    -0.299 OA 
BRANCH   5   6
HETATM    6  C   UNL     1     -11.327   6.523  71.476  1.00  0.00    -0.291 A  
HETATM    7  O   UNL     1      -8.414   3.252  66.674  1.00  0.00    -0.099 OA 
HETATM    8  O   UNL     1      -8.255   1.919  68.494  1.00  0.00    -0.055 OA 
HETATM    9  C   UNL     1     -11.298   6.139  72.826  1.00  0.00    -0.259 A  
HETATM   10  C   UNL     1     -10.719   4.933  73.221  1.00  0.00    -0.316 A  
HETATM   11  C   UNL     1      -8.660   3.036  67.847  1.00  0.00    -0.095 C  
HETATM   12  C   UNL     1     -10.159   4.090  72.271  1.00  0.00    -0.240 A  
HETATM   13  O   UNL     1      -9.555   3.580  70.066  1.00  0.00    -0.188 OA 
HETATM   14  C   UNL     1      -9.417   3.950  68.744  1.00  0.00    -0.155 C  
HETATM   15  C   UNL     1     -10.161   4.463  70.927  1.00  0.00    -0.129 A  
HETATM   16  C   UNL     1      -9.911   5.076  68.216  1.00  0.00    -0.193 C  
HETATM   17  C   UNL     1     -10.740   5.673  70.518  1.00  0.00    -0.344 A  
HETATM   18  O   UNL     1     -11.142   7.011  68.562  1.00  0.00    -0.122 OA 
HETATM   19  C   UNL     1     -10.661   6.012  69.072  1.00  0.00    -0.291 C  
ENDBRANCH   5   6
ENDBRANCH   4   5
ENDBRANCH   2   4
BRANCH   2  20
HETATM   20  C   UNL     1     -13.502  10.828  72.031  1.00  0.00    -0.191 C  
BRANCH  20  21
HETATM   21  O   UNL     1     -12.608  11.470  71.146  1.00  0.00    -0.389 OA 
BRANCH  21  22
HETATM   22  C   UNL     1     -12.674  12.836  70.991  1.00  0.00    -0.243 A  
HETATM   23  C   UNL     1     -11.092  14.340  67.784  1.00  0.00    -0.294 C  
HETATM   24  C   UNL     1     -11.759  13.319  68.594  1.00  0.00    -0.341 C  
HETATM   25  C   UNL     1     -12.235  13.700  69.958  1.00  0.00    -0.395 A  
HETATM   26  C   UNL     1     -12.283  15.096  70.185  1.00  0.00    -0.352 A  
HETATM   27  C   UNL     1     -11.172  15.615  68.157  1.00  0.00    -0.345 C  
HETATM   28  C   UNL     1     -12.838  15.630  71.353  1.00  0.00    -0.546 A  
HETATM   29  O   UNL     1     -11.803  16.046  69.305  1.00  0.00    -0.345 OA 
HETATM   30  C   UNL     1     -13.341  14.783  72.328  1.00  0.00    -0.488 A  
HETATM   31  C   UNL     1     -10.597  16.623  67.228  1.00  0.00    -0.281 C  
HETATM   32  O   UNL     1     -10.742  17.884  67.688  1.00  0.00    -0.399 OA 
HETATM   33  C   UNL     1     -13.234  13.405  72.155  1.00  0.00    -0.557 A  
HETATM   34  O   UNL     1     -11.958  12.248  68.041  1.00  0.00    -0.425 OA 
HETATM   35  O   UNL     1     -10.063  16.359  66.163  1.00  0.00    -0.309 OA 
ENDBRANCH  21  22
ENDBRANCH  20  21
ENDBRANCH   2  20
TORSDOF 6
ENDMDL
MODEL       39
REMARK 921   NORMALIZED FREE ENERGY PREDICTED BY IDOCK:   -7.65 KCAL/MOL
REMARK 922        TOTAL FREE ENERGY PREDICTED BY IDOCK:  -11.63 KCAL/MOL
REMARK 923 INTER-LIGAND FREE ENERGY PREDICTED BY IDOCK:  -10.63 KCAL/MOL
REMARK 924 INTRA-LIGAND FREE ENERGY PREDICTED BY IDOCK:   -1.01 KCAL/MOL
REMARK 927      BINDING AFFINITY PREDICTED BY RF-SCORE:    0.00 PKD
ROOT
HETATM    1  O   UNL     1     -11.587  14.285  71.397  1.00  0.00    -0.464 OA 
HETATM    2  C   UNL     1     -12.508  13.432  70.690  1.00  0.00    -0.311 C  
HETATM    3  H   UNL     1     -11.973  14.493  72.240  1.00  0.00     0.000 HD 
ENDROOT
BRANCH   2   4
HETATM    4  C   UNL     1     -12.765  12.183  71.534  1.00  0.00    -0.243 C  
BRANCH   4   5
HETATM    5  O   UNL     1     -12.064  11.072  70.961  1.00  0.00    -0.340 OA 
BRANCH   5   6
HETATM    6  C   UNL     1     -12.546   9.814  71.195  1.00  0.00    -0.345 A  
HETATM    7  O   UNL     1      -8.051   5.208  70.287  1.00  0.00    -0.083 OA 
HETATM    8  O   UNL     1      -9.982   4.098  70.674  1.00  0.00    -0.197 OA 
HETATM    9  C   UNL     1     -13.854   9.566  71.642  1.00  0.00    -0.287 A  
HETATM   10  C   UNL     1     -14.321   8.264  71.819  1.00  0.00    -0.574 A  
HETATM   11  C   UNL     1      -9.250   5.222  70.499  1.00  0.00    -0.146 C  
HETATM   12  C   UNL     1     -13.488   7.187  71.551  1.00  0.00    -0.411 A  
HETATM   13  O   UNL     1     -11.421   6.287  70.915  1.00  0.00    -0.327 OA 
HETATM   14  C   UNL     1     -10.085   6.448  70.610  1.00  0.00    -0.187 C  
HETATM   15  C   UNL     1     -12.180   7.413  71.124  1.00  0.00    -0.324 A  
HETATM   16  C   UNL     1      -9.489   7.630  70.416  1.00  0.00    -0.164 C  
HETATM   17  C   UNL     1     -11.698   8.717  70.942  1.00  0.00    -0.299 A  
HETATM   18  O   UNL     1      -9.727   9.934  70.300  1.00  0.00    -0.248 OA 
HETATM   19  C   UNL     1     -10.279   8.869  70.525  1.00  0.00    -0.204 C  
ENDBRANCH   5   6
ENDBRANCH   4   5
ENDBRANCH   2   4
BRANCH   2  20
HETATM   20  C   UNL     1     -11.884  13.095  69.331  1.00  0.00    -0.326 C  
BRANCH  20  21
HETATM   21  O   UNL     1     -12.398  13.847  68.250  1.00  0.00    -0.254 OA 
BRANCH  21  22
HETATM   22  C   UNL     1     -11.526  14.435  67.362  1.00  0.00    -0.358 A  
HETATM   23  C   UNL     1     -10.292  18.018  68.190  1.00  0.00    -0.398 C  
HETATM   24  C   UNL     1     -10.772  16.666  68.487  1.00  0.00    -0.351 C  
HETATM   25  C   UNL     1     -10.871  15.690  67.360  1.00  0.00    -0.315 A  
HETATM   26  C   UNL     1     -10.174  16.082  66.193  1.00  0.00    -0.324 A  
HETATM   27  C   UNL     1      -9.707  18.253  67.018  1.00  0.00    -0.303 C  
HETATM   28  C   UNL     1     -10.042  15.223  65.095  1.00  0.00    -0.323 A  
HETATM   29  O   UNL     1      -9.570  17.312  66.020  1.00  0.00    -0.455 OA 
HETATM   30  C   UNL     1     -10.617  13.963  65.132  1.00  0.00    -0.391 A  
HETATM   31  C   UNL     1      -9.115  19.603  66.823  1.00  0.00    -0.355 C  
HETATM   32  O   UNL     1      -8.535  19.737  65.611  1.00  0.00    -0.362 OA 
HETATM   33  C   UNL     1     -11.369  13.589  66.243  1.00  0.00    -0.327 A  
HETATM   34  O   UNL     1     -10.968  16.418  69.667  1.00  0.00    -0.323 OA 
HETATM   35  O   UNL     1      -9.132  20.494  67.657  1.00  0.00    -0.306 OA 
ENDBRANCH  21  22
ENDBRANCH  20  21
ENDBRANCH   2  20
TORSDOF 6
ENDMDL
MODEL       40
REMARK 921   NORMALIZED FREE ENERGY PREDICTED BY IDOCK:   -7.61 KCAL/MOL
REMARK 922        TOTAL FREE ENERGY PREDICTED BY IDOCK:  -11.58 KCAL/MOL
REMARK 923 INTER-LIGAND FREE ENERGY PREDICTED BY IDOCK:   -9.93 KCAL/MOL
REMARK 924 INTRA-LIGAND FREE ENERGY PREDICTED BY IDOCK:   -1.64 KCAL/MOL
REMARK 927      BINDING AFFINITY PREDICTED BY RF-SCORE:    0.00 PKD
ROOT
HETATM    1  O   UNL     1     -13.400   8.825  73.108  1.00  0.00    -0.918 OA 
HETATM    2  C   UNL     1     -14.155   8.557  71.911  1.00  0.00    -0.447 C  
HETATM    3  H   UNL     1     -13.607   8.147  73.740  1.00  0.00     0.000 HD 
ENDROOT
BRANCH   2   4
HETATM    4  C   UNL     1     -13.789   7.162  71.404  1.00  0.00    -0.251 C  
BRANCH   4   5
HETATM    5  O   UNL     1     -12.455   6.842  71.820  1.00  0.00    -0.353 OA 
BRANCH   5   6
HETATM    6  C   UNL     1     -11.457   6.892  70.886  1.00  0.00    -0.323 A  
HETATM    7  O   UNL     1      -5.897   9.242  73.294  1.00  0.00    -0.274 OA 
HETATM    8  O   UNL     1      -5.538   8.999  71.075  1.00  0.00    -0.033 OA 
HETATM    9  C   UNL     1     -11.615   6.424  69.572  1.00  0.00    -0.303 A  
HETATM   10  C   UNL     1     -10.588   6.540  68.636  1.00  0.00    -0.289 A  
HETATM   11  C   UNL     1      -6.307   8.945  72.187  1.00  0.00    -0.026 C  
HETATM   12  C   UNL     1      -9.384   7.128  68.999  1.00  0.00    -0.140 A  
HETATM   13  O   UNL     1      -7.967   8.118  70.580  1.00  0.00    -0.090 OA 
HETATM   14  C   UNL     1      -7.684   8.471  71.883  1.00  0.00    -0.104 C  
HETATM   15  C   UNL     1      -9.202   7.581  70.306  1.00  0.00    -0.157 A  
HETATM   16  C   UNL     1      -8.561   8.411  72.892  1.00  0.00    -0.232 C  
HETATM   17  C   UNL     1     -10.227   7.470  71.255  1.00  0.00    -0.198 A  
HETATM   18  O   UNL     1     -10.731   7.936  73.559  1.00  0.00    -0.199 OA 
HETATM   19  C   UNL     1      -9.933   7.940  72.635  1.00  0.00    -0.266 C  
ENDBRANCH   5   6
ENDBRANCH   4   5
ENDBRANCH   2   4
BRANCH   2  20
HETATM   20  C   UNL     1     -13.819   9.651  70.891  1.00  0.00     0.159 C  
BRANCH  20  21
HETATM   21  O   UNL     1     -12.684  10.426  71.219  1.00  0.00    -0.359 OA 
BRANCH  21  22
HETATM   22  C   UNL     1     -12.723  11.791  71.041  1.00  0.00    -0.275 A  
HETATM   23  C   UNL     1     -11.157  13.205  67.787  1.00  0.00    -0.287 C  
HETATM   24  C   UNL     1     -11.835  12.212  68.624  1.00  0.00    -0.306 C  
HETATM   25  C   UNL     1     -12.282  12.627  69.987  1.00  0.00    -0.267 A  
HETATM   26  C   UNL     1     -12.296  14.027  70.191  1.00  0.00    -0.345 A  
HETATM   27  C   UNL     1     -11.205  14.488  68.138  1.00  0.00    -0.284 C  
HETATM   28  C   UNL     1     -12.823  14.593  71.357  1.00  0.00    -0.400 A  
HETATM   29  O   UNL     1     -11.809  14.952  69.288  1.00  0.00    -0.299 OA 
HETATM   30  C   UNL     1     -13.329  13.774  72.354  1.00  0.00    -0.635 A  
HETATM   31  C   UNL     1     -10.622  15.467  67.183  1.00  0.00    -0.305 C  
HETATM   32  O   UNL     1     -10.733  16.738  67.624  1.00  0.00    -0.339 OA 
HETATM   33  C   UNL     1     -13.255  12.392  72.204  1.00  0.00    -0.491 A  
HETATM   34  O   UNL     1     -12.064  11.136  68.093  1.00  0.00    -0.633 OA 
HETATM   35  O   UNL     1     -10.110  15.172  66.116  1.00  0.00    -0.263 OA 
ENDBRANCH  21  22
ENDBRANCH  20  21
ENDBRANCH   2  20
TORSDOF 6
ENDMDL
MODEL       41
REMARK 921   NORMALIZED FREE ENERGY PREDICTED BY IDOCK:   -7.59 KCAL/MOL
REMARK 922        TOTAL FREE ENERGY PREDICTED BY IDOCK:  -11.55 KCAL/MOL
REMARK 923 INTER-LIGAND FREE ENERGY PREDICTED BY IDOCK:   -9.38 KCAL/MOL
REMARK 924 INTRA-LIGAND FREE ENERGY PREDICTED BY IDOCK:   -2.18 KCAL/MOL
REMARK 927      BINDING AFFINITY PREDICTED BY RF-SCORE:    0.00 PKD
ROOT
HETATM    1  O   UNL     1      -6.715  12.962  69.882  1.00  0.00    -0.353 OA 
HETATM    2  C   UNL     1      -7.392  12.836  68.616  1.00  0.00    -0.099 C  
HETATM    3  H   UNL     1      -6.617  12.089  70.246  1.00  0.00     0.000 HD 
ENDROOT
BRANCH   2   4
HETATM    4  C   UNL     1      -6.570  11.919  67.710  1.00  0.00    -0.084 C  
BRANCH   4   5
HETATM    5  O   UNL     1      -6.737  10.560  68.135  1.00  0.00    -0.063 OA 
BRANCH   5   6
HETATM    6  C   UNL     1      -7.876   9.902  67.762  1.00  0.00    -0.094 A  
HETATM    7  O   UNL     1     -11.316   7.780  72.851  1.00  0.00    -0.387 OA 
HETATM    8  O   UNL     1     -12.356   6.940  71.028  1.00  0.00    -0.381 OA 
HETATM    9  C   UNL     1      -8.276   9.763  66.423  1.00  0.00    -0.120 A  
HETATM   10  C   UNL     1      -9.418   9.039  66.083  1.00  0.00    -0.318 A  
HETATM   11  C   UNL     1     -11.372   7.634  71.643  1.00  0.00    -0.251 C  
HETATM   12  C   UNL     1     -10.180   8.441  67.076  1.00  0.00    -0.377 A  
HETATM   13  O   UNL     1     -10.643   7.985  69.327  1.00  0.00    -0.222 OA 
HETATM   14  C   UNL     1     -10.398   8.194  70.668  1.00  0.00    -0.199 C  
HETATM   15  C   UNL     1      -9.810   8.584  68.413  1.00  0.00    -0.173 A  
HETATM   16  C   UNL     1      -9.349   8.870  71.151  1.00  0.00    -0.326 C  
HETATM   17  C   UNL     1      -8.663   9.309  68.768  1.00  0.00    -0.132 A  
HETATM   18  O   UNL     1      -7.391  10.021  70.680  1.00  0.00    -0.308 OA 
HETATM   19  C   UNL     1      -8.365   9.447  70.218  1.00  0.00    -0.195 C  
ENDBRANCH   5   6
ENDBRANCH   4   5
ENDBRANCH   2   4
BRANCH   2  20
HETATM   20  C   UNL     1      -7.548  14.243  68.028  1.00  0.00    -0.142 C  
BRANCH  20  21
HETATM   21  O   UNL     1      -8.779  14.468  67.371  1.00  0.00    -0.176 OA 
BRANCH  21  22
HETATM   22  C   UNL     1      -9.921  13.870  67.853  1.00  0.00    -0.242 A  
HETATM   23  C   UNL     1     -11.380  15.241  71.175  1.00  0.00    -0.402 C  
HETATM   24  C   UNL     1     -10.659  15.308  69.902  1.00  0.00    -0.276 C  
HETATM   25  C   UNL     1     -10.721  14.124  68.994  1.00  0.00    -0.249 A  
HETATM   26  C   UNL     1     -11.741  13.198  69.318  1.00  0.00    -0.321 A  
HETATM   27  C   UNL     1     -12.273  14.271  71.363  1.00  0.00    -0.331 C  
HETATM   28  C   UNL     1     -12.032  12.108  68.490  1.00  0.00    -0.273 A  
HETATM   29  O   UNL     1     -12.531  13.272  70.449  1.00  0.00    -0.295 OA 
HETATM   30  C   UNL     1     -11.300  11.908  67.331  1.00  0.00    -0.389 A  
HETATM   31  C   UNL     1     -13.074  14.331  72.613  1.00  0.00    -0.478 C  
HETATM   32  O   UNL     1     -13.958  13.314  72.702  1.00  0.00    -0.741 OA 
HETATM   33  C   UNL     1     -10.243  12.766  67.034  1.00  0.00    -0.245 A  
HETATM   34  O   UNL     1     -10.136  16.381  69.644  1.00  0.00    -0.235 OA 
HETATM   35  O   UNL     1     -12.966  15.197  73.466  1.00  0.00    -0.500 OA 
ENDBRANCH  21  22
ENDBRANCH  20  21
ENDBRANCH   2  20
TORSDOF 6
ENDMDL
MODEL       42
REMARK 921   NORMALIZED FREE ENERGY PREDICTED BY IDOCK:   -7.58 KCAL/MOL
REMARK 922        TOTAL FREE ENERGY PREDICTED BY IDOCK:  -11.53 KCAL/MOL
REMARK 923 INTER-LIGAND FREE ENERGY PREDICTED BY IDOCK:  -10.31 KCAL/MOL
REMARK 924 INTRA-LIGAND FREE ENERGY PREDICTED BY IDOCK:   -1.23 KCAL/MOL
REMARK 927      BINDING AFFINITY PREDICTED BY RF-SCORE:    0.00 PKD
ROOT
HETATM    1  O   UNL     1     -12.534  14.400  63.386  1.00  0.00    -1.109 OA 
HETATM    2  C   UNL     1     -12.198  14.874  64.705  1.00  0.00    -0.341 C  
HETATM    3  H   UNL     1     -12.334  15.094  62.769  1.00  0.00     0.000 HD 
ENDROOT
BRANCH   2   4
HETATM    4  C   UNL     1     -10.718  15.258  64.724  1.00  0.00    -0.317 C  
BRANCH   4   5
HETATM    5  O   UNL     1     -10.503  16.263  65.722  1.00  0.00    -0.347 OA 
BRANCH   5   6
HETATM    6  C   UNL     1      -9.755  15.935  66.820  1.00  0.00    -0.238 A  
HETATM    7  O   UNL     1      -6.219  20.927  69.014  1.00  0.00    -0.260 OA 
HETATM    8  O   UNL     1      -5.578  19.145  70.250  1.00  0.00    -0.225 OA 
HETATM    9  C   UNL     1      -9.806  14.672  67.430  1.00  0.00    -0.222 A  
HETATM   10  C   UNL     1      -8.988  14.363  68.517  1.00  0.00    -0.187 A  
HETATM   11  C   UNL     1      -6.292  19.737  69.265  1.00  0.00    -0.326 C  
HETATM   12  C   UNL     1      -8.105  15.313  69.011  1.00  0.00    -0.202 A  
HETATM   13  O   UNL     1      -7.174  17.463  69.008  1.00  0.00    -0.251 OA 
HETATM   14  C   UNL     1      -7.167  18.766  68.556  1.00  0.00    -0.292 C  
HETATM   15  C   UNL     1      -8.055  16.580  68.430  1.00  0.00    -0.196 A  
HETATM   16  C   UNL     1      -7.898  19.217  67.530  1.00  0.00    -0.272 C  
HETATM   17  C   UNL     1      -8.871  16.903  67.337  1.00  0.00    -0.212 A  
HETATM   18  O   UNL     1      -9.407  18.709  65.844  1.00  0.00    -0.475 OA 
HETATM   19  C   UNL     1      -8.783  18.289  66.806  1.00  0.00    -0.272 C  
ENDBRANCH   5   6
ENDBRANCH   4   5
ENDBRANCH   2   4
BRANCH   2  20
HETATM   20  C   UNL     1     -12.520  13.754  65.700  1.00  0.00    -0.503 C  
BRANCH  20  21
HETATM   21  O   UNL     1     -12.556  12.460  65.133  1.00  0.00    -0.622 OA 
BRANCH  21  22
HETATM   22  C   UNL     1     -11.427  11.675  65.168  1.00  0.00    -0.111 A  
HETATM   23  C   UNL     1     -10.007  10.759  68.660  1.00  0.00    -0.189 C  
HETATM   24  C   UNL     1     -11.046  11.101  67.686  1.00  0.00    -0.287 C  
HETATM   25  C   UNL     1     -10.671  11.140  66.240  1.00  0.00    -0.298 A  
HETATM   26  C   UNL     1      -9.435  10.519  65.945  1.00  0.00    -0.190 A  
HETATM   27  C   UNL     1      -8.863  10.234  68.227  1.00  0.00    -0.126 C  
HETATM   28  C   UNL     1      -9.001  10.338  64.627  1.00  0.00    -0.240 A  
HETATM   29  O   UNL     1      -8.557  10.038  66.897  1.00  0.00    -0.125 OA 
HETATM   30  C   UNL     1      -9.782  10.791  63.576  1.00  0.00    -0.387 A  
HETATM   31  C   UNL     1      -7.901   9.777  69.264  1.00  0.00    -0.105 C  
HETATM   32  O   UNL     1      -6.781   9.249  68.725  1.00  0.00    -0.052 OA 
HETATM   33  C   UNL     1     -10.966  11.472  63.849  1.00  0.00    -0.474 A  
HETATM   34  O   UNL     1     -12.173  11.238  68.136  1.00  0.00    -0.622 OA 
HETATM   35  O   UNL     1      -8.090   9.854  70.467  1.00  0.00    -0.230 OA 
ENDBRANCH  21  22
ENDBRANCH  20  21
ENDBRANCH   2  20
TORSDOF 6
ENDMDL
MODEL       43
REMARK 921   NORMALIZED FREE ENERGY PREDICTED BY IDOCK:   -7.57 KCAL/MOL
REMARK 922        TOTAL FREE ENERGY PREDICTED BY IDOCK:  -11.52 KCAL/MOL
REMARK 923 INTER-LIGAND FREE ENERGY PREDICTED BY IDOCK:  -10.07 KCAL/MOL
REMARK 924 INTRA-LIGAND FREE ENERGY PREDICTED BY IDOCK:   -1.45 KCAL/MOL
REMARK 927      BINDING AFFINITY PREDICTED BY RF-SCORE:    0.00 PKD
ROOT
HETATM    1  O   UNL     1      -9.785  11.864  69.095  1.00  0.00    -0.407 OA 
HETATM    2  C   UNL     1     -11.138  11.851  68.600  1.00  0.00    -0.246 C  
HETATM    3  H   UNL     1      -9.748  12.472  69.824  1.00  0.00     0.000 HD 
ENDROOT
BRANCH   2   4
HETATM    4  C   UNL     1     -12.071  11.444  69.740  1.00  0.00    -0.320 C  
BRANCH   4   5
HETATM    5  O   UNL     1     -11.365  10.588  70.647  1.00  0.00    -0.322 OA 
BRANCH   5   6
HETATM    6  C   UNL     1     -11.933   9.389  70.979  1.00  0.00    -0.315 A  
HETATM    7  O   UNL     1      -7.852   4.391  70.199  1.00  0.00    -0.055 OA 
HETATM    8  O   UNL     1      -9.846   3.464  70.730  1.00  0.00    -0.160 OA 
HETATM    9  C   UNL     1     -13.235   9.275  71.491  1.00  0.00    -0.433 A  
HETATM   10  C   UNL     1     -13.795   8.028  71.769  1.00  0.00    -0.452 A  
HETATM   11  C   UNL     1      -9.037   4.513  70.455  1.00  0.00    -0.115 C  
HETATM   12  C   UNL     1     -13.060   6.873  71.539  1.00  0.00    -0.341 A  
HETATM   13  O   UNL     1     -11.098   5.772  70.884  1.00  0.00    -0.268 OA 
HETATM   14  C   UNL     1      -9.768   5.807  70.520  1.00  0.00    -0.177 C  
HETATM   15  C   UNL     1     -11.757   6.967  71.049  1.00  0.00    -0.345 A  
HETATM   16  C   UNL     1      -9.091   6.923  70.227  1.00  0.00    -0.153 C  
HETATM   17  C   UNL     1     -11.184   8.214  70.765  1.00  0.00    -0.275 A  
HETATM   18  O   UNL     1      -9.154   9.228  69.972  1.00  0.00    -0.175 OA 
HETATM   19  C   UNL     1      -9.777   8.226  70.287  1.00  0.00    -0.175 C  
ENDBRANCH   5   6
ENDBRANCH   4   5
ENDBRANCH   2   4
BRANCH   2  20
HETATM   20  C   UNL     1     -11.197  10.871  67.424  1.00  0.00    -0.273 C  
BRANCH  20  21
HETATM   21  O   UNL     1     -10.389  11.231  66.322  1.00  0.00    -0.232 OA 
BRANCH  21  22
HETATM   22  C   UNL     1     -10.733  12.325  65.561  1.00  0.00    -0.279 A  
HETATM   23  C   UNL     1      -9.549  15.803  66.805  1.00  0.00    -0.253 C  
HETATM   24  C   UNL     1      -9.480  14.351  66.628  1.00  0.00    -0.283 C  
HETATM   25  C   UNL     1     -10.455  13.707  65.697  1.00  0.00    -0.304 A  
HETATM   26  C   UNL     1     -11.121  14.613  64.838  1.00  0.00    -0.401 A  
HETATM   27  C   UNL     1     -10.269  16.525  65.949  1.00  0.00    -0.349 C  
HETATM   28  C   UNL     1     -11.958  14.168  63.809  1.00  0.00    -0.156 A  
HETATM   29  O   UNL     1     -11.015  15.988  64.922  1.00  0.00    -0.472 OA 
HETATM   30  C   UNL     1     -12.165  12.810  63.627  1.00  0.00    -0.597 A  
HETATM   31  C   UNL     1     -10.192  18.003  66.090  1.00  0.00    -0.363 C  
HETATM   32  O   UNL     1     -10.944  18.643  65.169  1.00  0.00    -0.543 OA 
HETATM   33  C   UNL     1     -11.578  11.906  64.510  1.00  0.00    -0.344 A  
HETATM   34  O   UNL     1      -8.555  13.789  67.194  1.00  0.00    -0.206 OA 
HETATM   35  O   UNL     1      -9.524  18.586  66.928  1.00  0.00    -0.280 OA 
ENDBRANCH  21  22
ENDBRANCH  20  21
ENDBRANCH   2  20
TORSDOF 6
ENDMDL
MODEL       44
REMARK 921   NORMALIZED FREE ENERGY PREDICTED BY IDOCK:   -7.57 KCAL/MOL
REMARK 922        TOTAL FREE ENERGY PREDICTED BY IDOCK:  -11.52 KCAL/MOL
REMARK 923 INTER-LIGAND FREE ENERGY PREDICTED BY IDOCK:  -10.40 KCAL/MOL
REMARK 924 INTRA-LIGAND FREE ENERGY PREDICTED BY IDOCK:   -1.13 KCAL/MOL
REMARK 927      BINDING AFFINITY PREDICTED BY RF-SCORE:    0.00 PKD
ROOT
HETATM    1  O   UNL     1     -12.361  14.209  67.712  1.00  0.00    -0.565 OA 
HETATM    2  C   UNL     1     -11.982  14.936  66.527  1.00  0.00    -0.073 C  
HETATM    3  H   UNL     1     -13.296  14.046  67.666  1.00  0.00     0.000 HD 
ENDROOT
BRANCH   2   4
HETATM    4  C   UNL     1     -12.366  14.108  65.301  1.00  0.00    -0.460 C  
BRANCH   4   5
HETATM    5  O   UNL     1     -12.413  12.722  65.662  1.00  0.00    -0.586 OA 
BRANCH   5   6
HETATM    6  C   UNL     1     -11.489  11.878  65.109  1.00  0.00    -0.243 A  
HETATM    7  O   UNL     1      -9.426   7.349  69.289  1.00  0.00    -0.154 OA 
HETATM    8  O   UNL     1      -8.147   7.092  67.442  1.00  0.00    -0.110 OA 
HETATM    9  C   UNL     1     -11.088  11.957  63.766  1.00  0.00    -0.510 A  
HETATM   10  C   UNL     1     -10.105  11.109  63.256  1.00  0.00    -0.426 A  
HETATM   11  C   UNL     1      -9.107   7.708  68.170  1.00  0.00    -0.132 C  
HETATM   12  C   UNL     1      -9.506  10.169  64.081  1.00  0.00    -0.353 A  
HETATM   13  O   UNL     1      -9.278   9.081  66.144  1.00  0.00    -0.183 OA 
HETATM   14  C   UNL     1      -9.715   8.846  67.431  1.00  0.00    -0.176 C  
HETATM   15  C   UNL     1      -9.904  10.062  65.414  1.00  0.00    -0.314 A  
HETATM   16  C   UNL     1     -10.652   9.568  68.056  1.00  0.00    -0.282 C  
HETATM   17  C   UNL     1     -10.891  10.909  65.939  1.00  0.00    -0.132 A  
HETATM   18  O   UNL     1     -12.106  11.373  67.960  1.00  0.00    -0.629 OA 
HETATM   19  C   UNL     1     -11.286  10.699  67.357  1.00  0.00    -0.205 C  
ENDBRANCH   5   6
ENDBRANCH   4   5
ENDBRANCH   2   4
BRANCH   2  20
HETATM   20  C   UNL     1     -10.474  15.198  66.602  1.00  0.00    -0.287 C  
BRANCH  20  21
HETATM   21  O   UNL     1     -10.022  16.250  65.773  1.00  0.00    -0.350 OA 
BRANCH  21  22
HETATM   22  C   UNL     1      -9.633  17.441  66.344  1.00  0.00    -0.276 A  
HETATM   23  C   UNL     1      -6.776  17.307  68.965  1.00  0.00    -0.238 C  
HETATM   24  C   UNL     1      -7.530  16.878  67.784  1.00  0.00    -0.164 C  
HETATM   25  C   UNL     1      -8.632  17.760  67.293  1.00  0.00    -0.238 A  
HETATM   26  C   UNL     1      -8.605  19.070  67.826  1.00  0.00    -0.298 A  
HETATM   27  C   UNL     1      -6.899  18.562  69.390  1.00  0.00    -0.155 C  
HETATM   28  C   UNL     1      -9.474  20.066  67.366  1.00  0.00    -0.508 A  
HETATM   29  O   UNL     1      -7.745  19.491  68.822  1.00  0.00    -0.344 OA 
HETATM   30  C   UNL     1     -10.401  19.772  66.379  1.00  0.00    -0.619 A  
HETATM   31  C   UNL     1      -6.009  18.983  70.504  1.00  0.00    -0.064 C  
HETATM   32  O   UNL     1      -6.200  20.273  70.851  1.00  0.00    -0.494 OA 
HETATM   33  C   UNL     1     -10.492  18.468  65.896  1.00  0.00    -0.379 A  
HETATM   34  O   UNL     1      -7.128  15.864  67.235  1.00  0.00    -0.174 OA 
HETATM   35  O   UNL     1      -5.188  18.260  71.045  1.00  0.00    -0.272 OA 
ENDBRANCH  21  22
ENDBRANCH  20  21
ENDBRANCH   2  20
TORSDOF 6
ENDMDL
MODEL       45
REMARK 921   NORMALIZED FREE ENERGY PREDICTED BY IDOCK:   -7.56 KCAL/MOL
REMARK 922        TOTAL FREE ENERGY PREDICTED BY IDOCK:  -11.51 KCAL/MOL
REMARK 923 INTER-LIGAND FREE ENERGY PREDICTED BY IDOCK:  -10.53 KCAL/MOL
REMARK 924 INTRA-LIGAND FREE ENERGY PREDICTED BY IDOCK:   -0.98 KCAL/MOL
REMARK 927      BINDING AFFINITY PREDICTED BY RF-SCORE:    0.00 PKD
ROOT
HETATM    1  O   UNL     1     -12.523  13.728  63.143  1.00  0.00    -1.089 OA 
HETATM    2  C   UNL     1     -11.830  13.461  64.378  1.00  0.00    -0.408 C  
HETATM    3  H   UNL     1     -13.267  14.284  63.343  1.00  0.00     0.000 HD 
ENDROOT
BRANCH   2   4
HETATM    4  C   UNL     1     -11.408  14.792  65.001  1.00  0.00    -0.391 C  
BRANCH   4   5
HETATM    5  O   UNL     1     -10.730  14.542  66.238  1.00  0.00    -0.298 OA 
BRANCH   5   6
HETATM    6  C   UNL     1     -10.514  15.597  67.082  1.00  0.00    -0.303 A  
HETATM    7  O   UNL     1     -12.825  14.529  73.061  1.00  0.00    -0.458 OA 
HETATM    8  O   UNL     1     -12.124  16.679  73.061  1.00  0.00    -0.471 OA 
HETATM    9  C   UNL     1      -9.812  16.751  66.699  1.00  0.00    -0.287 A  
HETATM   10  C   UNL     1      -9.659  17.826  67.574  1.00  0.00    -0.268 A  
HETATM   11  C   UNL     1     -12.351  15.483  72.471  1.00  0.00    -0.411 C  
HETATM   12  C   UNL     1     -10.205  17.764  68.848  1.00  0.00    -0.345 A  
HETATM   13  O   UNL     1     -11.366  16.636  70.543  1.00  0.00    -0.219 OA 
HETATM   14  C   UNL     1     -11.943  15.487  71.041  1.00  0.00    -0.381 C  
HETATM   15  C   UNL     1     -10.889  16.618  69.254  1.00  0.00    -0.310 A  
HETATM   16  C   UNL     1     -12.153  14.374  70.328  1.00  0.00    -0.396 C  
HETATM   17  C   UNL     1     -11.051  15.531  68.383  1.00  0.00    -0.315 A  
HETATM   18  O   UNL     1     -11.998  13.325  68.265  1.00  0.00    -0.342 OA 
HETATM   19  C   UNL     1     -11.756  14.333  68.910  1.00  0.00    -0.328 C  
ENDBRANCH   5   6
ENDBRANCH   4   5
ENDBRANCH   2   4
BRANCH   2  20
HETATM   20  C   UNL     1     -10.629  12.565  64.055  1.00  0.00    -0.421 C  
BRANCH  20  21
HETATM   21  O   UNL     1     -10.877  11.182  64.200  1.00  0.00    -0.370 OA 
BRANCH  21  22
HETATM   22  C   UNL     1      -9.891  10.368  64.709  1.00  0.00    -0.340 A  
HETATM   23  C   UNL     1      -9.657  10.058  68.569  1.00  0.00    -0.157 C  
HETATM   24  C   UNL     1     -10.325  10.258  67.281  1.00  0.00    -0.232 C  
HETATM   25  C   UNL     1      -9.540  10.010  66.034  1.00  0.00    -0.279 A  
HETATM   26  C   UNL     1      -8.339   9.291  66.239  1.00  0.00    -0.122 A  
HETATM   27  C   UNL     1      -8.494   9.412  68.601  1.00  0.00    -0.119 C  
HETATM   28  C   UNL     1      -7.556   8.849  65.166  1.00  0.00    -0.099 A  
HETATM   29  O   UNL     1      -7.831   8.959  67.480  1.00  0.00    -0.100 OA 
HETATM   30  C   UNL     1      -7.945   9.132  63.867  1.00  0.00    -0.142 A  
HETATM   31  C   UNL     1      -7.929   9.115  69.943  1.00  0.00    -0.104 C  
HETATM   32  O   UNL     1      -6.758   8.447  69.868  1.00  0.00    -0.041 OA 
HETATM   33  C   UNL     1      -9.084   9.903  63.648  1.00  0.00    -0.294 A  
HETATM   34  O   UNL     1     -11.516  10.524  67.334  1.00  0.00    -0.405 OA 
HETATM   35  O   UNL     1      -8.455   9.423  71.000  1.00  0.00    -0.285 OA 
ENDBRANCH  21  22
ENDBRANCH  20  21
ENDBRANCH   2  20
TORSDOF 6
ENDMDL
MODEL       46
REMARK 921   NORMALIZED FREE ENERGY PREDICTED BY IDOCK:   -7.55 KCAL/MOL
REMARK 922        TOTAL FREE ENERGY PREDICTED BY IDOCK:  -11.50 KCAL/MOL
REMARK 923 INTER-LIGAND FREE ENERGY PREDICTED BY IDOCK:  -10.50 KCAL/MOL
REMARK 924 INTRA-LIGAND FREE ENERGY PREDICTED BY IDOCK:   -0.99 KCAL/MOL
REMARK 927      BINDING AFFINITY PREDICTED BY RF-SCORE:    0.00 PKD
ROOT
HETATM    1  O   UNL     1      -9.053  11.645  65.606  1.00  0.00    -0.341 OA 
HETATM    2  C   UNL     1     -10.484  11.744  65.748  1.00  0.00    -0.260 C  
HETATM    3  H   UNL     1      -8.808  12.107  64.813  1.00  0.00     0.000 HD 
ENDROOT
BRANCH   2   4
HETATM    4  C   UNL     1     -10.870  13.222  65.797  1.00  0.00    -0.274 C  
BRANCH   4   5
HETATM    5  O   UNL     1     -11.485  13.509  67.059  1.00  0.00    -0.311 OA 
BRANCH   5   6
HETATM    6  C   UNL     1     -11.141  14.670  67.697  1.00  0.00    -0.304 A  
HETATM    7  O   UNL     1     -12.681  14.602  74.010  1.00  0.00    -0.470 OA 
HETATM    8  O   UNL     1     -11.944  16.699  73.592  1.00  0.00    -0.410 OA 
HETATM    9  C   UNL     1     -10.473  15.725  67.056  1.00  0.00    -0.309 A  
HETATM   10  C   UNL     1     -10.186  16.912  67.730  1.00  0.00    -0.308 A  
HETATM   11  C   UNL     1     -12.269  15.438  73.226  1.00  0.00    -0.477 C  
HETATM   12  C   UNL     1     -10.564  17.063  69.057  1.00  0.00    -0.314 A  
HETATM   13  O   UNL     1     -11.518  16.249  71.035  1.00  0.00    -0.407 OA 
HETATM   14  C   UNL     1     -12.048  15.210  71.772  1.00  0.00    -0.370 C  
HETATM   15  C   UNL     1     -11.212  16.019  69.715  1.00  0.00    -0.344 A  
HETATM   16  C   UNL     1     -12.371  14.012  71.271  1.00  0.00    -0.436 C  
HETATM   17  C   UNL     1     -11.506  14.821  69.049  1.00  0.00    -0.316 A  
HETATM   18  O   UNL     1     -12.504  12.660  69.391  1.00  0.00     0.009 OA 
HETATM   19  C   UNL     1     -12.161  13.744  69.838  1.00  0.00    -0.348 C  
ENDBRANCH   5   6
ENDBRANCH   4   5
ENDBRANCH   2   4
BRANCH   2  20
HETATM   20  C   UNL     1     -10.879  10.999  67.028  1.00  0.00    -0.279 C  
BRANCH  20  21
HETATM   21  O   UNL     1      -9.923  10.059  67.475  1.00  0.00    -0.174 OA 
BRANCH  21  22
HETATM   22  C   UNL     1     -10.346   8.835  67.941  1.00  0.00    -0.224 A  
HETATM   23  C   UNL     1     -10.483   8.347  71.787  1.00  0.00    -0.353 C  
HETATM   24  C   UNL     1     -10.546   9.097  70.530  1.00  0.00    -0.235 C  
HETATM   25  C   UNL     1     -10.538   8.328  69.250  1.00  0.00    -0.191 A  
HETATM   26  C   UNL     1     -10.805   6.947  69.402  1.00  0.00    -0.249 A  
HETATM   27  C   UNL     1     -10.697   7.033  71.767  1.00  0.00    -0.216 C  
HETATM   28  C   UNL     1     -10.978   6.107  68.296  1.00  0.00    -0.397 A  
HETATM   29  O   UNL     1     -10.921   6.304  70.619  1.00  0.00    -0.268 OA 
HETATM   30  C   UNL     1     -10.869   6.623  67.014  1.00  0.00    -0.467 A  
HETATM   31  C   UNL     1     -10.759   6.345  73.084  1.00  0.00    -0.268 C  
HETATM   32  O   UNL     1     -10.994   5.021  72.957  1.00  0.00    -0.248 OA 
HETATM   33  C   UNL     1     -10.532   7.964  66.845  1.00  0.00    -0.388 A  
HETATM   34  O   UNL     1     -10.695  10.304  70.639  1.00  0.00    -0.258 OA 
HETATM   35  O   UNL     1     -10.627   6.899  74.163  1.00  0.00    -0.299 OA 
ENDBRANCH  21  22
ENDBRANCH  20  21
ENDBRANCH   2  20
TORSDOF 6
ENDMDL
MODEL       47
REMARK 921   NORMALIZED FREE ENERGY PREDICTED BY IDOCK:   -7.54 KCAL/MOL
REMARK 922        TOTAL FREE ENERGY PREDICTED BY IDOCK:  -11.48 KCAL/MOL
REMARK 923 INTER-LIGAND FREE ENERGY PREDICTED BY IDOCK:  -10.60 KCAL/MOL
REMARK 924 INTRA-LIGAND FREE ENERGY PREDICTED BY IDOCK:   -0.88 KCAL/MOL
REMARK 927      BINDING AFFINITY PREDICTED BY RF-SCORE:    0.00 PKD
ROOT
HETATM    1  O   UNL     1     -12.417  14.610  63.676  1.00  0.00    -1.070 OA 
HETATM    2  C   UNL     1     -12.099  15.055  65.009  1.00  0.00    -0.134 C  
HETATM    3  H   UNL     1     -12.198  15.314  63.075  1.00  0.00     0.000 HD 
ENDROOT
BRANCH   2   4
HETATM    4  C   UNL     1     -10.616  15.421  65.062  1.00  0.00    -0.420 C  
BRANCH   4   5
HETATM    5  O   UNL     1     -10.307  15.963  66.353  1.00  0.00    -0.286 OA 
BRANCH   5   6
HETATM    6  C   UNL     1     -10.065  17.305  66.450  1.00  0.00    -0.316 A  
HETATM    7  O   UNL     1      -5.149  18.672  70.475  1.00  0.00    -0.205 OA 
HETATM    8  O   UNL     1      -6.022  20.673  69.888  1.00  0.00    -0.373 OA 
HETATM    9  C   UNL     1     -10.769  18.265  65.706  1.00  0.00    -0.129 A  
HETATM   10  C   UNL     1     -10.526  19.628  65.873  1.00  0.00    -0.591 A  
HETATM   11  C   UNL     1      -5.987  19.321  69.876  1.00  0.00    -0.262 C  
HETATM   12  C   UNL     1      -9.573  20.054  66.788  1.00  0.00    -0.543 A  
HETATM   13  O   UNL     1      -7.906  19.629  68.379  1.00  0.00    -0.326 OA 
HETATM   14  C   UNL     1      -7.076  18.748  69.040  1.00  0.00    -0.295 C  
HETATM   15  C   UNL     1      -8.850  19.114  67.522  1.00  0.00    -0.295 A  
HETATM   16  C   UNL     1      -7.180  17.416  68.977  1.00  0.00    -0.224 C  
HETATM   17  C   UNL     1      -9.086  17.741  67.364  1.00  0.00    -0.244 A  
HETATM   18  O   UNL     1      -8.347  15.591  68.146  1.00  0.00    -0.142 OA 
HETATM   19  C   UNL     1      -8.241  16.808  68.154  1.00  0.00    -0.199 C  
ENDBRANCH   5   6
ENDBRANCH   4   5
ENDBRANCH   2   4
BRANCH   2  20
HETATM   20  C   UNL     1     -12.451  13.920  65.977  1.00  0.00    -0.461 C  
BRANCH  20  21
HETATM   21  O   UNL     1     -12.528  12.643  65.376  1.00  0.00    -0.601 OA 
BRANCH  21  22
HETATM   22  C   UNL     1     -11.439  11.804  65.431  1.00  0.00    -0.176 A  
HETATM   23  C   UNL     1     -10.233  10.682  68.943  1.00  0.00    -0.216 C  
HETATM   24  C   UNL     1     -11.207  11.112  67.937  1.00  0.00    -0.302 C  
HETATM   25  C   UNL     1     -10.761  11.192  66.513  1.00  0.00    -0.314 A  
HETATM   26  C   UNL     1      -9.542  10.524  66.250  1.00  0.00    -0.187 A  
HETATM   27  C   UNL     1      -9.094  10.121  68.541  1.00  0.00    -0.134 C  
HETATM   28  C   UNL     1      -9.053  10.376  64.947  1.00  0.00    -0.242 A  
HETATM   29  O   UNL     1      -8.733   9.965  67.220  1.00  0.00    -0.128 OA 
HETATM   30  C   UNL     1      -9.761  10.908  63.880  1.00  0.00    -0.352 A  
HETATM   31  C   UNL     1      -8.205   9.577  69.602  1.00  0.00    -0.141 C  
HETATM   32  O   UNL     1      -7.086   9.018  69.093  1.00  0.00    -0.061 OA 
HETATM   33  C   UNL     1     -10.924  11.633  64.127  1.00  0.00    -0.442 A  
HETATM   34  O   UNL     1     -12.347  11.284  68.340  1.00  0.00    -0.545 OA 
HETATM   35  O   UNL     1      -8.449   9.614  70.797  1.00  0.00    -0.245 OA 
ENDBRANCH  21  22
ENDBRANCH  20  21
ENDBRANCH   2  20
TORSDOF 6
ENDMDL
MODEL       48
REMARK 921   NORMALIZED FREE ENERGY PREDICTED BY IDOCK:   -7.52 KCAL/MOL
REMARK 922        TOTAL FREE ENERGY PREDICTED BY IDOCK:  -11.46 KCAL/MOL
REMARK 923 INTER-LIGAND FREE ENERGY PREDICTED BY IDOCK:  -10.58 KCAL/MOL
REMARK 924 INTRA-LIGAND FREE ENERGY PREDICTED BY IDOCK:   -0.88 KCAL/MOL
REMARK 927      BINDING AFFINITY PREDICTED BY RF-SCORE:    0.00 PKD
ROOT
HETATM    1  O   UNL     1     -10.243  10.094  65.286  1.00  0.00    -0.304 OA 
HETATM    2  C   UNL     1      -9.881  10.622  66.577  1.00  0.00    -0.204 C  
HETATM    3  H   UNL     1     -10.264   9.147  65.356  1.00  0.00     0.000 HD 
ENDROOT
BRANCH   2   4
HETATM    4  C   UNL     1     -10.904  10.141  67.606  1.00  0.00    -0.290 C  
BRANCH   4   5
HETATM    5  O   UNL     1     -10.279  10.064  68.894  1.00  0.00    -0.175 OA 
BRANCH   5   6
HETATM    6  C   UNL     1     -11.055   9.732  69.970  1.00  0.00    -0.267 A  
HETATM    7  O   UNL     1      -9.714   3.808  72.283  1.00  0.00    -0.139 OA 
HETATM    8  O   UNL     1     -11.516   4.518  73.451  1.00  0.00    -0.316 OA 
HETATM    9  C   UNL     1     -11.990  10.611  70.539  1.00  0.00    -0.446 A  
HETATM   10  C   UNL     1     -12.798  10.214  71.604  1.00  0.00    -0.559 A  
HETATM   11  C   UNL     1     -10.567   4.651  72.496  1.00  0.00    -0.179 C  
HETATM   12  C   UNL     1     -12.684   8.930  72.118  1.00  0.00    -0.470 A  
HETATM   13  O   UNL     1     -11.684   6.811  72.174  1.00  0.00    -0.285 OA 
HETATM   14  C   UNL     1     -10.695   5.941  71.766  1.00  0.00    -0.245 C  
HETATM   15  C   UNL     1     -11.747   8.049  71.579  1.00  0.00    -0.284 A  
HETATM   16  C   UNL     1      -9.841   6.180  70.764  1.00  0.00    -0.220 C  
HETATM   17  C   UNL     1     -10.930   8.435  70.507  1.00  0.00    -0.258 A  
HETATM   18  O   UNL     1      -9.170   7.629  69.082  1.00  0.00    -0.142 OA 
HETATM   19  C   UNL     1      -9.929   7.449  70.021  1.00  0.00    -0.185 C  
ENDBRANCH   5   6
ENDBRANCH   4   5
ENDBRANCH   2   4
BRANCH   2  20
HETATM   20  C   UNL     1      -9.848  12.151  66.464  1.00  0.00    -0.218 C  
BRANCH  20  21
HETATM   21  O   UNL     1     -11.121  12.765  66.466  1.00  0.00    -0.270 OA 
BRANCH  21  22
HETATM   22  C   UNL     1     -11.348  13.847  67.285  1.00  0.00    -0.323 A  
HETATM   23  C   UNL     1     -10.233  17.327  65.985  1.00  0.00    -0.314 C  
HETATM   24  C   UNL     1     -10.710  15.947  65.873  1.00  0.00    -0.296 C  
HETATM   25  C   UNL     1     -11.100  15.232  67.125  1.00  0.00    -0.323 A  
HETATM   26  C   UNL     1     -11.277  16.079  68.244  1.00  0.00    -0.350 A  
HETATM   27  C   UNL     1     -10.417  17.984  67.128  1.00  0.00    -0.367 C  
HETATM   28  C   UNL     1     -11.780  15.595  69.458  1.00  0.00    -0.382 A  
HETATM   29  O   UNL     1     -10.984  17.429  68.255  1.00  0.00    -0.317 OA 
HETATM   30  C   UNL     1     -12.098  14.253  69.586  1.00  0.00    -0.396 A  
HETATM   31  C   UNL     1     -10.040  19.422  67.143  1.00  0.00    -0.384 C  
HETATM   32  O   UNL     1     -10.278  20.000  68.339  1.00  0.00    -0.439 OA 
HETATM   33  C   UNL     1     -11.859  13.390  68.520  1.00  0.00    -0.401 A  
HETATM   34  O   UNL     1     -10.841  15.520  64.736  1.00  0.00    -0.430 OA 
HETATM   35  O   UNL     1      -9.578  20.027  66.189  1.00  0.00    -0.402 OA 
ENDBRANCH  21  22
ENDBRANCH  20  21
ENDBRANCH   2  20
TORSDOF 6
ENDMDL
MODEL       49
REMARK 921   NORMALIZED FREE ENERGY PREDICTED BY IDOCK:   -7.51 KCAL/MOL
REMARK 922        TOTAL FREE ENERGY PREDICTED BY IDOCK:  -11.43 KCAL/MOL
REMARK 923 INTER-LIGAND FREE ENERGY PREDICTED BY IDOCK:  -10.32 KCAL/MOL
REMARK 924 INTRA-LIGAND FREE ENERGY PREDICTED BY IDOCK:   -1.11 KCAL/MOL
REMARK 927      BINDING AFFINITY PREDICTED BY RF-SCORE:    0.00 PKD
ROOT
HETATM    1  O   UNL     1     -12.080  14.890  65.240  1.00  0.00    -0.249 OA 
HETATM    2  C   UNL     1     -11.850  13.964  66.319  1.00  0.00    -0.408 C  
HETATM    3  H   UNL     1     -12.986  15.173  65.289  1.00  0.00     0.000 HD 
ENDROOT
BRANCH   2   4
HETATM    4  C   UNL     1     -12.168  14.664  67.641  1.00  0.00    -0.047 C  
BRANCH   4   5
HETATM    5  O   UNL     1     -11.461  14.011  68.704  1.00  0.00    -0.263 OA 
BRANCH   5   6
HETATM    6  C   UNL     1     -12.082  13.897  69.917  1.00  0.00    -0.344 A  
HETATM    7  O   UNL     1     -12.819   7.711  71.771  1.00  0.00    -0.325 OA 
HETATM    8  O   UNL     1     -13.920   8.940  73.318  1.00  0.00    -0.238 OA 
HETATM    9  C   UNL     1     -12.455  15.005  70.693  1.00  0.00    -0.422 A  
HETATM   10  C   UNL     1     -13.131  14.845  71.902  1.00  0.00    -0.425 A  
HETATM   11  C   UNL     1     -13.202   8.792  72.181  1.00  0.00    -0.414 C  
HETATM   12  C   UNL     1     -13.447  13.572  72.355  1.00  0.00    -0.685 A  
HETATM   13  O   UNL     1     -13.394  11.238  72.152  1.00  0.00    -0.457 OA 
HETATM   14  C   UNL     1     -12.939  10.099  71.521  1.00  0.00    -0.444 C  
HETATM   15  C   UNL     1     -13.067  12.457  71.607  1.00  0.00    -0.307 A  
HETATM   16  C   UNL     1     -12.272  10.090  70.361  1.00  0.00    -0.249 C  
HETATM   17  C   UNL     1     -12.387  12.605  70.390  1.00  0.00    -0.315 A  
HETATM   18  O   UNL     1     -11.413  11.332  68.599  1.00  0.00    -0.243 OA 
HETATM   19  C   UNL     1     -11.983  11.364  69.679  1.00  0.00    -0.348 C  
ENDBRANCH   5   6
ENDBRANCH   4   5
ENDBRANCH   2   4
BRANCH   2  20
HETATM   20  C   UNL     1     -10.389  13.508  66.241  1.00  0.00    -0.293 C  
BRANCH  20  21
HETATM   21  O   UNL     1      -9.479  14.524  65.873  1.00  0.00    -0.274 OA 
BRANCH  21  22
HETATM   22  C   UNL     1      -8.682  15.099  66.837  1.00  0.00    -0.259 A  
HETATM   23  C   UNL     1      -8.111  18.929  66.621  1.00  0.00    -0.290 C  
HETATM   24  C   UNL     1      -8.844  17.674  66.443  1.00  0.00    -0.236 C  
HETATM   25  C   UNL     1      -8.290  16.439  67.075  1.00  0.00    -0.230 A  
HETATM   26  C   UNL     1      -7.297  16.684  68.052  1.00  0.00    -0.156 A  
HETATM   27  C   UNL     1      -7.154  18.994  67.544  1.00  0.00    -0.209 C  
HETATM   28  C   UNL     1      -6.775  15.653  68.842  1.00  0.00    -0.123 A  
HETATM   29  O   UNL     1      -6.756  17.926  68.320  1.00  0.00    -0.194 OA 
HETATM   30  C   UNL     1      -7.220  14.353  68.662  1.00  0.00    -0.123 A  
HETATM   31  C   UNL     1      -6.538  20.327  67.779  1.00  0.00    -0.263 C  
HETATM   32  O   UNL     1      -5.592  20.290  68.740  1.00  0.00    -0.233 OA 
HETATM   33  C   UNL     1      -8.143  14.082  67.655  1.00  0.00    -0.180 A  
HETATM   34  O   UNL     1      -9.914  17.761  65.860  1.00  0.00    -0.527 OA 
HETATM   35  O   UNL     1      -6.849  21.348  67.187  1.00  0.00    -0.552 OA 
ENDBRANCH  21  22
ENDBRANCH  20  21
ENDBRANCH   2  20
TORSDOF 6
ENDMDL
MODEL       50
REMARK 921   NORMALIZED FREE ENERGY PREDICTED BY IDOCK:   -7.49 KCAL/MOL
REMARK 922        TOTAL FREE ENERGY PREDICTED BY IDOCK:  -11.41 KCAL/MOL
REMARK 923 INTER-LIGAND FREE ENERGY PREDICTED BY IDOCK:  -10.79 KCAL/MOL
REMARK 924 INTRA-LIGAND FREE ENERGY PREDICTED BY IDOCK:   -0.62 KCAL/MOL
REMARK 927      BINDING AFFINITY PREDICTED BY RF-SCORE:    0.00 PKD
ROOT
HETATM    1  O   UNL     1     -14.116   8.834  73.215  1.00  0.00    -1.180 OA 
HETATM    2  C   UNL     1     -13.411   9.323  72.056  1.00  0.00    -0.451 C  
HETATM    3  H   UNL     1     -14.129   7.885  73.166  1.00  0.00     0.000 HD 
ENDROOT
BRANCH   2   4
HETATM    4  C   UNL     1     -12.005   8.723  72.050  1.00  0.00    -0.376 C  
BRANCH   4   5
HETATM    5  O   UNL     1     -12.096   7.301  72.206  1.00  0.00    -0.269 OA 
BRANCH   5   6
HETATM    6  C   UNL     1     -11.467   6.508  71.287  1.00  0.00    -0.318 A  
HETATM    7  O   UNL     1      -8.189   1.615  74.035  1.00  0.00    -0.045 OA 
HETATM    8  O   UNL     1      -7.678   1.522  71.834  1.00  0.00    -0.039 OA 
HETATM    9  C   UNL     1     -11.579   6.706  69.902  1.00  0.00    -0.393 A  
HETATM   10  C   UNL     1     -10.879   5.906  68.999  1.00  0.00    -0.383 A  
HETATM   11  C   UNL     1      -8.286   2.073  72.910  1.00  0.00    -0.058 C  
HETATM   12  C   UNL     1     -10.055   4.893  69.468  1.00  0.00    -0.286 A  
HETATM   13  O   UNL     1      -9.132   3.623  71.208  1.00  0.00    -0.099 OA 
HETATM   14  C   UNL     1      -9.080   3.275  72.541  1.00  0.00    -0.092 C  
HETATM   15  C   UNL     1      -9.946   4.668  70.841  1.00  0.00    -0.203 A  
HETATM   16  C   UNL     1      -9.700   3.940  73.523  1.00  0.00    -0.140 C  
HETATM   17  C   UNL     1     -10.643   5.467  71.757  1.00  0.00    -0.286 A  
HETATM   18  O   UNL     1     -11.024   5.751  74.114  1.00  0.00    -0.052 OA 
HETATM   19  C   UNL     1     -10.503   5.131  73.199  1.00  0.00    -0.211 C  
ENDBRANCH   5   6
ENDBRANCH   4   5
ENDBRANCH   2   4
BRANCH   2  20
HETATM   20  C   UNL     1     -13.389  10.853  72.135  1.00  0.00    -0.189 C  
BRANCH  20  21
HETATM   21  O   UNL     1     -12.650  11.480  71.106  1.00  0.00    -0.389 OA 
BRANCH  21  22
HETATM   22  C   UNL     1     -12.738  12.844  70.946  1.00  0.00    -0.207 A  
HETATM   23  C   UNL     1     -11.086  14.373  67.787  1.00  0.00    -0.299 C  
HETATM   24  C   UNL     1     -11.759  13.340  68.578  1.00  0.00    -0.352 C  
HETATM   25  C   UNL     1     -12.284  13.715  69.925  1.00  0.00    -0.367 A  
HETATM   26  C   UNL     1     -12.367  15.109  70.147  1.00  0.00    -0.341 A  
HETATM   27  C   UNL     1     -11.204  15.648  68.154  1.00  0.00    -0.345 C  
HETATM   28  C   UNL     1     -12.970  15.635  71.296  1.00  0.00    -0.556 A  
HETATM   29  O   UNL     1     -11.879  16.068  69.280  1.00  0.00    -0.345 OA 
HETATM   30  C   UNL     1     -13.486  14.780  72.256  1.00  0.00    -0.510 A  
HETATM   31  C   UNL     1     -10.620  16.665  67.240  1.00  0.00    -0.281 C  
HETATM   32  O   UNL     1     -10.803  17.923  67.693  1.00  0.00    -0.375 OA 
HETATM   33  C   UNL     1     -13.346  13.404  72.090  1.00  0.00    -0.613 A  
HETATM   34  O   UNL     1     -11.918  12.264  68.022  1.00  0.00    -0.425 OA 
HETATM   35  O   UNL     1     -10.047  16.409  66.194  1.00  0.00    -0.309 OA 
ENDBRANCH  21  22
ENDBRANCH  20  21
ENDBRANCH   2  20
TORSDOF 6
ENDMDL
MODEL       51
REMARK 921   NORMALIZED FREE ENERGY PREDICTED BY IDOCK:   -7.43 KCAL/MOL
REMARK 922        TOTAL FREE ENERGY PREDICTED BY IDOCK:  -11.34 KCAL/MOL
REMARK 923 INTER-LIGAND FREE ENERGY PREDICTED BY IDOCK:  -10.41 KCAL/MOL
REMARK 924 INTRA-LIGAND FREE ENERGY PREDICTED BY IDOCK:   -0.92 KCAL/MOL
REMARK 927      BINDING AFFINITY PREDICTED BY RF-SCORE:    0.00 PKD
ROOT
HETATM    1  O   UNL     1     -12.470  14.644  63.547  1.00  0.00    -1.069 OA 
HETATM    2  C   UNL     1     -12.164  14.700  64.954  1.00  0.00    -0.357 C  
HETATM    3  H   UNL     1     -12.410  15.528  63.203  1.00  0.00     0.000 HD 
ENDROOT
BRANCH   2   4
HETATM    4  C   UNL     1     -10.768  15.296  65.129  1.00  0.00    -0.436 C  
BRANCH   4   5
HETATM    5  O   UNL     1     -10.692  15.961  66.396  1.00  0.00    -0.308 OA 
BRANCH   5   6
HETATM    6  C   UNL     1     -10.279  17.265  66.419  1.00  0.00    -0.331 A  
HETATM    7  O   UNL     1      -5.187  18.205  70.346  1.00  0.00    -0.216 OA 
HETATM    8  O   UNL     1      -5.802  20.267  69.653  1.00  0.00    -0.296 OA 
HETATM    9  C   UNL     1     -10.862  18.266  65.626  1.00  0.00     0.068 A  
HETATM   10  C   UNL     1     -10.445  19.593  65.717  1.00  0.00    -0.540 A  
HETATM   11  C   UNL     1      -5.941  18.923  69.715  1.00  0.00    -0.257 C  
HETATM   12  C   UNL     1      -9.436  19.942  66.604  1.00  0.00    -0.513 A  
HETATM   13  O   UNL     1      -7.820  19.393  68.210  1.00  0.00    -0.304 OA 
HETATM   14  C   UNL     1      -7.103  18.450  68.916  1.00  0.00    -0.276 C  
HETATM   15  C   UNL     1      -8.831  18.958  67.386  1.00  0.00    -0.273 A  
HETATM   16  C   UNL     1      -7.378  17.141  68.926  1.00  0.00    -0.241 C  
HETATM   17  C   UNL     1      -9.243  17.621  67.304  1.00  0.00    -0.241 A  
HETATM   18  O   UNL     1      -8.777  15.439  68.200  1.00  0.00    -0.158 OA 
HETATM   19  C   UNL     1      -8.516  16.631  68.142  1.00  0.00    -0.198 C  
ENDBRANCH   5   6
ENDBRANCH   4   5
ENDBRANCH   2   4
BRANCH   2  20
HETATM   20  C   UNL     1     -12.260  13.274  65.510  1.00  0.00    -0.457 C  
BRANCH  20  21
HETATM   21  O   UNL     1     -11.069  12.797  66.101  1.00  0.00    -0.277 OA 
BRANCH  21  22
HETATM   22  C   UNL     1     -11.137  12.079  67.273  1.00  0.00    -0.285 A  
HETATM   23  C   UNL     1     -10.373   8.281  67.081  1.00  0.00    -0.387 C  
HETATM   24  C   UNL     1     -10.269   9.688  66.689  1.00  0.00    -0.232 C  
HETATM   25  C   UNL     1     -10.901  10.715  67.571  1.00  0.00    -0.351 A  
HETATM   26  C   UNL     1     -11.244  10.240  68.859  1.00  0.00    -0.207 A  
HETATM   27  C   UNL     1     -10.771   7.982  68.316  1.00  0.00    -0.023 C  
HETATM   28  C   UNL     1     -11.712  11.101  69.858  1.00  0.00    -0.433 A  
HETATM   29  O   UNL     1     -11.154   8.919  69.252  1.00  0.00    -0.080 OA 
HETATM   30  C   UNL     1     -11.865  12.451  69.587  1.00  0.00    -0.380 A  
HETATM   31  C   UNL     1     -10.726   6.548  68.706  1.00  0.00    -0.272 C  
HETATM   32  O   UNL     1     -11.134   6.351  69.977  1.00  0.00    -0.308 OA 
HETATM   33  C   UNL     1     -11.604  12.924  68.304  1.00  0.00    -0.374 A  
HETATM   34  O   UNL     1      -9.582   9.916  65.705  1.00  0.00    -0.215 OA 
HETATM   35  O   UNL     1     -10.355   5.643  67.976  1.00  0.00    -0.184 OA 
ENDBRANCH  21  22
ENDBRANCH  20  21
ENDBRANCH   2  20
TORSDOF 6
ENDMDL
MODEL       52
REMARK 921   NORMALIZED FREE ENERGY PREDICTED BY IDOCK:   -7.43 KCAL/MOL
REMARK 922        TOTAL FREE ENERGY PREDICTED BY IDOCK:  -11.33 KCAL/MOL
REMARK 923 INTER-LIGAND FREE ENERGY PREDICTED BY IDOCK:   -9.60 KCAL/MOL
REMARK 924 INTRA-LIGAND FREE ENERGY PREDICTED BY IDOCK:   -1.73 KCAL/MOL
REMARK 927      BINDING AFFINITY PREDICTED BY RF-SCORE:    0.00 PKD
ROOT
HETATM    1  O   UNL     1      -7.466  10.608  64.900  1.00  0.00    -0.336 OA 
HETATM    2  C   UNL     1      -8.533  10.869  65.832  1.00  0.00    -0.158 C  
HETATM    3  H   UNL     1      -7.184  11.442  64.541  1.00  0.00     0.000 HD 
ENDROOT
BRANCH   2   4
HETATM    4  C   UNL     1      -8.019  11.821  66.912  1.00  0.00    -0.149 C  
BRANCH   4   5
HETATM    5  O   UNL     1      -8.709  13.072  66.809  1.00  0.00    -0.188 OA 
BRANCH   5   6
HETATM    6  C   UNL     1      -8.380  14.067  67.688  1.00  0.00    -0.187 A  
HETATM    7  O   UNL     1     -10.904  19.817  66.014  1.00  0.00    -0.428 OA 
HETATM    8  O   UNL     1      -9.564  20.240  67.785  1.00  0.00    -0.369 OA 
HETATM    9  C   UNL     1      -7.631  13.841  68.853  1.00  0.00    -0.040 A  
HETATM   10  C   UNL     1      -7.273  14.892  69.696  1.00  0.00    -0.166 A  
HETATM   11  C   UNL     1     -10.112  19.427  66.852  1.00  0.00    -0.388 C  
HETATM   12  C   UNL     1      -7.659  16.189  69.388  1.00  0.00    -0.161 A  
HETATM   13  O   UNL     1      -8.783  17.741  68.039  1.00  0.00    -0.239 OA 
HETATM   14  C   UNL     1      -9.638  18.025  66.994  1.00  0.00    -0.287 C  
HETATM   15  C   UNL     1      -8.421  16.431  68.244  1.00  0.00    -0.195 A  
HETATM   16  C   UNL     1     -10.073  17.125  66.105  1.00  0.00    -0.317 C  
HETATM   17  C   UNL     1      -8.786  15.382  67.388  1.00  0.00    -0.196 A  
HETATM   18  O   UNL     1     -10.006  14.926  65.368  1.00  0.00    -0.349 OA 
HETATM   19  C   UNL     1      -9.634  15.723  66.215  1.00  0.00    -0.313 C  
ENDBRANCH   5   6
ENDBRANCH   4   5
ENDBRANCH   2   4
BRANCH   2  20
HETATM   20  C   UNL     1      -8.987   9.524  66.411  1.00  0.00    -0.154 C  
BRANCH  20  21
HETATM   21  O   UNL     1     -10.371   9.442  66.681  1.00  0.00    -0.249 OA 
BRANCH  21  22
HETATM   22  C   UNL     1     -10.832   9.732  67.945  1.00  0.00    -0.242 A  
HETATM   23  C   UNL     1     -11.898  13.394  68.651  1.00  0.00    -0.397 C  
HETATM   24  C   UNL     1     -11.685  12.196  67.835  1.00  0.00    -0.336 C  
HETATM   25  C   UNL     1     -11.318  10.926  68.531  1.00  0.00    -0.367 A  
HETATM   26  C   UNL     1     -11.542  10.945  69.927  1.00  0.00    -0.331 A  
HETATM   27  C   UNL     1     -12.032  13.264  69.969  1.00  0.00    -0.329 C  
HETATM   28  C   UNL     1     -11.389   9.796  70.710  1.00  0.00    -0.416 A  
HETATM   29  O   UNL     1     -11.924  12.065  70.641  1.00  0.00    -0.331 OA 
HETATM   30  C   UNL     1     -10.991   8.607  70.120  1.00  0.00    -0.234 A  
HETATM   31  C   UNL     1     -12.385  14.490  70.731  1.00  0.00    -0.340 C  
HETATM   32  O   UNL     1     -12.511  14.250  72.054  1.00  0.00    -0.320 OA 
HETATM   33  C   UNL     1     -10.694   8.587  68.760  1.00  0.00    -0.089 A  
HETATM   34  O   UNL     1     -11.920  12.316  66.643  1.00  0.00    -0.598 OA 
HETATM   35  O   UNL     1     -12.554  15.591  70.233  1.00  0.00    -0.403 OA 
ENDBRANCH  21  22
ENDBRANCH  20  21
ENDBRANCH   2  20
TORSDOF 6
ENDMDL
MODEL       53
REMARK 921   NORMALIZED FREE ENERGY PREDICTED BY IDOCK:   -7.38 KCAL/MOL
REMARK 922        TOTAL FREE ENERGY PREDICTED BY IDOCK:  -11.26 KCAL/MOL
REMARK 923 INTER-LIGAND FREE ENERGY PREDICTED BY IDOCK:  -10.49 KCAL/MOL
REMARK 924 INTRA-LIGAND FREE ENERGY PREDICTED BY IDOCK:   -0.77 KCAL/MOL
REMARK 927      BINDING AFFINITY PREDICTED BY RF-SCORE:    0.00 PKD
ROOT
HETATM    1  O   UNL     1      -9.736  11.847  64.570  1.00  0.00    -0.387 OA 
HETATM    2  C   UNL     1     -10.746  11.261  65.413  1.00  0.00    -0.227 C  
HETATM    3  H   UNL     1     -10.156  12.125  63.764  1.00  0.00     0.000 HD 
ENDROOT
BRANCH   2   4
HETATM    4  C   UNL     1     -11.840  12.300  65.660  1.00  0.00    -0.360 C  
BRANCH   4   5
HETATM    5  O   UNL     1     -11.237  13.587  65.846  1.00  0.00    -0.298 OA 
BRANCH   5   6
HETATM    6  C   UNL     1     -11.393  14.205  67.056  1.00  0.00    -0.332 A  
HETATM    7  O   UNL     1      -9.789  20.500  66.870  1.00  0.00    -0.450 OA 
HETATM    8  O   UNL     1     -10.207  20.049  69.046  1.00  0.00    -0.401 OA 
HETATM    9  C   UNL     1     -11.904  13.552  68.189  1.00  0.00    -0.400 A  
HETATM   10  C   UNL     1     -11.998  14.205  69.417  1.00  0.00    -0.382 A  
HETATM   11  C   UNL     1     -10.081  19.704  67.744  1.00  0.00    -0.413 C  
HETATM   12  C   UNL     1     -11.582  15.524  69.534  1.00  0.00    -0.361 A  
HETATM   13  O   UNL     1     -10.733  17.507  68.620  1.00  0.00    -0.318 OA 
HETATM   14  C   UNL     1     -10.355  18.258  67.527  1.00  0.00    -0.398 C  
HETATM   15  C   UNL     1     -11.089  16.196  68.415  1.00  0.00    -0.359 A  
HETATM   16  C   UNL     1     -10.224  17.777  66.285  1.00  0.00    -0.364 C  
HETATM   17  C   UNL     1     -10.989  15.550  67.175  1.00  0.00    -0.295 A  
HETATM   18  O   UNL     1     -10.324  15.923  64.895  1.00  0.00    -0.517 OA 
HETATM   19  C   UNL     1     -10.493  16.352  66.026  1.00  0.00    -0.323 C  
ENDBRANCH   5   6
ENDBRANCH   4   5
ENDBRANCH   2   4
BRANCH   2  20
HETATM   20  C   UNL     1     -10.068  10.813  66.713  1.00  0.00    -0.222 C  
BRANCH  20  21
HETATM   21  O   UNL     1     -10.492   9.552  67.189  1.00  0.00    -0.254 OA 
BRANCH  21  22
HETATM   22  C   UNL     1     -10.698   9.373  68.538  1.00  0.00    -0.161 A  
HETATM   23  C   UNL     1     -10.024   5.839  69.986  1.00  0.00    -0.251 C  
HETATM   24  C   UNL     1      -9.842   6.966  69.069  1.00  0.00    -0.152 C  
HETATM   25  C   UNL     1     -10.531   8.252  69.387  1.00  0.00    -0.224 A  
HETATM   26  C   UNL     1     -11.015   8.338  70.713  1.00  0.00    -0.243 A  
HETATM   27  C   UNL     1     -10.552   6.062  71.188  1.00  0.00    -0.246 C  
HETATM   28  C   UNL     1     -11.557   9.523  71.221  1.00  0.00    -0.445 A  
HETATM   29  O   UNL     1     -11.002   7.293  71.617  1.00  0.00    -0.225 OA 
HETATM   30  C   UNL     1     -11.646  10.644  70.411  1.00  0.00    -0.441 A  
HETATM   31  C   UNL     1     -10.586   4.912  72.129  1.00  0.00    -0.164 C  
HETATM   32  O   UNL     1     -11.126   5.244  73.321  1.00  0.00    -0.289 OA 
HETATM   33  C   UNL     1     -11.243  10.557  69.081  1.00  0.00    -0.314 A  
HETATM   34  O   UNL     1      -9.053   6.784  68.154  1.00  0.00    -0.126 OA 
HETATM   35  O   UNL     1     -10.169   3.794  71.873  1.00  0.00    -0.155 OA 
ENDBRANCH  21  22
ENDBRANCH  20  21
ENDBRANCH   2  20
TORSDOF 6
ENDMDL
MODEL       54
REMARK 921   NORMALIZED FREE ENERGY PREDICTED BY IDOCK:   -7.37 KCAL/MOL
REMARK 922        TOTAL FREE ENERGY PREDICTED BY IDOCK:  -11.25 KCAL/MOL
REMARK 923 INTER-LIGAND FREE ENERGY PREDICTED BY IDOCK:   -9.51 KCAL/MOL
REMARK 924 INTRA-LIGAND FREE ENERGY PREDICTED BY IDOCK:   -1.74 KCAL/MOL
REMARK 927      BINDING AFFINITY PREDICTED BY RF-SCORE:    0.00 PKD
ROOT
HETATM    1  O   UNL     1     -11.146  16.309  66.822  1.00  0.00    -0.114 OA 
HETATM    2  C   UNL     1     -10.544  17.030  67.916  1.00  0.00    -0.365 C  
HETATM    3  H   UNL     1     -10.960  16.789  66.023  1.00  0.00     0.000 HD 
ENDROOT
BRANCH   2   4
HETATM    4  C   UNL     1      -9.044  17.157  67.652  1.00  0.00    -0.227 C  
BRANCH   4   5
HETATM    5  O   UNL     1      -8.607  16.046  66.859  1.00  0.00    -0.190 OA 
BRANCH   5   6
HETATM    6  C   UNL     1      -7.904  15.048  67.477  1.00  0.00    -0.182 A  
HETATM    7  O   UNL     1      -9.706   9.128  65.492  1.00  0.00    -0.247 OA 
HETATM    8  O   UNL     1      -8.244   8.778  67.181  1.00  0.00    -0.103 OA 
HETATM    9  C   UNL     1      -6.867  15.295  68.391  1.00  0.00    -0.112 A  
HETATM   10  C   UNL     1      -6.211  14.248  69.037  1.00  0.00    -0.095 A  
HETATM   11  C   UNL     1      -8.980   9.567  66.365  1.00  0.00    -0.154 C  
HETATM   12  C   UNL     1      -6.581  12.936  68.780  1.00  0.00    -0.090 A  
HETATM   13  O   UNL     1      -7.870  11.340  67.648  1.00  0.00    -0.110 OA 
HETATM   14  C   UNL     1      -8.777  11.011  66.663  1.00  0.00    -0.160 C  
HETATM   15  C   UNL     1      -7.596  12.670  67.861  1.00  0.00    -0.132 A  
HETATM   16  C   UNL     1      -9.481  11.900  65.952  1.00  0.00    -0.227 C  
HETATM   17  C   UNL     1      -8.264  13.713  67.205  1.00  0.00    -0.164 A  
HETATM   18  O   UNL     1      -9.988  14.133  65.583  1.00  0.00    -0.322 OA 
HETATM   19  C   UNL     1      -9.303  13.340  66.210  1.00  0.00    -0.120 C  
ENDBRANCH   5   6
ENDBRANCH   4   5
ENDBRANCH   2   4
BRANCH   2  20
HETATM   20  C   UNL     1     -10.843  16.256  69.205  1.00  0.00    -0.314 C  
BRANCH  20  21
HETATM   21  O   UNL     1     -11.796  15.223  69.058  1.00  0.00    -0.325 OA 
BRANCH  21  22
HETATM   22  C   UNL     1     -12.320  14.623  70.181  1.00  0.00    -0.336 A  
HETATM   23  C   UNL     1     -12.290  10.746  70.303  1.00  0.00    -0.423 C  
HETATM   24  C   UNL     1     -11.810  12.076  69.922  1.00  0.00    -0.331 C  
HETATM   25  C   UNL     1     -12.445  13.266  70.565  1.00  0.00    -0.332 A  
HETATM   26  C   UNL     1     -13.212  12.962  71.715  1.00  0.00    -0.384 A  
HETATM   27  C   UNL     1     -13.059  10.621  71.382  1.00  0.00    -0.400 C  
HETATM   28  C   UNL     1     -13.757  13.969  72.520  1.00  0.00    -0.651 A  
HETATM   29  O   UNL     1     -13.493  11.681  72.149  1.00  0.00    -0.423 OA 
HETATM   30  C   UNL     1     -13.564  15.299  72.185  1.00  0.00    -0.576 A  
HETATM   31  C   UNL     1     -13.403   9.237  71.803  1.00  0.00    -0.409 C  
HETATM   32  O   UNL     1     -14.173   9.217  72.912  1.00  0.00    -0.512 OA 
HETATM   33  C   UNL     1     -12.876  15.616  71.017  1.00  0.00    -0.521 A  
HETATM   34  O   UNL     1     -10.850  12.099  69.167  1.00  0.00    -0.201 OA 
HETATM   35  O   UNL     1     -13.032   8.226  71.229  1.00  0.00    -0.261 OA 
ENDBRANCH  21  22
ENDBRANCH  20  21
ENDBRANCH   2  20
TORSDOF 6
ENDMDL
MODEL       55
REMARK 921   NORMALIZED FREE ENERGY PREDICTED BY IDOCK:   -7.36 KCAL/MOL
REMARK 922        TOTAL FREE ENERGY PREDICTED BY IDOCK:  -11.23 KCAL/MOL
REMARK 923 INTER-LIGAND FREE ENERGY PREDICTED BY IDOCK:  -10.33 KCAL/MOL
REMARK 924 INTRA-LIGAND FREE ENERGY PREDICTED BY IDOCK:   -0.91 KCAL/MOL
REMARK 927      BINDING AFFINITY PREDICTED BY RF-SCORE:    0.00 PKD
ROOT
HETATM    1  O   UNL     1     -11.618  10.258  67.961  1.00  0.00    -0.673 OA 
HETATM    2  C   UNL     1     -11.817  11.163  69.065  1.00  0.00    -0.348 C  
HETATM    3  H   UNL     1     -11.919  10.693  67.172  1.00  0.00     0.000 HD 
ENDROOT
BRANCH   2   4
HETATM    4  C   UNL     1     -11.046  12.452  68.786  1.00  0.00    -0.262 C  
BRANCH   4   5
HETATM    5  O   UNL     1     -11.932  13.417  68.204  1.00  0.00    -0.349 OA 
BRANCH   5   6
HETATM    6  C   UNL     1     -11.571  13.994  67.018  1.00  0.00    -0.371 A  
HETATM    7  O   UNL     1      -9.644  20.161  67.722  1.00  0.00    -0.366 OA 
HETATM    8  O   UNL     1      -9.690  19.795  65.491  1.00  0.00    -0.297 OA 
HETATM    9  C   UNL     1     -11.563  13.297  65.799  1.00  0.00    -0.368 A  
HETATM   10  C   UNL     1     -11.237  13.936  64.604  1.00  0.00    -0.380 A  
HETATM   11  C   UNL     1      -9.877  19.426  66.779  1.00  0.00    -0.362 C  
HETATM   12  C   UNL     1     -10.913  15.286  64.607  1.00  0.00    -0.322 A  
HETATM   13  O   UNL     1     -10.533  17.313  65.719  1.00  0.00    -0.502 OA 
HETATM   14  C   UNL     1     -10.380  18.030  66.887  1.00  0.00    -0.370 C  
HETATM   15  C   UNL     1     -10.897  15.991  65.811  1.00  0.00    -0.230 A  
HETATM   16  C   UNL     1     -10.647  17.554  68.109  1.00  0.00    -0.366 C  
HETATM   17  C   UNL     1     -11.224  15.359  67.019  1.00  0.00    -0.229 A  
HETATM   18  O   UNL     1     -11.420  15.774  69.378  1.00  0.00    -0.306 OA 
HETATM   19  C   UNL     1     -11.140  16.174  68.260  1.00  0.00    -0.348 C  
ENDBRANCH   5   6
ENDBRANCH   4   5
ENDBRANCH   2   4
BRANCH   2  20
HETATM   20  C   UNL     1     -11.331  10.460  70.338  1.00  0.00    -0.337 C  
BRANCH  20  21
HETATM   21  O   UNL     1     -12.031   9.273  70.653  1.00  0.00    -0.253 OA 
BRANCH  21  22
HETATM   22  C   UNL     1     -11.335   8.187  71.133  1.00  0.00    -0.269 A  
HETATM   23  C   UNL     1     -10.301   5.464  68.572  1.00  0.00    -0.219 C  
HETATM   24  C   UNL     1     -10.626   6.817  69.028  1.00  0.00    -0.230 C  
HETATM   25  C   UNL     1     -10.791   7.046  70.495  1.00  0.00    -0.279 A  
HETATM   26  C   UNL     1     -10.289   6.000  71.304  1.00  0.00    -0.215 A  
HETATM   27  C   UNL     1      -9.898   4.561  69.463  1.00  0.00    -0.207 C  
HETATM   28  C   UNL     1     -10.232   6.113  72.698  1.00  0.00    -0.202 A  
HETATM   29  O   UNL     1      -9.817   4.796  70.819  1.00  0.00    -0.181 OA 
HETATM   30  C   UNL     1     -10.692   7.266  73.315  1.00  0.00    -0.428 A  
HETATM   31  C   UNL     1      -9.449   3.247  68.929  1.00  0.00    -0.121 C  
HETATM   32  O   UNL     1      -9.048   2.409  69.908  1.00  0.00    -0.088 OA 
HETATM   33  C   UNL     1     -11.258   8.275  72.540  1.00  0.00    -0.446 A  
HETATM   34  O   UNL     1     -10.643   7.680  68.164  1.00  0.00    -0.192 OA 
HETATM   35  O   UNL     1      -9.430   2.950  67.746  1.00  0.00    -0.210 OA 
ENDBRANCH  21  22
ENDBRANCH  20  21
ENDBRANCH   2  20
TORSDOF 6
ENDMDL
MODEL       56
REMARK 921   NORMALIZED FREE ENERGY PREDICTED BY IDOCK:   -7.34 KCAL/MOL
REMARK 922        TOTAL FREE ENERGY PREDICTED BY IDOCK:  -11.21 KCAL/MOL
REMARK 923 INTER-LIGAND FREE ENERGY PREDICTED BY IDOCK:  -10.11 KCAL/MOL
REMARK 924 INTRA-LIGAND FREE ENERGY PREDICTED BY IDOCK:   -1.11 KCAL/MOL
REMARK 927      BINDING AFFINITY PREDICTED BY RF-SCORE:    0.00 PKD
ROOT
HETATM    1  O   UNL     1     -10.512  12.173  64.810  1.00  0.00    -0.273 OA 
HETATM    2  C   UNL     1     -10.989  11.143  65.698  1.00  0.00    -0.079 C  
HETATM    3  H   UNL     1     -11.162  12.867  64.796  1.00  0.00     0.000 HD 
ENDROOT
BRANCH   2   4
HETATM    4  C   UNL     1     -11.214  11.754  67.080  1.00  0.00    -0.316 C  
BRANCH   4   5
HETATM    5  O   UNL     1     -11.862  13.024  66.937  1.00  0.00    -0.366 OA 
BRANCH   5   6
HETATM    6  C   UNL     1     -11.776  13.914  67.972  1.00  0.00    -0.352 A  
HETATM    7  O   UNL     1      -9.795  19.797  66.047  1.00  0.00    -0.418 OA 
HETATM    8  O   UNL     1      -9.884  19.900  68.304  1.00  0.00    -0.386 OA 
HETATM    9  C   UNL     1     -12.140  13.593  69.289  1.00  0.00    -0.360 A  
HETATM   10  C   UNL     1     -11.988  14.516  70.324  1.00  0.00    -0.379 A  
HETATM   11  C   UNL     1      -9.996  19.256  67.119  1.00  0.00    -0.360 C  
HETATM   12  C   UNL     1     -11.469  15.775  70.059  1.00  0.00    -0.359 A  
HETATM   13  O   UNL     1     -10.646  17.397  68.583  1.00  0.00    -0.357 OA 
HETATM   14  C   UNL     1     -10.400  17.836  67.298  1.00  0.00    -0.363 C  
HETATM   15  C   UNL     1     -11.120  16.119  68.753  1.00  0.00    -0.354 A  
HETATM   16  C   UNL     1     -10.506  17.074  66.204  1.00  0.00    -0.274 C  
HETATM   17  C   UNL     1     -11.267  15.200  67.704  1.00  0.00    -0.329 A  
HETATM   18  O   UNL     1     -10.958  14.973  65.331  1.00  0.00    -0.334 OA 
HETATM   19  C   UNL     1     -10.911  15.663  66.337  1.00  0.00    -0.252 C  
ENDBRANCH   5   6
ENDBRANCH   4   5
ENDBRANCH   2   4
BRANCH   2  20
HETATM   20  C   UNL     1      -9.940  10.025  65.721  1.00  0.00    -0.276 C  
BRANCH  20  21
HETATM   21  O   UNL     1      -9.525   9.641  67.016  1.00  0.00    -0.146 OA 
BRANCH  21  22
HETATM   22  C   UNL     1     -10.056   8.506  67.587  1.00  0.00    -0.213 A  
HETATM   23  C   UNL     1     -10.434   8.469  71.447  1.00  0.00    -0.305 C  
HETATM   24  C   UNL     1     -10.377   9.073  70.114  1.00  0.00    -0.210 C  
HETATM   25  C   UNL     1     -10.353   8.165  68.928  1.00  0.00    -0.225 A  
HETATM   26  C   UNL     1     -10.723   6.829  69.215  1.00  0.00    -0.253 A  
HETATM   27  C   UNL     1     -10.737   7.177  71.559  1.00  0.00    -0.223 C  
HETATM   28  C   UNL     1     -10.893   5.882  68.199  1.00  0.00    -0.323 A  
HETATM   29  O   UNL     1     -10.949   6.338  70.486  1.00  0.00    -0.266 OA 
HETATM   30  C   UNL     1     -10.679   6.241  66.878  1.00  0.00    -0.411 A  
HETATM   31  C   UNL     1     -10.918   6.648  72.936  1.00  0.00    -0.253 C  
HETATM   32  O   UNL     1     -11.237   5.336  72.941  1.00  0.00    -0.279 OA 
HETATM   33  C   UNL     1     -10.242   7.530  66.584  1.00  0.00    -0.261 A  
HETATM   34  O   UNL     1     -10.449  10.292  70.079  1.00  0.00    -0.268 OA 
HETATM   35  O   UNL     1     -10.806   7.312  73.954  1.00  0.00    -0.284 OA 
ENDBRANCH  21  22
ENDBRANCH  20  21
ENDBRANCH   2  20
TORSDOF 6
ENDMDL
MODEL       57
REMARK 921   NORMALIZED FREE ENERGY PREDICTED BY IDOCK:   -7.33 KCAL/MOL
REMARK 922        TOTAL FREE ENERGY PREDICTED BY IDOCK:  -11.20 KCAL/MOL
REMARK 923 INTER-LIGAND FREE ENERGY PREDICTED BY IDOCK:   -8.61 KCAL/MOL
REMARK 924 INTRA-LIGAND FREE ENERGY PREDICTED BY IDOCK:   -2.59 KCAL/MOL
REMARK 927      BINDING AFFINITY PREDICTED BY RF-SCORE:    0.00 PKD
ROOT
HETATM    1  O   UNL     1     -13.749   9.141  70.741  1.00  0.00    -0.554 OA 
HETATM    2  C   UNL     1     -13.171   8.430  71.854  1.00  0.00    -0.357 C  
HETATM    3  H   UNL     1     -13.956  10.020  71.035  1.00  0.00     0.000 HD 
ENDROOT
BRANCH   2   4
HETATM    4  C   UNL     1     -11.933   9.190  72.329  1.00  0.00    -0.207 C  
BRANCH   4   5
HETATM    5  O   UNL     1     -11.434  10.001  71.258  1.00  0.00    -0.364 OA 
BRANCH   5   6
HETATM    6  C   UNL     1     -10.320   9.574  70.589  1.00  0.00    -0.302 A  
HETATM    7  O   UNL     1     -10.517  10.997  64.250  1.00  0.00    -0.338 OA 
HETATM    8  O   UNL     1      -8.663   9.732  64.527  1.00  0.00    -0.168 OA 
HETATM    9  C   UNL     1      -9.234   8.955  71.227  1.00  0.00    -0.328 A  
HETATM   10  C   UNL     1      -8.139   8.490  70.500  1.00  0.00    -0.112 A  
HETATM   11  C   UNL     1      -9.788  10.340  64.971  1.00  0.00    -0.329 C  
HETATM   12  C   UNL     1      -8.113   8.635  69.120  1.00  0.00    -0.116 A  
HETATM   13  O   UNL     1      -9.043   9.392  67.107  1.00  0.00    -0.129 OA 
HETATM   14  C   UNL     1     -10.000  10.114  66.425  1.00  0.00    -0.234 C  
HETATM   15  C   UNL     1      -9.173   9.265  68.470  1.00  0.00    -0.135 A  
HETATM   16  C   UNL     1     -11.102  10.628  66.983  1.00  0.00    -0.217 C  
HETATM   17  C   UNL     1     -10.280   9.737  69.190  1.00  0.00    -0.211 A  
HETATM   18  O   UNL     1     -12.380  10.872  68.904  1.00  0.00    -0.486 OA 
HETATM   19  C   UNL     1     -11.346  10.434  68.423  1.00  0.00    -0.227 C  
ENDBRANCH   5   6
ENDBRANCH   4   5
ENDBRANCH   2   4
BRANCH   2  20
HETATM   20  C   UNL     1     -12.836   7.012  71.380  1.00  0.00    -0.356 C  
BRANCH  20  21
HETATM   21  O   UNL     1     -12.146   6.956  70.147  1.00  0.00    -0.234 OA 
BRANCH  21  22
HETATM   22  C   UNL     1     -11.122   6.050  69.986  1.00  0.00    -0.381 A  
HETATM   23  C   UNL     1     -10.236   4.995  66.361  1.00  0.00    -0.307 C  
HETATM   24  C   UNL     1     -10.719   5.892  67.412  1.00  0.00    -0.287 C  
HETATM   25  C   UNL     1     -10.530   5.477  68.835  1.00  0.00    -0.282 A  
HETATM   26  C   UNL     1      -9.607   4.419  69.012  1.00  0.00    -0.174 A  
HETATM   27  C   UNL     1      -9.415   3.999  66.687  1.00  0.00    -0.197 C  
HETATM   28  C   UNL     1      -9.203   4.003  70.285  1.00  0.00    -0.210 A  
HETATM   29  O   UNL     1      -9.026   3.710  67.978  1.00  0.00    -0.108 OA 
HETATM   30  C   UNL     1      -9.725   4.621  71.410  1.00  0.00    -0.246 A  
HETATM   31  C   UNL     1      -8.845   3.205  65.567  1.00  0.00    -0.138 C  
HETATM   32  O   UNL     1      -8.017   2.231  66.000  1.00  0.00    -0.079 OA 
HETATM   33  C   UNL     1     -10.690   5.614  71.257  1.00  0.00    -0.312 A  
HETATM   34  O   UNL     1     -11.161   6.966  67.034  1.00  0.00    -0.369 OA 
HETATM   35  O   UNL     1      -9.079   3.406  64.386  1.00  0.00    -0.118 OA 
ENDBRANCH  21  22
ENDBRANCH  20  21
ENDBRANCH   2  20
TORSDOF 6
ENDMDL
MODEL       58
REMARK 921   NORMALIZED FREE ENERGY PREDICTED BY IDOCK:   -7.30 KCAL/MOL
REMARK 922        TOTAL FREE ENERGY PREDICTED BY IDOCK:  -11.16 KCAL/MOL
REMARK 923 INTER-LIGAND FREE ENERGY PREDICTED BY IDOCK:  -10.18 KCAL/MOL
REMARK 924 INTRA-LIGAND FREE ENERGY PREDICTED BY IDOCK:   -0.98 KCAL/MOL
REMARK 927      BINDING AFFINITY PREDICTED BY RF-SCORE:    0.00 PKD
ROOT
HETATM    1  O   UNL     1     -12.756  10.657  69.642  1.00  0.00    -0.564 OA 
HETATM    2  C   UNL     1     -11.580  11.399  69.262  1.00  0.00    -0.317 C  
HETATM    3  H   UNL     1     -13.202  11.150  70.321  1.00  0.00     0.000 HD 
ENDROOT
BRANCH   2   4
HETATM    4  C   UNL     1     -12.010  12.785  68.784  1.00  0.00    -0.240 C  
BRANCH   4   5
HETATM    5  O   UNL     1     -10.852  13.526  68.378  1.00  0.00    -0.250 OA 
BRANCH   5   6
HETATM    6  C   UNL     1     -10.882  14.161  67.166  1.00  0.00    -0.290 A  
HETATM    7  O   UNL     1      -9.795  20.549  67.664  1.00  0.00    -0.416 OA 
HETATM    8  O   UNL     1     -10.328  20.195  65.495  1.00  0.00    -0.378 OA 
HETATM    9  C   UNL     1     -11.067  13.481  65.952  1.00  0.00    -0.292 A  
HETATM   10  C   UNL     1     -11.142  14.173  64.743  1.00  0.00    -0.393 A  
HETATM   11  C   UNL     1     -10.137  19.793  66.773  1.00  0.00    -0.444 C  
HETATM   12  C   UNL     1     -11.035  15.556  64.729  1.00  0.00    -0.416 A  
HETATM   13  O   UNL     1     -10.706  17.611  65.806  1.00  0.00    -0.408 OA 
HETATM   14  C   UNL     1     -10.382  18.335  66.935  1.00  0.00    -0.385 C  
HETATM   15  C   UNL     1     -10.832  16.247  65.924  1.00  0.00    -0.139 A  
HETATM   16  C   UNL     1     -10.268  17.815  68.162  1.00  0.00    -0.383 C  
HETATM   17  C   UNL     1     -10.755  15.564  67.145  1.00  0.00    -0.315 A  
HETATM   18  O   UNL     1     -10.430  15.926  69.499  1.00  0.00    -0.238 OA 
HETATM   19  C   UNL     1     -10.495  16.373  68.365  1.00  0.00    -0.298 C  
ENDBRANCH   5   6
ENDBRANCH   4   5
ENDBRANCH   2   4
BRANCH   2  20
HETATM   20  C   UNL     1     -10.860  10.605  68.167  1.00  0.00    -0.245 C  
BRANCH  20  21
HETATM   21  O   UNL     1      -9.887   9.699  68.646  1.00  0.00    -0.154 OA 
BRANCH  21  22
HETATM   22  C   UNL     1     -10.225   8.378  68.831  1.00  0.00    -0.210 A  
HETATM   23  C   UNL     1     -10.560   7.121  72.485  1.00  0.00    -0.273 C  
HETATM   24  C   UNL     1     -10.611   8.100  71.397  1.00  0.00    -0.220 C  
HETATM   25  C   UNL     1     -10.453   7.606  69.996  1.00  0.00    -0.229 A  
HETATM   26  C   UNL     1     -10.603   6.207  69.855  1.00  0.00    -0.265 A  
HETATM   27  C   UNL     1     -10.653   5.825  72.194  1.00  0.00    -0.219 C  
HETATM   28  C   UNL     1     -10.629   5.595  68.597  1.00  0.00    -0.268 A  
HETATM   29  O   UNL     1     -10.738   5.326  70.911  1.00  0.00    -0.212 OA 
HETATM   30  C   UNL     1     -10.487   6.364  67.453  1.00  0.00    -0.312 A  
HETATM   31  C   UNL     1     -10.736   4.885  73.342  1.00  0.00    -0.268 C  
HETATM   32  O   UNL     1     -10.841   3.599  72.942  1.00  0.00    -0.144 OA 
HETATM   33  C   UNL     1     -10.263   7.733  67.575  1.00  0.00    -0.301 A  
HETATM   34  O   UNL     1     -10.876   9.246  71.725  1.00  0.00    -0.368 OA 
HETATM   35  O   UNL     1     -10.722   5.220  74.515  1.00  0.00    -0.323 OA 
ENDBRANCH  21  22
ENDBRANCH  20  21
ENDBRANCH   2  20
TORSDOF 6
ENDMDL
MODEL       59
REMARK 921   NORMALIZED FREE ENERGY PREDICTED BY IDOCK:   -7.28 KCAL/MOL
REMARK 922        TOTAL FREE ENERGY PREDICTED BY IDOCK:  -11.13 KCAL/MOL
REMARK 923 INTER-LIGAND FREE ENERGY PREDICTED BY IDOCK:   -9.89 KCAL/MOL
REMARK 924 INTRA-LIGAND FREE ENERGY PREDICTED BY IDOCK:   -1.24 KCAL/MOL
REMARK 927      BINDING AFFINITY PREDICTED BY RF-SCORE:    0.00 PKD
ROOT
HETATM    1  O   UNL     1     -10.330  18.048  68.047  1.00  0.00    -0.355 OA 
HETATM    2  C   UNL     1     -10.385  16.613  67.933  1.00  0.00    -0.310 C  
HETATM    3  H   UNL     1     -11.174  18.346  68.366  1.00  0.00     0.000 HD 
ENDROOT
BRANCH   2   4
HETATM    4  C   UNL     1     -10.726  16.026  69.303  1.00  0.00    -0.275 C  
BRANCH   4   5
HETATM    5  O   UNL     1     -11.981  15.338  69.225  1.00  0.00    -0.320 OA 
BRANCH   5   6
HETATM    6  C   UNL     1     -12.534  14.868  70.384  1.00  0.00    -0.350 A  
HETATM    7  O   UNL     1     -12.029   8.414  70.953  1.00  0.00    -0.270 OA 
HETATM    8  O   UNL     1     -13.300   9.075  72.702  1.00  0.00    -0.458 OA 
HETATM    9  C   UNL     1     -13.089  15.708  71.362  1.00  0.00    -0.559 A  
HETATM   10  C   UNL     1     -13.689  15.183  72.507  1.00  0.00    -0.596 A  
HETATM   11  C   UNL     1     -12.600   9.298  71.566  1.00  0.00    -0.352 C  
HETATM   12  C   UNL     1     -13.743  13.809  72.692  1.00  0.00    -0.566 A  
HETATM   13  O   UNL     1     -13.254  11.617  72.026  1.00  0.00    -0.501 OA 
HETATM   14  C   UNL     1     -12.608  10.735  71.184  1.00  0.00    -0.428 C  
HETATM   15  C   UNL     1     -13.180  12.959  71.740  1.00  0.00    -0.384 A  
HETATM   16  C   UNL     1     -11.984  11.085  70.054  1.00  0.00    -0.430 C  
HETATM   17  C   UNL     1     -12.575  13.474  70.585  1.00  0.00    -0.345 A  
HETATM   18  O   UNL     1     -11.426  12.793  68.586  1.00  0.00    -0.257 OA 
HETATM   19  C   UNL     1     -11.962  12.500  69.644  1.00  0.00    -0.272 C  
ENDBRANCH   5   6
ENDBRANCH   4   5
ENDBRANCH   2   4
BRANCH   2  20
HETATM   20  C   UNL     1      -9.023  16.133  67.419  1.00  0.00    -0.191 C  
BRANCH  20  21
HETATM   21  O   UNL     1      -9.069  14.929  66.681  1.00  0.00    -0.252 OA 
BRANCH  21  22
HETATM   22  C   UNL     1      -8.429  13.812  67.169  1.00  0.00    -0.175 A  
HETATM   23  C   UNL     1      -9.979  10.360  66.319  1.00  0.00    -0.283 C  
HETATM   24  C   UNL     1      -9.657  11.772  66.101  1.00  0.00    -0.232 C  
HETATM   25  C   UNL     1      -8.694  12.427  67.036  1.00  0.00    -0.207 A  
HETATM   26  C   UNL     1      -7.946  11.522  67.826  1.00  0.00    -0.128 A  
HETATM   27  C   UNL     1      -9.218   9.643  67.143  1.00  0.00    -0.134 C  
HETATM   28  C   UNL     1      -6.901  11.957  68.648  1.00  0.00    -0.086 A  
HETATM   29  O   UNL     1      -8.163  10.159  67.865  1.00  0.00    -0.109 OA 
HETATM   30  C   UNL     1      -6.591  13.306  68.714  1.00  0.00    -0.099 A  
HETATM   31  C   UNL     1      -9.502   8.185  67.220  1.00  0.00    -0.155 C  
HETATM   32  O   UNL     1      -8.669   7.547  68.070  1.00  0.00    -0.122 OA 
HETATM   33  C   UNL     1      -7.364  14.219  68.002  1.00  0.00    -0.145 A  
HETATM   34  O   UNL     1     -10.141  12.279  65.101  1.00  0.00    -0.271 OA 
HETATM   35  O   UNL     1     -10.376   7.615  66.588  1.00  0.00    -0.273 OA 
ENDBRANCH  21  22
ENDBRANCH  20  21
ENDBRANCH   2  20
TORSDOF 6
ENDMDL
MODEL       60
REMARK 921   NORMALIZED FREE ENERGY PREDICTED BY IDOCK:   -7.27 KCAL/MOL
REMARK 922        TOTAL FREE ENERGY PREDICTED BY IDOCK:  -11.12 KCAL/MOL
REMARK 923 INTER-LIGAND FREE ENERGY PREDICTED BY IDOCK:  -10.30 KCAL/MOL
REMARK 924 INTRA-LIGAND FREE ENERGY PREDICTED BY IDOCK:   -0.82 KCAL/MOL
REMARK 927      BINDING AFFINITY PREDICTED BY RF-SCORE:    0.00 PKD
ROOT
HETATM    1  O   UNL     1     -10.144   9.079  66.928  1.00  0.00    -0.221 OA 
HETATM    2  C   UNL     1     -10.057  10.473  67.284  1.00  0.00    -0.201 C  
HETATM    3  H   UNL     1     -10.078   8.571  67.728  1.00  0.00     0.000 HD 
ENDROOT
BRANCH   2   4
HETATM    4  C   UNL     1     -11.179  10.797  68.270  1.00  0.00    -0.297 C  
BRANCH   4   5
HETATM    5  O   UNL     1     -10.681  10.677  69.609  1.00  0.00    -0.243 OA 
BRANCH   5   6
HETATM    6  C   UNL     1     -11.501  10.130  70.557  1.00  0.00    -0.337 A  
HETATM    7  O   UNL     1      -9.605   4.184  72.370  1.00  0.00    -0.128 OA 
HETATM    8  O   UNL     1     -11.583   4.529  73.409  1.00  0.00    -0.300 OA 
HETATM    9  C   UNL     1     -12.592  10.817  71.113  1.00  0.00    -0.532 A  
HETATM   10  C   UNL     1     -13.434  10.203  72.040  1.00  0.00    -0.418 A  
HETATM   11  C   UNL     1     -10.578   4.887  72.578  1.00  0.00    -0.210 C  
HETATM   12  C   UNL     1     -13.199   8.891  72.427  1.00  0.00    -0.482 A  
HETATM   13  O   UNL     1     -11.937   6.918  72.367  1.00  0.00    -0.233 OA 
HETATM   14  C   UNL     1     -10.808   6.228  71.977  1.00  0.00    -0.245 C  
HETATM   15  C   UNL     1     -12.108   8.200  71.900  1.00  0.00    -0.323 A  
HETATM   16  C   UNL     1      -9.905   6.684  71.101  1.00  0.00    -0.195 C  
HETATM   17  C   UNL     1     -11.255   8.805  70.967  1.00  0.00    -0.329 A  
HETATM   18  O   UNL     1      -9.282   8.390  69.659  1.00  0.00    -0.158 OA 
HETATM   19  C   UNL     1     -10.092   8.011  70.489  1.00  0.00    -0.192 C  
ENDBRANCH   5   6
ENDBRANCH   4   5
ENDBRANCH   2   4
BRANCH   2  20
HETATM   20  C   UNL     1     -10.165  11.292  65.993  1.00  0.00    -0.247 C  
BRANCH  20  21
HETATM   21  O   UNL     1      -9.622  12.594  66.080  1.00  0.00    -0.253 OA 
BRANCH  21  22
HETATM   22  C   UNL     1     -10.242  13.631  65.421  1.00  0.00    -0.313 A  
HETATM   23  C   UNL     1      -9.344  17.237  66.533  1.00  0.00    -0.283 C  
HETATM   24  C   UNL     1      -9.109  15.809  66.307  1.00  0.00    -0.338 C  
HETATM   25  C   UNL     1     -10.137  15.038  65.545  1.00  0.00    -0.400 A  
HETATM   26  C   UNL     1     -11.061  15.844  64.841  1.00  0.00    -0.389 A  
HETATM   27  C   UNL     1     -10.296  17.854  65.837  1.00  0.00    -0.259 C  
HETATM   28  C   UNL     1     -11.999  15.289  63.962  1.00  0.00    -0.018 A  
HETATM   29  O   UNL     1     -11.132  17.220  64.942  1.00  0.00    -0.807 OA 
HETATM   30  C   UNL     1     -12.047  13.916  63.782  1.00  0.00    -0.330 A  
HETATM   31  C   UNL     1     -10.399  19.327  66.002  1.00  0.00    -0.475 C  
HETATM   32  O   UNL     1     -11.383  19.859  65.245  1.00  0.00    -0.180 OA 
HETATM   33  C   UNL     1     -11.195  13.101  64.523  1.00  0.00    -0.383 A  
HETATM   34  O   UNL     1      -8.031  15.380  66.687  1.00  0.00    -0.201 OA 
HETATM   35  O   UNL     1      -9.679  19.996  66.726  1.00  0.00    -0.378 OA 
ENDBRANCH  21  22
ENDBRANCH  20  21
ENDBRANCH   2  20
TORSDOF 6
ENDMDL
MODEL       61
REMARK 921   NORMALIZED FREE ENERGY PREDICTED BY IDOCK:   -7.27 KCAL/MOL
REMARK 922        TOTAL FREE ENERGY PREDICTED BY IDOCK:  -11.11 KCAL/MOL
REMARK 923 INTER-LIGAND FREE ENERGY PREDICTED BY IDOCK:   -8.96 KCAL/MOL
REMARK 924 INTRA-LIGAND FREE ENERGY PREDICTED BY IDOCK:   -2.15 KCAL/MOL
REMARK 927      BINDING AFFINITY PREDICTED BY RF-SCORE:    0.00 PKD
ROOT
HETATM    1  O   UNL     1      -9.336   8.172  71.500  1.00  0.00    -0.142 OA 
HETATM    2  C   UNL     1     -10.688   8.143  71.002  1.00  0.00    -0.217 C  
HETATM    3  H   UNL     1      -8.882   7.415  71.149  1.00  0.00     0.000 HD 
ENDROOT
BRANCH   2   4
HETATM    4  C   UNL     1     -10.647   8.149  69.474  1.00  0.00    -0.213 C  
BRANCH   4   5
HETATM    5  O   UNL     1      -9.298   8.360  69.037  1.00  0.00    -0.147 OA 
BRANCH   5   6
HETATM    6  C   UNL     1      -9.088   9.174  67.958  1.00  0.00    -0.131 A  
HETATM    7  O   UNL     1      -5.159  14.168  69.322  1.00  0.00    -0.079 OA 
HETATM    8  O   UNL     1      -5.892  14.536  67.215  1.00  0.00    -0.294 OA 
HETATM    9  C   UNL     1      -9.619   8.909  66.686  1.00  0.00    -0.281 A  
HETATM   10  C   UNL     1      -9.422   9.792  65.624  1.00  0.00    -0.307 A  
HETATM   11  C   UNL     1      -5.851  13.841  68.375  1.00  0.00    -0.100 C  
HETATM   12  C   UNL     1      -8.691  10.955  65.817  1.00  0.00    -0.196 A  
HETATM   13  O   UNL     1      -7.404  12.384  67.156  1.00  0.00    -0.139 OA 
HETATM   14  C   UNL     1      -6.732  12.643  68.333  1.00  0.00    -0.082 C  
HETATM   15  C   UNL     1      -8.138  11.226  67.070  1.00  0.00    -0.149 A  
HETATM   16  C   UNL     1      -6.815  11.889  69.435  1.00  0.00    -0.048 C  
HETATM   17  C   UNL     1      -8.330  10.346  68.145  1.00  0.00    -0.117 A  
HETATM   18  O   UNL     1      -7.768  10.041  70.462  1.00  0.00    -0.264 OA 
HETATM   19  C   UNL     1      -7.671  10.690  69.433  1.00  0.00    -0.129 C  
ENDBRANCH   5   6
ENDBRANCH   4   5
ENDBRANCH   2   4
BRANCH   2  20
HETATM   20  C   UNL     1     -11.420   9.365  71.568  1.00  0.00    -0.397 C  
BRANCH  20  21
HETATM   21  O   UNL     1     -12.316   9.979  70.663  1.00  0.00    -0.285 OA 
BRANCH  21  22
HETATM   22  C   UNL     1     -12.493  11.343  70.710  1.00  0.00    -0.365 A  
HETATM   23  C   UNL     1     -11.123  13.418  67.733  1.00  0.00    -0.292 C  
HETATM   24  C   UNL     1     -11.686  12.239  68.396  1.00  0.00    -0.337 C  
HETATM   25  C   UNL     1     -12.152  12.380  69.808  1.00  0.00    -0.292 A  
HETATM   26  C   UNL     1     -12.303  13.720  70.237  1.00  0.00    -0.337 A  
HETATM   27  C   UNL     1     -11.293  14.615  68.289  1.00  0.00    -0.297 C  
HETATM   28  C   UNL     1     -12.867  14.033  71.479  1.00  0.00    -0.440 A  
HETATM   29  O   UNL     1     -11.924  14.823  69.497  1.00  0.00    -0.295 OA 
HETATM   30  C   UNL     1     -13.274  13.016  72.328  1.00  0.00    -0.539 A  
HETATM   31  C   UNL     1     -10.825  15.790  67.507  1.00  0.00    -0.315 C  
HETATM   32  O   UNL     1     -11.055  16.955  68.150  1.00  0.00    -0.347 OA 
HETATM   33  C   UNL     1     -13.065  11.691  71.954  1.00  0.00    -0.490 A  
HETATM   34  O   UNL     1     -11.815  11.246  67.696  1.00  0.00    -0.614 OA 
HETATM   35  O   UNL     1     -10.301  15.726  66.407  1.00  0.00    -0.280 OA 
ENDBRANCH  21  22
ENDBRANCH  20  21
ENDBRANCH   2  20
TORSDOF 6
ENDMDL
MODEL       62
REMARK 921   NORMALIZED FREE ENERGY PREDICTED BY IDOCK:   -7.25 KCAL/MOL
REMARK 922        TOTAL FREE ENERGY PREDICTED BY IDOCK:  -11.09 KCAL/MOL
REMARK 923 INTER-LIGAND FREE ENERGY PREDICTED BY IDOCK:  -10.17 KCAL/MOL
REMARK 924 INTRA-LIGAND FREE ENERGY PREDICTED BY IDOCK:   -0.92 KCAL/MOL
REMARK 927      BINDING AFFINITY PREDICTED BY RF-SCORE:    0.00 PKD
ROOT
HETATM    1  O   UNL     1     -11.104  11.816  64.508  1.00  0.00    -0.309 OA 
HETATM    2  C   UNL     1     -10.384  11.530  65.724  1.00  0.00    -0.248 C  
HETATM    3  H   UNL     1     -10.511  11.673  63.780  1.00  0.00     0.000 HD 
ENDROOT
BRANCH   2   4
HETATM    4  C   UNL     1      -9.878  10.089  65.664  1.00  0.00    -0.295 C  
BRANCH   4   5
HETATM    5  O   UNL     1      -9.639   9.615  66.996  1.00  0.00    -0.160 OA 
BRANCH   5   6
HETATM    6  C   UNL     1     -10.041   8.347  67.313  1.00  0.00    -0.253 A  
HETATM    7  O   UNL     1     -11.056   7.571  73.686  1.00  0.00    -0.280 OA 
HETATM    8  O   UNL     1     -11.288   5.511  72.783  1.00  0.00    -0.288 OA 
HETATM    9  C   UNL     1     -10.266   7.352  66.349  1.00  0.00    -0.011 A  
HETATM   10  C   UNL     1     -10.626   6.057  66.720  1.00  0.00    -0.359 A  
HETATM   11  C   UNL     1     -11.020   6.835  72.716  1.00  0.00    -0.270 C  
HETATM   12  C   UNL     1     -10.767   5.735  68.062  1.00  0.00    -0.290 A  
HETATM   13  O   UNL     1     -10.760   6.311  70.333  1.00  0.00    -0.232 OA 
HETATM   14  C   UNL     1     -10.697   7.263  71.329  1.00  0.00    -0.225 C  
HETATM   15  C   UNL     1     -10.566   6.715  69.034  1.00  0.00    -0.239 A  
HETATM   16  C   UNL     1     -10.371   8.546  71.131  1.00  0.00    -0.273 C  
HETATM   17  C   UNL     1     -10.203   8.021  68.674  1.00  0.00    -0.225 A  
HETATM   18  O   UNL     1      -9.712  10.177  69.618  1.00  0.00    -0.228 OA 
HETATM   19  C   UNL     1     -10.051   9.013  69.771  1.00  0.00    -0.200 C  
ENDBRANCH   5   6
ENDBRANCH   4   5
ENDBRANCH   2   4
BRANCH   2  20
HETATM   20  C   UNL     1     -11.341  11.760  66.899  1.00  0.00    -0.320 C  
BRANCH  20  21
HETATM   21  O   UNL     1     -12.065  12.972  66.833  1.00  0.00    -0.373 OA 
BRANCH  21  22
HETATM   22  C   UNL     1     -11.662  14.042  67.600  1.00  0.00    -0.377 A  
HETATM   23  C   UNL     1     -12.474  13.918  71.391  1.00  0.00    -0.424 C  
HETATM   24  C   UNL     1     -12.161  13.366  70.071  1.00  0.00    -0.298 C  
HETATM   25  C   UNL     1     -11.766  14.314  68.986  1.00  0.00    -0.352 A  
HETATM   26  C   UNL     1     -11.417  15.606  69.444  1.00  0.00    -0.348 A  
HETATM   27  C   UNL     1     -12.138  15.178  71.661  1.00  0.00    -0.359 C  
HETATM   28  C   UNL     1     -10.887  16.572  68.581  1.00  0.00    -0.345 A  
HETATM   29  O   UNL     1     -11.557  16.035  70.750  1.00  0.00    -0.372 OA 
HETATM   30  C   UNL     1     -10.711  16.275  67.239  1.00  0.00    -0.265 A  
HETATM   31  C   UNL     1     -12.351  15.644  73.056  1.00  0.00    -0.463 C  
HETATM   32  O   UNL     1     -11.968  16.927  73.230  1.00  0.00    -0.357 OA 
HETATM   33  C   UNL     1     -11.118  15.035  66.756  1.00  0.00    -0.326 A  
HETATM   34  O   UNL     1     -12.159  12.147  69.991  1.00  0.00    -0.313 OA 
HETATM   35  O   UNL     1     -12.809  14.956  73.954  1.00  0.00    -0.494 OA 
ENDBRANCH  21  22
ENDBRANCH  20  21
ENDBRANCH   2  20
TORSDOF 6
ENDMDL
MODEL       63
REMARK 921   NORMALIZED FREE ENERGY PREDICTED BY IDOCK:   -7.24 KCAL/MOL
REMARK 922        TOTAL FREE ENERGY PREDICTED BY IDOCK:  -11.08 KCAL/MOL
REMARK 923 INTER-LIGAND FREE ENERGY PREDICTED BY IDOCK:   -9.41 KCAL/MOL
REMARK 924 INTRA-LIGAND FREE ENERGY PREDICTED BY IDOCK:   -1.67 KCAL/MOL
REMARK 927      BINDING AFFINITY PREDICTED BY RF-SCORE:    0.00 PKD
ROOT
HETATM    1  O   UNL     1     -10.990  16.032  66.847  1.00  0.00    -0.254 OA 
HETATM    2  C   UNL     1     -10.856  16.981  67.923  1.00  0.00    -0.302 C  
HETATM    3  H   UNL     1     -10.850  16.498  66.031  1.00  0.00     0.000 HD 
ENDROOT
BRANCH   2   4
HETATM    4  C   UNL     1      -9.466  17.613  67.848  1.00  0.00    -0.276 C  
BRANCH   4   5
HETATM    5  O   UNL     1      -8.509  16.611  67.482  1.00  0.00    -0.184 OA 
BRANCH   5   6
HETATM    6  C   UNL     1      -7.549  16.271  68.395  1.00  0.00    -0.166 A  
HETATM    7  O   UNL     1      -6.825   9.839  68.977  1.00  0.00    -0.049 OA 
HETATM    8  O   UNL     1      -5.506  10.741  70.577  1.00  0.00    -0.072 OA 
HETATM    9  C   UNL     1      -6.770  17.220  69.076  1.00  0.00    -0.238 A  
HETATM   10  C   UNL     1      -5.837  16.831  70.037  1.00  0.00    -0.210 A  
HETATM   11  C   UNL     1      -6.401  10.817  69.566  1.00  0.00    -0.079 C  
HETATM   12  C   UNL     1      -5.667  15.486  70.333  1.00  0.00    -0.121 A  
HETATM   13  O   UNL     1      -6.157  13.221  69.990  1.00  0.00    -0.140 OA 
HETATM   14  C   UNL     1      -6.778  12.224  69.266  1.00  0.00    -0.075 C  
HETATM   15  C   UNL     1      -6.418  14.527  69.652  1.00  0.00    -0.148 A  
HETATM   16  C   UNL     1      -7.690  12.438  68.311  1.00  0.00    -0.140 C  
HETATM   17  C   UNL     1      -7.360  14.905  68.685  1.00  0.00    -0.120 A  
HETATM   18  O   UNL     1      -8.952  13.989  67.135  1.00  0.00    -0.212 OA 
HETATM   19  C   UNL     1      -8.086  13.817  67.978  1.00  0.00    -0.163 C  
ENDBRANCH   5   6
ENDBRANCH   4   5
ENDBRANCH   2   4
BRANCH   2  20
HETATM   20  C   UNL     1     -11.080  16.229  69.239  1.00  0.00    -0.325 C  
BRANCH  20  21
HETATM   21  O   UNL     1     -11.812  15.027  69.108  1.00  0.00    -0.302 OA 
BRANCH  21  22
HETATM   22  C   UNL     1     -12.335  14.428  70.232  1.00  0.00    -0.348 A  
HETATM   23  C   UNL     1     -12.359  10.551  70.331  1.00  0.00    -0.409 C  
HETATM   24  C   UNL     1     -11.863  11.876  69.954  1.00  0.00    -0.343 C  
HETATM   25  C   UNL     1     -12.476  13.071  70.609  1.00  0.00    -0.347 A  
HETATM   26  C   UNL     1     -13.237  12.771  71.764  1.00  0.00    -0.374 A  
HETATM   27  C   UNL     1     -13.121  10.430  71.416  1.00  0.00    -0.413 C  
HETATM   28  C   UNL     1     -13.760  13.781  72.579  1.00  0.00    -0.667 A  
HETATM   29  O   UNL     1     -13.532  11.492  72.193  1.00  0.00    -0.410 OA 
HETATM   30  C   UNL     1     -13.552  15.111  72.251  1.00  0.00    -0.566 A  
HETATM   31  C   UNL     1     -13.481   9.049  71.832  1.00  0.00    -0.425 C  
HETATM   32  O   UNL     1     -14.241   9.033  72.948  1.00  0.00    -0.528 OA 
HETATM   33  C   UNL     1     -12.869  15.424  71.078  1.00  0.00    -0.525 A  
HETATM   34  O   UNL     1     -10.910  11.890  69.191  1.00  0.00    -0.212 OA 
HETATM   35  O   UNL     1     -13.130   8.036  71.250  1.00  0.00    -0.266 OA 
ENDBRANCH  21  22
ENDBRANCH  20  21
ENDBRANCH   2  20
TORSDOF 6
ENDMDL
MODEL       64
REMARK 921   NORMALIZED FREE ENERGY PREDICTED BY IDOCK:   -7.20 KCAL/MOL
REMARK 922        TOTAL FREE ENERGY PREDICTED BY IDOCK:  -11.03 KCAL/MOL
REMARK 923 INTER-LIGAND FREE ENERGY PREDICTED BY IDOCK:   -9.71 KCAL/MOL
REMARK 924 INTRA-LIGAND FREE ENERGY PREDICTED BY IDOCK:   -1.32 KCAL/MOL
REMARK 927      BINDING AFFINITY PREDICTED BY RF-SCORE:    0.00 PKD
ROOT
HETATM    1  O   UNL     1      -9.819   8.021  65.999  1.00  0.00    -0.459 OA 
HETATM    2  C   UNL     1      -9.680   9.427  66.281  1.00  0.00    -0.264 C  
HETATM    3  H   UNL     1      -9.696   7.549  66.814  1.00  0.00     0.000 HD 
ENDROOT
BRANCH   2   4
HETATM    4  C   UNL     1     -10.712   9.819  67.338  1.00  0.00    -0.249 C  
BRANCH   4   5
HETATM    5  O   UNL     1     -10.081   9.858  68.624  1.00  0.00    -0.163 OA 
BRANCH   5   6
HETATM    6  C   UNL     1     -10.857   9.655  69.732  1.00  0.00    -0.250 A  
HETATM    7  O   UNL     1      -9.878   3.823  72.429  1.00  0.00    -0.143 OA 
HETATM    8  O   UNL     1     -11.604   4.734  73.571  1.00  0.00    -0.281 OA 
HETATM    9  C   UNL     1     -11.719  10.633  70.252  1.00  0.00    -0.433 A  
HETATM   10  C   UNL     1     -12.531  10.366  71.354  1.00  0.00    -0.521 A  
HETATM   11  C   UNL     1     -10.668   4.735  72.595  1.00  0.00    -0.199 C  
HETATM   12  C   UNL     1     -12.495   9.115  71.954  1.00  0.00    -0.459 A  
HETATM   13  O   UNL     1     -11.641   6.941  72.142  1.00  0.00    -0.268 OA 
HETATM   14  C   UNL     1     -10.722   5.979  71.780  1.00  0.00    -0.244 C  
HETATM   15  C   UNL     1     -11.631   8.136  71.463  1.00  0.00    -0.275 A  
HETATM   16  C   UNL     1      -9.872   6.089  70.752  1.00  0.00    -0.221 C  
HETATM   17  C   UNL     1     -10.810   8.392  70.356  1.00  0.00    -0.246 A  
HETATM   18  O   UNL     1      -9.137   7.371  68.964  1.00  0.00    -0.135 OA 
HETATM   19  C   UNL     1      -9.888   7.308  69.925  1.00  0.00    -0.178 C  
ENDBRANCH   5   6
ENDBRANCH   4   5
ENDBRANCH   2   4
BRANCH   2  20
HETATM   20  C   UNL     1      -9.879  10.190  64.966  1.00  0.00    -0.322 C  
BRANCH  20  21
HETATM   21  O   UNL     1      -9.483  11.545  65.011  1.00  0.00    -0.222 OA 
BRANCH  21  22
HETATM   22  C   UNL     1     -10.401  12.506  65.369  1.00  0.00    -0.282 A  
HETATM   23  C   UNL     1     -10.239  13.852  69.004  1.00  0.00    -0.071 C  
HETATM   24  C   UNL     1      -9.708  13.286  67.762  1.00  0.00    -0.217 C  
HETATM   25  C   UNL     1     -10.611  13.221  66.574  1.00  0.00    -0.289 A  
HETATM   26  C   UNL     1     -11.775  14.018  66.687  1.00  0.00    -0.399 A  
HETATM   27  C   UNL     1     -11.385  14.530  68.967  1.00  0.00    -0.272 C  
HETATM   28  C   UNL     1     -12.656  14.186  65.612  1.00  0.00    -0.495 A  
HETATM   29  O   UNL     1     -12.151  14.692  67.832  1.00  0.00    -0.304 OA 
HETATM   30  C   UNL     1     -12.404  13.549  64.408  1.00  0.00    -0.391 A  
HETATM   31  C   UNL     1     -11.807  15.201  70.225  1.00  0.00    -0.311 C  
HETATM   32  O   UNL     1     -12.969  15.871  70.081  1.00  0.00    -0.239 OA 
HETATM   33  C   UNL     1     -11.304  12.701  64.301  1.00  0.00    -0.416 A  
HETATM   34  O   UNL     1      -8.522  12.995  67.775  1.00  0.00    -0.162 OA 
HETATM   35  O   UNL     1     -11.181  15.167  71.272  1.00  0.00    -0.331 OA 
ENDBRANCH  21  22
ENDBRANCH  20  21
ENDBRANCH   2  20
TORSDOF 6
ENDMDL
MODEL       65
REMARK 921   NORMALIZED FREE ENERGY PREDICTED BY IDOCK:   -7.20 KCAL/MOL
REMARK 922        TOTAL FREE ENERGY PREDICTED BY IDOCK:  -11.02 KCAL/MOL
REMARK 923 INTER-LIGAND FREE ENERGY PREDICTED BY IDOCK:   -9.81 KCAL/MOL
REMARK 924 INTRA-LIGAND FREE ENERGY PREDICTED BY IDOCK:   -1.21 KCAL/MOL
REMARK 927      BINDING AFFINITY PREDICTED BY RF-SCORE:    0.00 PKD
ROOT
HETATM    1  O   UNL     1     -11.946  13.984  70.836  1.00  0.00    -0.400 OA 
HETATM    2  C   UNL     1     -11.670  12.948  69.873  1.00  0.00    -0.254 C  
HETATM    3  H   UNL     1     -11.423  14.742  70.603  1.00  0.00     0.000 HD 
ENDROOT
BRANCH   2   4
HETATM    4  C   UNL     1     -12.003  13.475  68.477  1.00  0.00    -0.344 C  
BRANCH   4   5
HETATM    5  O   UNL     1     -12.257  12.369  67.602  1.00  0.00    -0.425 OA 
BRANCH   5   6
HETATM    6  C   UNL     1     -11.894  12.487  66.289  1.00  0.00    -0.390 A  
HETATM    7  O   UNL     1      -7.946   7.701  64.351  1.00  0.00    -0.136 OA 
HETATM    8  O   UNL     1      -8.051   9.139  62.609  1.00  0.00    -0.132 OA 
HETATM    9  C   UNL     1     -12.379  13.501  65.449  1.00  0.00    -0.517 A  
HETATM   10  C   UNL     1     -11.943  13.615  64.129  1.00  0.00    -0.488 A  
HETATM   11  C   UNL     1      -8.349   8.744  63.868  1.00  0.00    -0.141 C  
HETATM   12  C   UNL     1     -11.013  12.716  63.627  1.00  0.00    -0.464 A  
HETATM   13  O   UNL     1      -9.640  10.830  63.847  1.00  0.00    -0.240 OA 
HETATM   14  C   UNL     1      -9.225   9.726  64.562  1.00  0.00    -0.253 C  
HETATM   15  C   UNL     1     -10.533  11.690  64.441  1.00  0.00    -0.322 A  
HETATM   16  C   UNL     1      -9.561   9.474  65.832  1.00  0.00    -0.327 C  
HETATM   17  C   UNL     1     -10.963  11.565  65.770  1.00  0.00    -0.305 A  
HETATM   18  O   UNL     1     -10.692  10.194  67.725  1.00  0.00    -0.237 OA 
HETATM   19  C   UNL     1     -10.434  10.417  66.553  1.00  0.00    -0.196 C  
ENDBRANCH   5   6
ENDBRANCH   4   5
ENDBRANCH   2   4
BRANCH   2  20
HETATM   20  C   UNL     1     -12.514  11.725  70.248  1.00  0.00    -0.159 C  
BRANCH  20  21
HETATM   21  O   UNL     1     -12.055  11.025  71.387  1.00  0.00    -0.243 OA 
BRANCH  21  22
HETATM   22  C   UNL     1     -12.235   9.663  71.461  1.00  0.00    -0.399 A  
HETATM   23  C   UNL     1      -9.269   7.415  70.367  1.00  0.00    -0.158 C  
HETATM   24  C   UNL     1      -9.908   8.614  70.915  1.00  0.00    -0.205 C  
HETATM   25  C   UNL     1     -11.379   8.572  71.174  1.00  0.00    -0.319 A  
HETATM   26  C   UNL     1     -11.930   7.269  71.172  1.00  0.00    -0.328 A  
HETATM   27  C   UNL     1      -9.937   6.264  70.376  1.00  0.00    -0.178 C  
HETATM   28  C   UNL     1     -13.260   7.035  71.539  1.00  0.00    -0.382 A  
HETATM   29  O   UNL     1     -11.235   6.128  70.821  1.00  0.00    -0.302 OA 
HETATM   30  C   UNL     1     -14.074   8.097  71.897  1.00  0.00    -0.493 A  
HETATM   31  C   UNL     1      -9.193   5.054  69.937  1.00  0.00    -0.124 C  
HETATM   32  O   UNL     1      -9.952   3.939  69.997  1.00  0.00    -0.159 OA 
HETATM   33  C   UNL     1     -13.570   9.394  71.833  1.00  0.00    -0.482 A  
HETATM   34  O   UNL     1      -9.157   9.531  71.206  1.00  0.00    -0.236 OA 
HETATM   35  O   UNL     1      -8.028   5.050  69.573  1.00  0.00    -0.073 OA 
ENDBRANCH  21  22
ENDBRANCH  20  21
ENDBRANCH   2  20
TORSDOF 6
ENDMDL
MODEL       66
REMARK 921   NORMALIZED FREE ENERGY PREDICTED BY IDOCK:   -7.20 KCAL/MOL
REMARK 922        TOTAL FREE ENERGY PREDICTED BY IDOCK:  -11.01 KCAL/MOL
REMARK 923 INTER-LIGAND FREE ENERGY PREDICTED BY IDOCK:   -9.66 KCAL/MOL
REMARK 924 INTRA-LIGAND FREE ENERGY PREDICTED BY IDOCK:   -1.36 KCAL/MOL
REMARK 927      BINDING AFFINITY PREDICTED BY RF-SCORE:    0.00 PKD
ROOT
HETATM    1  O   UNL     1     -12.276  15.910  69.035  1.00  0.00    -0.531 OA 
HETATM    2  C   UNL     1     -11.463  14.997  68.272  1.00  0.00    -0.332 C  
HETATM    3  H   UNL     1     -11.924  16.784  68.911  1.00  0.00     0.000 HD 
ENDROOT
BRANCH   2   4
HETATM    4  C   UNL     1     -11.488  15.428  66.806  1.00  0.00    -0.045 C  
BRANCH   4   5
HETATM    5  O   UNL     1     -10.443  14.752  66.096  1.00  0.00    -0.285 OA 
BRANCH   5   6
HETATM    6  C   UNL     1     -10.783  13.697  65.294  1.00  0.00    -0.336 A  
HETATM    7  O   UNL     1      -7.320   8.354  66.593  1.00  0.00    -0.080 OA 
HETATM    8  O   UNL     1      -8.545   7.847  64.762  1.00  0.00    -0.051 OA 
HETATM    9  C   UNL     1     -11.814  13.761  64.343  1.00  0.00    -0.458 A  
HETATM   10  C   UNL     1     -12.094  12.678  63.510  1.00  0.00    -0.648 A  
HETATM   11  C   UNL     1      -8.115   8.685  65.733  1.00  0.00    -0.114 C  
HETATM   12  C   UNL     1     -11.348  11.512  63.615  1.00  0.00    -0.412 A  
HETATM   13  O   UNL     1      -9.671  10.220  64.618  1.00  0.00    -0.293 OA 
HETATM   14  C   UNL     1      -8.741  10.029  65.619  1.00  0.00    -0.155 C  
HETATM   15  C   UNL     1     -10.333  11.424  64.567  1.00  0.00    -0.313 A  
HETATM   16  C   UNL     1      -8.370  10.968  66.498  1.00  0.00    -0.163 C  
HETATM   17  C   UNL     1     -10.041  12.506  65.410  1.00  0.00    -0.284 A  
HETATM   18  O   UNL     1      -8.586  13.166  67.206  1.00  0.00    -0.194 OA 
HETATM   19  C   UNL     1      -8.972  12.311  66.425  1.00  0.00    -0.117 C  
ENDBRANCH   5   6
ENDBRANCH   4   5
ENDBRANCH   2   4
BRANCH   2  20
HETATM   20  C   UNL     1     -12.031  13.587  68.472  1.00  0.00    -0.344 C  
BRANCH  20  21
HETATM   21  O   UNL     1     -11.174  12.705  69.167  1.00  0.00    -0.259 OA 
BRANCH  21  22
HETATM   22  C   UNL     1     -11.689  11.904  70.160  1.00  0.00    -0.253 A  
HETATM   23  C   UNL     1     -10.599   8.181  70.187  1.00  0.00    -0.237 C  
HETATM   24  C   UNL     1     -10.453   9.616  69.934  1.00  0.00    -0.253 C  
HETATM   25  C   UNL     1     -11.493  10.538  70.481  1.00  0.00    -0.433 A  
HETATM   26  C   UNL     1     -12.326   9.954  71.464  1.00  0.00    -0.412 A  
HETATM   27  C   UNL     1     -11.472   7.773  71.105  1.00  0.00    -0.274 C  
HETATM   28  C   UNL     1     -13.257  10.713  72.182  1.00  0.00    -0.379 A  
HETATM   29  O   UNL     1     -12.306   8.616  71.808  1.00  0.00    -0.307 OA 
HETATM   30  C   UNL     1     -13.390  12.067  71.922  1.00  0.00    -0.408 A  
HETATM   31  C   UNL     1     -11.481   6.320  71.421  1.00  0.00    -0.293 C  
HETATM   32  O   UNL     1     -12.389   6.010  72.371  1.00  0.00    -0.221 OA 
HETATM   33  C   UNL     1     -12.632  12.644  70.906  1.00  0.00    -0.338 A  
HETATM   34  O   UNL     1      -9.425   9.954  69.367  1.00  0.00    -0.187 OA 
HETATM   35  O   UNL     1     -10.752   5.492  70.899  1.00  0.00    -0.252 OA 
ENDBRANCH  21  22
ENDBRANCH  20  21
ENDBRANCH   2  20
TORSDOF 6
ENDMDL
MODEL       67
REMARK 921   NORMALIZED FREE ENERGY PREDICTED BY IDOCK:   -7.19 KCAL/MOL
REMARK 922        TOTAL FREE ENERGY PREDICTED BY IDOCK:  -11.01 KCAL/MOL
REMARK 923 INTER-LIGAND FREE ENERGY PREDICTED BY IDOCK:   -9.95 KCAL/MOL
REMARK 924 INTRA-LIGAND FREE ENERGY PREDICTED BY IDOCK:   -1.06 KCAL/MOL
REMARK 927      BINDING AFFINITY PREDICTED BY RF-SCORE:    0.00 PKD
ROOT
HETATM    1  O   UNL     1     -14.075   9.572  72.693  1.00  0.00    -0.709 OA 
HETATM    2  C   UNL     1     -12.902  10.315  72.307  1.00  0.00    -0.118 C  
HETATM    3  H   UNL     1     -14.452  10.000  73.453  1.00  0.00     0.000 HD 
ENDROOT
BRANCH   2   4
HETATM    4  C   UNL     1     -13.311  11.758  72.016  1.00  0.00    -0.312 C  
BRANCH   4   5
HETATM    5  O   UNL     1     -12.777  12.155  70.746  1.00  0.00    -0.243 OA 
BRANCH   5   6
HETATM    6  C   UNL     1     -12.352  13.446  70.598  1.00  0.00    -0.348 A  
HETATM    7  O   UNL     1     -10.661  14.832  64.477  1.00  0.00    -0.293 OA 
HETATM    8  O   UNL     1     -10.104  16.660  65.685  1.00  0.00    -0.508 OA 
HETATM    9  C   UNL     1     -12.347  14.375  71.650  1.00  0.00    -0.415 A  
HETATM   10  C   UNL     1     -11.857  15.668  71.468  1.00  0.00    -0.493 A  
HETATM   11  C   UNL     1     -10.581  15.402  65.551  1.00  0.00    -0.383 C  
HETATM   12  C   UNL     1     -11.363  16.053  70.230  1.00  0.00    -0.391 A  
HETATM   13  O   UNL     1     -10.898  15.632  67.972  1.00  0.00    -0.287 OA 
HETATM   14  C   UNL     1     -10.999  14.827  66.857  1.00  0.00    -0.328 C  
HETATM   15  C   UNL     1     -11.377  15.150  69.167  1.00  0.00    -0.298 A  
HETATM   16  C   UNL     1     -11.453  13.568  66.870  1.00  0.00    -0.374 C  
HETATM   17  C   UNL     1     -11.866  13.847  69.337  1.00  0.00    -0.384 A  
HETATM   18  O   UNL     1     -12.252  11.799  68.140  1.00  0.00    -0.507 OA 
HETATM   19  C   UNL     1     -11.884  12.963  68.142  1.00  0.00    -0.336 C  
ENDBRANCH   5   6
ENDBRANCH   4   5
ENDBRANCH   2   4
BRANCH   2  20
HETATM   20  C   UNL     1     -12.295   9.625  71.080  1.00  0.00    -0.339 C  
BRANCH  20  21
HETATM   21  O   UNL     1     -10.907   9.375  71.178  1.00  0.00    -0.303 OA 
BRANCH  21  22
HETATM   22  C   UNL     1     -10.236   8.856  70.094  1.00  0.00    -0.196 A  
HETATM   23  C   UNL     1     -10.333   5.008  69.618  1.00  0.00    -0.260 C  
HETATM   24  C   UNL     1     -10.835   6.316  70.043  1.00  0.00    -0.324 C  
HETATM   25  C   UNL     1     -10.085   7.534  69.610  1.00  0.00    -0.189 A  
HETATM   26  C   UNL     1      -9.164   7.304  68.562  1.00  0.00    -0.138 A  
HETATM   27  C   UNL     1      -9.415   4.949  68.655  1.00  0.00    -0.144 C  
HETATM   28  C   UNL     1      -8.484   8.357  67.939  1.00  0.00    -0.131 A  
HETATM   29  O   UNL     1      -8.850   6.056  68.058  1.00  0.00    -0.112 OA 
HETATM   30  C   UNL     1      -8.695   9.659  68.361  1.00  0.00    -0.120 A  
HETATM   31  C   UNL     1      -9.043   3.596  68.166  1.00  0.00    -0.149 C  
HETATM   32  O   UNL     1      -8.119   3.645  67.183  1.00  0.00    -0.090 OA 
HETATM   33  C   UNL     1      -9.542   9.898  69.441  1.00  0.00    -0.229 A  
HETATM   34  O   UNL     1     -11.895   6.307  70.650  1.00  0.00    -0.313 OA 
HETATM   35  O   UNL     1      -9.517   2.552  68.585  1.00  0.00    -0.189 OA 
ENDBRANCH  21  22
ENDBRANCH  20  21
ENDBRANCH   2  20
TORSDOF 6
ENDMDL
MODEL       68
REMARK 921   NORMALIZED FREE ENERGY PREDICTED BY IDOCK:   -7.18 KCAL/MOL
REMARK 922        TOTAL FREE ENERGY PREDICTED BY IDOCK:  -10.99 KCAL/MOL
REMARK 923 INTER-LIGAND FREE ENERGY PREDICTED BY IDOCK:  -10.08 KCAL/MOL
REMARK 924 INTRA-LIGAND FREE ENERGY PREDICTED BY IDOCK:   -0.91 KCAL/MOL
REMARK 927      BINDING AFFINITY PREDICTED BY RF-SCORE:    0.00 PKD
ROOT
HETATM    1  O   UNL     1     -12.014  12.626  70.866  1.00  0.00    -0.448 OA 
HETATM    2  C   UNL     1     -12.260  11.389  70.169  1.00  0.00    -0.321 C  
HETATM    3  H   UNL     1     -12.400  12.552  71.732  1.00  0.00     0.000 HD 
ENDROOT
BRANCH   2   4
HETATM    4  C   UNL     1     -11.652  10.243  70.977  1.00  0.00    -0.343 C  
BRANCH   4   5
HETATM    5  O   UNL     1     -11.294   9.175  70.090  1.00  0.00    -0.231 OA 
BRANCH   5   6
HETATM    6  C   UNL     1     -11.087   7.933  70.623  1.00  0.00    -0.259 A  
HETATM    7  O   UNL     1      -9.108   3.611  66.192  1.00  0.00    -0.138 OA 
HETATM    8  O   UNL     1      -9.431   2.424  68.089  1.00  0.00    -0.208 OA 
HETATM    9  C   UNL     1     -11.229   7.655  71.992  1.00  0.00    -0.317 A  
HETATM   10  C   UNL     1     -11.058   6.362  72.487  1.00  0.00    -0.298 A  
HETATM   11  C   UNL     1      -9.454   3.562  67.358  1.00  0.00    -0.190 C  
HETATM   12  C   UNL     1     -10.741   5.326  71.620  1.00  0.00    -0.227 A  
HETATM   13  O   UNL     1     -10.231   4.504  69.486  1.00  0.00    -0.168 OA 
HETATM   14  C   UNL     1      -9.935   4.721  68.156  1.00  0.00    -0.087 C  
HETATM   15  C   UNL     1     -10.576   5.586  70.260  1.00  0.00    -0.287 A  
HETATM   16  C   UNL     1     -10.045   5.903  67.539  1.00  0.00    -0.197 C  
HETATM   17  C   UNL     1     -10.747   6.881  69.750  1.00  0.00    -0.276 A  
HETATM   18  O   UNL     1     -10.647   8.137  67.703  1.00  0.00    -0.233 OA 
HETATM   19  C   UNL     1     -10.510   7.079  68.295  1.00  0.00    -0.202 C  
ENDBRANCH   5   6
ENDBRANCH   4   5
ENDBRANCH   2   4
BRANCH   2  20
HETATM   20  C   UNL     1     -11.638  11.508  68.773  1.00  0.00    -0.316 C  
BRANCH  20  21
HETATM   21  O   UNL     1     -12.399  12.270  67.858  1.00  0.00    -0.283 OA 
BRANCH  21  22
HETATM   22  C   UNL     1     -11.757  13.137  67.003  1.00  0.00    -0.377 A  
HETATM   23  C   UNL     1     -11.034  16.716  68.314  1.00  0.00    -0.341 C  
HETATM   24  C   UNL     1     -11.243  15.270  68.417  1.00  0.00    -0.309 C  
HETATM   25  C   UNL     1     -11.323  14.477  67.154  1.00  0.00    -0.361 A  
HETATM   26  C   UNL     1     -10.856  15.163  66.009  1.00  0.00    -0.335 A  
HETATM   27  C   UNL     1     -10.651  17.231  67.147  1.00  0.00    -0.256 C  
HETATM   28  C   UNL     1     -10.726  14.522  64.772  1.00  0.00    -0.414 A  
HETATM   29  O   UNL     1     -10.490  16.496  65.993  1.00  0.00    -0.328 OA 
HETATM   30  C   UNL     1     -11.076  13.188  64.646  1.00  0.00    -0.366 A  
HETATM   31  C   UNL     1     -10.318  18.680  67.132  1.00  0.00    -0.401 C  
HETATM   32  O   UNL     1      -9.929  19.102  65.910  1.00  0.00    -0.458 OA 
HETATM   33  C   UNL     1     -11.608  12.516  65.744  1.00  0.00    -0.439 A  
HETATM   34  O   UNL     1     -11.242  14.812  69.550  1.00  0.00    -0.256 OA 
HETATM   35  O   UNL     1     -10.375  19.415  68.105  1.00  0.00    -0.408 OA 
ENDBRANCH  21  22
ENDBRANCH  20  21
ENDBRANCH   2  20
TORSDOF 6
ENDMDL
MODEL       69
REMARK 921   NORMALIZED FREE ENERGY PREDICTED BY IDOCK:   -7.17 KCAL/MOL
REMARK 922        TOTAL FREE ENERGY PREDICTED BY IDOCK:  -10.98 KCAL/MOL
REMARK 923 INTER-LIGAND FREE ENERGY PREDICTED BY IDOCK:   -9.20 KCAL/MOL
REMARK 924 INTRA-LIGAND FREE ENERGY PREDICTED BY IDOCK:   -1.78 KCAL/MOL
REMARK 927      BINDING AFFINITY PREDICTED BY RF-SCORE:    0.00 PKD
ROOT
HETATM    1  O   UNL     1      -7.695   9.711  66.652  1.00  0.00    -0.097 OA 
HETATM    2  C   UNL     1      -8.223   8.810  65.659  1.00  0.00    -0.121 C  
HETATM    3  H   UNL     1      -7.456  10.519  66.213  1.00  0.00     0.000 HD 
ENDROOT
BRANCH   2   4
HETATM    4  C   UNL     1      -9.421   9.477  64.982  1.00  0.00    -0.204 C  
BRANCH   4   5
HETATM    5  O   UNL     1      -9.169  10.881  64.849  1.00  0.00    -0.200 OA 
BRANCH   5   6
HETATM    6  C   UNL     1     -10.236  11.736  64.880  1.00  0.00    -0.273 A  
HETATM    7  O   UNL     1      -9.530  16.456  69.291  1.00  0.00    -0.246 OA 
HETATM    8  O   UNL     1     -11.628  16.694  68.484  1.00  0.00    -0.183 OA 
HETATM    9  C   UNL     1     -11.328  11.627  64.005  1.00  0.00    -0.428 A  
HETATM   10  C   UNL     1     -12.420  12.489  64.104  1.00  0.00    -0.518 A  
HETATM   11  C   UNL     1     -10.430  16.072  68.566  1.00  0.00    -0.258 C  
HETATM   12  C   UNL     1     -12.439  13.473  65.082  1.00  0.00    -0.495 A  
HETATM   13  O   UNL     1     -11.448  14.632  66.862  1.00  0.00    -0.347 OA 
HETATM   14  C   UNL     1     -10.357  14.893  67.663  1.00  0.00    -0.242 C  
HETATM   15  C   UNL     1     -11.354  13.609  65.949  1.00  0.00    -0.309 A  
HETATM   16  C   UNL     1      -9.236  14.162  67.679  1.00  0.00    -0.193 C  
HETATM   17  C   UNL     1     -10.251  12.749  65.859  1.00  0.00    -0.300 A  
HETATM   18  O   UNL     1      -8.108  12.310  66.856  1.00  0.00    -0.163 OA 
HETATM   19  C   UNL     1      -9.120  12.990  66.794  1.00  0.00    -0.210 C  
ENDBRANCH   5   6
ENDBRANCH   4   5
ENDBRANCH   2   4
BRANCH   2  20
HETATM   20  C   UNL     1      -8.608   7.507  66.368  1.00  0.00    -0.140 C  
BRANCH  20  21
HETATM   21  O   UNL     1      -8.379   7.511  67.762  1.00  0.00    -0.118 OA 
BRANCH  21  22
HETATM   22  C   UNL     1      -9.407   7.180  68.617  1.00  0.00    -0.134 A  
HETATM   23  C   UNL     1     -11.486  10.093  70.112  1.00  0.00    -0.368 C  
HETATM   24  C   UNL     1     -10.664   9.414  69.108  1.00  0.00    -0.197 C  
HETATM   25  C   UNL     1     -10.362   7.965  69.307  1.00  0.00    -0.222 A  
HETATM   26  C   UNL     1     -11.180   7.330  70.272  1.00  0.00    -0.262 A  
HETATM   27  C   UNL     1     -12.156   9.363  71.000  1.00  0.00    -0.298 C  
HETATM   28  C   UNL     1     -11.131   5.947  70.480  1.00  0.00    -0.347 A  
HETATM   29  O   UNL     1     -12.086   7.989  71.081  1.00  0.00    -0.300 OA 
HETATM   30  C   UNL     1     -10.250   5.170  69.744  1.00  0.00    -0.357 A  
HETATM   31  C   UNL     1     -13.083  10.093  71.905  1.00  0.00    -0.466 C  
HETATM   32  O   UNL     1     -13.724   9.264  72.756  1.00  0.00    -0.410 OA 
HETATM   33  C   UNL     1      -9.385   5.787  68.844  1.00  0.00    -0.141 A  
HETATM   34  O   UNL     1     -10.365  10.078  68.127  1.00  0.00    -0.173 OA 
HETATM   35  O   UNL     1     -13.262  11.300  71.887  1.00  0.00    -0.482 OA 
ENDBRANCH  21  22
ENDBRANCH  20  21
ENDBRANCH   2  20
TORSDOF 6
ENDMDL
MODEL       70
REMARK 921   NORMALIZED FREE ENERGY PREDICTED BY IDOCK:   -7.17 KCAL/MOL
REMARK 922        TOTAL FREE ENERGY PREDICTED BY IDOCK:  -10.98 KCAL/MOL
REMARK 923 INTER-LIGAND FREE ENERGY PREDICTED BY IDOCK:   -7.82 KCAL/MOL
REMARK 924 INTRA-LIGAND FREE ENERGY PREDICTED BY IDOCK:   -3.15 KCAL/MOL
REMARK 927      BINDING AFFINITY PREDICTED BY RF-SCORE:    0.00 PKD
ROOT
HETATM    1  O   UNL     1     -10.766   5.683  74.217  1.00  0.00    -0.322 OA 
HETATM    2  C   UNL     1     -11.371   5.324  72.959  1.00  0.00    -0.309 C  
HETATM    3  H   UNL     1     -10.527   4.878  74.663  1.00  0.00     0.000 HD 
ENDROOT
BRANCH   2   4
HETATM    4  C   UNL     1     -10.372   4.492  72.155  1.00  0.00    -0.162 C  
BRANCH   4   5
HETATM    5  O   UNL     1     -10.367   4.943  70.795  1.00  0.00    -0.222 OA 
BRANCH   5   6
HETATM    6  C   UNL     1      -9.180   5.355  70.255  1.00  0.00    -0.148 A  
HETATM    7  O   UNL     1      -9.985   9.542  65.350  1.00  0.00    -0.284 OA 
HETATM    8  O   UNL     1      -7.768   9.102  65.409  1.00  0.00    -0.096 OA 
HETATM    9  C   UNL     1      -7.931   4.956  70.758  1.00  0.00    -0.083 A  
HETATM   10  C   UNL     1      -6.745   5.359  70.146  1.00  0.00    -0.047 A  
HETATM   11  C   UNL     1      -9.043   8.940  65.832  1.00  0.00    -0.218 C  
HETATM   12  C   UNL     1      -6.787   6.167  69.019  1.00  0.00    -0.066 A  
HETATM   13  O   UNL     1      -7.958   7.414  67.417  1.00  0.00    -0.109 OA 
HETATM   14  C   UNL     1      -9.134   7.962  66.949  1.00  0.00    -0.143 C  
HETATM   15  C   UNL     1      -8.018   6.590  68.516  1.00  0.00    -0.110 A  
HETATM   16  C   UNL     1     -10.348   7.679  67.435  1.00  0.00    -0.347 C  
HETATM   17  C   UNL     1      -9.217   6.191  69.122  1.00  0.00    -0.129 A  
HETATM   18  O   UNL     1     -11.602   6.443  68.945  1.00  0.00    -0.230 OA 
HETATM   19  C   UNL     1     -10.482   6.722  68.546  1.00  0.00    -0.204 C  
ENDBRANCH   5   6
ENDBRANCH   4   5
ENDBRANCH   2   4
BRANCH   2  20
HETATM   20  C   UNL     1     -11.757   6.622  72.240  1.00  0.00    -0.269 C  
BRANCH  20  21
HETATM   21  O   UNL     1     -11.152   7.784  72.768  1.00  0.00    -0.342 OA 
BRANCH  21  22
HETATM   22  C   UNL     1     -10.329   8.542  71.966  1.00  0.00    -0.338 A  
HETATM   23  C   UNL     1     -12.028  10.834  69.338  1.00  0.00    -0.353 C  
HETATM   24  C   UNL     1     -11.916  10.101  70.601  1.00  0.00    -0.332 C  
HETATM   25  C   UNL     1     -10.600   9.484  70.944  1.00  0.00    -0.395 A  
HETATM   26  C   UNL     1      -9.518   9.960  70.167  1.00  0.00    -0.163 A  
HETATM   27  C   UNL     1     -10.918  11.163  68.681  1.00  0.00    -0.220 C  
HETATM   28  C   UNL     1      -8.196   9.597  70.450  1.00  0.00    -0.194 A  
HETATM   29  O   UNL     1      -9.648  10.807  69.083  1.00  0.00    -0.204 OA 
HETATM   30  C   UNL     1      -7.927   8.737  71.502  1.00  0.00    -0.160 A  
HETATM   31  C   UNL     1     -11.080  12.026  67.481  1.00  0.00    -0.275 C  
HETATM   32  O   UNL     1      -9.898  12.314  66.896  1.00  0.00    -0.203 OA 
HETATM   33  C   UNL     1      -8.985   8.200  72.231  1.00  0.00    -0.252 A  
HETATM   34  O   UNL     1     -12.900  10.134  71.324  1.00  0.00    -0.347 OA 
HETATM   35  O   UNL     1     -12.149  12.442  67.066  1.00  0.00    -0.549 OA 
ENDBRANCH  21  22
ENDBRANCH  20  21
ENDBRANCH   2  20
TORSDOF 6
ENDMDL
MODEL       71
REMARK 921   NORMALIZED FREE ENERGY PREDICTED BY IDOCK:   -7.17 KCAL/MOL
REMARK 922        TOTAL FREE ENERGY PREDICTED BY IDOCK:  -10.98 KCAL/MOL
REMARK 923 INTER-LIGAND FREE ENERGY PREDICTED BY IDOCK:   -9.87 KCAL/MOL
REMARK 924 INTRA-LIGAND FREE ENERGY PREDICTED BY IDOCK:   -1.10 KCAL/MOL
REMARK 927      BINDING AFFINITY PREDICTED BY RF-SCORE:    0.00 PKD
ROOT
HETATM    1  O   UNL     1     -11.784  13.474  70.681  1.00  0.00    -0.517 OA 
HETATM    2  C   UNL     1     -11.551  12.252  69.953  1.00  0.00    -0.203 C  
HETATM    3  H   UNL     1     -11.307  14.168  70.243  1.00  0.00     0.000 HD 
ENDROOT
BRANCH   2   4
HETATM    4  C   UNL     1     -12.011  12.449  68.508  1.00  0.00    -0.223 C  
BRANCH   4   5
HETATM    5  O   UNL     1     -12.234  13.844  68.268  1.00  0.00    -0.332 OA 
BRANCH   5   6
HETATM    6  C   UNL     1     -11.863  14.358  67.056  1.00  0.00    -0.412 A  
HETATM    7  O   UNL     1      -6.806  18.416  67.508  1.00  0.00    -0.199 OA 
HETATM    8  O   UNL     1      -7.487  18.538  65.355  1.00  0.00    -0.484 OA 
HETATM    9  C   UNL     1     -12.477  13.991  65.849  1.00  0.00    -0.513 A  
HETATM   10  C   UNL     1     -12.102  14.578  64.641  1.00  0.00    -0.486 A  
HETATM   11  C   UNL     1      -7.583  18.091  66.628  1.00  0.00    -0.233 C  
HETATM   12  C   UNL     1     -11.106  15.544  64.620  1.00  0.00    -0.373 A  
HETATM   13  O   UNL     1      -9.475  16.848  65.683  1.00  0.00    -0.524 OA 
HETATM   14  C   UNL     1      -8.729  17.158  66.800  1.00  0.00    -0.244 C  
HETATM   15  C   UNL     1     -10.470  15.908  65.807  1.00  0.00    -0.370 A  
HETATM   16  C   UNL     1      -8.961  16.673  68.026  1.00  0.00    -0.211 C  
HETATM   17  C   UNL     1     -10.839  15.326  67.028  1.00  0.00    -0.321 A  
HETATM   18  O   UNL     1     -10.304  15.345  69.372  1.00  0.00    -0.227 OA 
HETATM   19  C   UNL     1     -10.081  15.741  68.238  1.00  0.00    -0.222 C  
ENDBRANCH   5   6
ENDBRANCH   4   5
ENDBRANCH   2   4
BRANCH   2  20
HETATM   20  C   UNL     1     -12.321  11.132  70.660  1.00  0.00    -0.388 C  
BRANCH  20  21
HETATM   21  O   UNL     1     -11.506  10.215  71.362  1.00  0.00    -0.327 OA 
BRANCH  21  22
HETATM   22  C   UNL     1     -11.274   8.969  70.825  1.00  0.00    -0.275 A  
HETATM   23  C   UNL     1      -8.991   8.777  67.695  1.00  0.00    -0.141 C  
HETATM   24  C   UNL     1      -9.483   9.326  68.961  1.00  0.00    -0.155 C  
HETATM   25  C   UNL     1     -10.491   8.535  69.728  1.00  0.00    -0.220 A  
HETATM   26  C   UNL     1     -10.610   7.188  69.310  1.00  0.00    -0.221 A  
HETATM   27  C   UNL     1      -9.234   7.500  67.407  1.00  0.00    -0.132 C  
HETATM   28  C   UNL     1     -11.401   6.270  70.011  1.00  0.00    -0.486 A  
HETATM   29  O   UNL     1      -9.978   6.656  68.203  1.00  0.00    -0.139 OA 
HETATM   30  C   UNL     1     -12.104   6.680  71.133  1.00  0.00    -0.391 A  
HETATM   31  C   UNL     1      -8.595   6.958  66.179  1.00  0.00    -0.143 C  
HETATM   32  O   UNL     1      -8.891   5.655  65.983  1.00  0.00    -0.138 OA 
HETATM   33  C   UNL     1     -12.057   8.018  71.515  1.00  0.00    -0.330 A  
HETATM   34  O   UNL     1      -8.949  10.359  69.336  1.00  0.00    -0.194 OA 
HETATM   35  O   UNL     1      -7.877   7.599  65.430  1.00  0.00    -0.100 OA 
ENDBRANCH  21  22
ENDBRANCH  20  21
ENDBRANCH   2  20
TORSDOF 6
ENDMDL
MODEL       72
REMARK 921   NORMALIZED FREE ENERGY PREDICTED BY IDOCK:   -7.16 KCAL/MOL
REMARK 922        TOTAL FREE ENERGY PREDICTED BY IDOCK:  -10.96 KCAL/MOL
REMARK 923 INTER-LIGAND FREE ENERGY PREDICTED BY IDOCK:   -9.65 KCAL/MOL
REMARK 924 INTRA-LIGAND FREE ENERGY PREDICTED BY IDOCK:   -1.31 KCAL/MOL
REMARK 927      BINDING AFFINITY PREDICTED BY RF-SCORE:    0.00 PKD
ROOT
HETATM    1  O   UNL     1     -11.460   9.525  69.018  1.00  0.00    -0.452 OA 
HETATM    2  C   UNL     1     -10.738   9.665  70.257  1.00  0.00    -0.281 C  
HETATM    3  H   UNL     1     -10.862   9.167  68.372  1.00  0.00     0.000 HD 
ENDROOT
BRANCH   2   4
HETATM    4  C   UNL     1     -10.199   8.294  70.666  1.00  0.00    -0.193 C  
BRANCH   4   5
HETATM    5  O   UNL     1     -10.956   7.271  70.005  1.00  0.00    -0.253 OA 
BRANCH   5   6
HETATM    6  C   UNL     1     -10.429   6.010  69.952  1.00  0.00    -0.249 A  
HETATM    7  O   UNL     1      -9.548   3.930  63.858  1.00  0.00    -0.146 OA 
HETATM    8  O   UNL     1      -9.063   2.158  65.176  1.00  0.00    -0.128 OA 
HETATM    9  C   UNL     1     -10.066   5.283  71.096  1.00  0.00    -0.284 A  
HETATM   10  C   UNL     1      -9.579   3.980  70.999  1.00  0.00    -0.249 A  
HETATM   11  C   UNL     1      -9.471   3.430  64.966  1.00  0.00    -0.154 C  
HETATM   12  C   UNL     1      -9.449   3.381  69.754  1.00  0.00    -0.229 A  
HETATM   13  O   UNL     1      -9.593   3.430  67.416  1.00  0.00    -0.208 OA 
HETATM   14  C   UNL     1      -9.793   4.125  66.241  1.00  0.00    -0.192 C  
HETATM   15  C   UNL     1      -9.787   4.094  68.604  1.00  0.00    -0.012 A  
HETATM   16  C   UNL     1     -10.249   5.381  66.171  1.00  0.00    -0.181 C  
HETATM   17  C   UNL     1     -10.277   5.405  68.688  1.00  0.00    -0.246 A  
HETATM   18  O   UNL     1     -11.030   7.236  67.325  1.00  0.00    -0.293 OA 
HETATM   19  C   UNL     1     -10.572   6.107  67.411  1.00  0.00    -0.281 C  
ENDBRANCH   5   6
ENDBRANCH   4   5
ENDBRANCH   2   4
BRANCH   2  20
HETATM   20  C   UNL     1     -11.703  10.243  71.298  1.00  0.00    -0.291 C  
BRANCH  20  21
HETATM   21  O   UNL     1     -12.801  10.943  70.750  1.00  0.00    -0.331 OA 
BRANCH  21  22
HETATM   22  C   UNL     1     -12.830  12.318  70.823  1.00  0.00    -0.017 A  
HETATM   23  C   UNL     1     -11.213  14.287  67.898  1.00  0.00    -0.305 C  
HETATM   24  C   UNL     1     -11.907  13.164  68.533  1.00  0.00    -0.342 C  
HETATM   25  C   UNL     1     -12.369  13.328  69.944  1.00  0.00    -0.228 A  
HETATM   26  C   UNL     1     -12.378  14.668  70.398  1.00  0.00    -0.339 A  
HETATM   27  C   UNL     1     -11.258  15.485  68.477  1.00  0.00    -0.333 C  
HETATM   28  C   UNL     1     -12.917  15.017  71.642  1.00  0.00    -0.432 A  
HETATM   29  O   UNL     1     -11.874  15.737  69.684  1.00  0.00    -0.345 OA 
HETATM   30  C   UNL     1     -13.441  14.034  72.467  1.00  0.00    -0.661 A  
HETATM   31  C   UNL     1     -10.657  16.617  67.723  1.00  0.00    -0.342 C  
HETATM   32  O   UNL     1     -10.765  17.787  68.386  1.00  0.00    -0.316 OA 
HETATM   33  C   UNL     1     -13.372  12.701  72.069  1.00  0.00    -0.555 A  
HETATM   34  O   UNL     1     -12.136  12.205  67.812  1.00  0.00    -0.508 OA 
HETATM   35  O   UNL     1     -10.132  16.517  66.626  1.00  0.00    -0.272 OA 
ENDBRANCH  21  22
ENDBRANCH  20  21
ENDBRANCH   2  20
TORSDOF 6
ENDMDL
MODEL       73
REMARK 921   NORMALIZED FREE ENERGY PREDICTED BY IDOCK:   -7.13 KCAL/MOL
REMARK 922        TOTAL FREE ENERGY PREDICTED BY IDOCK:  -10.93 KCAL/MOL
REMARK 923 INTER-LIGAND FREE ENERGY PREDICTED BY IDOCK:   -9.44 KCAL/MOL
REMARK 924 INTRA-LIGAND FREE ENERGY PREDICTED BY IDOCK:   -1.50 KCAL/MOL
REMARK 927      BINDING AFFINITY PREDICTED BY RF-SCORE:    0.00 PKD
ROOT
HETATM    1  O   UNL     1      -6.178  12.818  70.935  1.00  0.00    -0.531 OA 
HETATM    2  C   UNL     1      -6.164  12.130  69.669  1.00  0.00    -0.131 C  
HETATM    3  H   UNL     1      -5.741  13.653  70.815  1.00  0.00     0.000 HD 
ENDROOT
BRANCH   2   4
HETATM    4  C   UNL     1      -6.863  13.005  68.629  1.00  0.00    -0.099 C  
BRANCH   4   5
HETATM    5  O   UNL     1      -7.263  14.239  69.239  1.00  0.00    -0.125 OA 
BRANCH   5   6
HETATM    6  C   UNL     1      -8.421  14.826  68.811  1.00  0.00    -0.170 A  
HETATM    7  O   UNL     1      -7.619  21.085  67.253  1.00  0.00    -0.340 OA 
HETATM    8  O   UNL     1      -9.842  20.705  67.098  1.00  0.00    -0.469 OA 
HETATM    9  C   UNL     1      -9.628  14.124  68.670  1.00  0.00    -0.179 A  
HETATM   10  C   UNL     1     -10.799  14.773  68.279  1.00  0.00    -0.251 A  
HETATM   11  C   UNL     1      -8.570  20.334  67.372  1.00  0.00    -0.343 C  
HETATM   12  C   UNL     1     -10.782  16.137  68.023  1.00  0.00    -0.321 A  
HETATM   13  O   UNL     1      -9.662  18.186  67.835  1.00  0.00    -0.280 OA 
HETATM   14  C   UNL     1      -8.491  18.916  67.813  1.00  0.00    -0.284 C  
HETATM   15  C   UNL     1      -9.587  16.848  68.139  1.00  0.00    -0.255 A  
HETATM   16  C   UNL     1      -7.291  18.434  68.155  1.00  0.00    -0.271 C  
HETATM   17  C   UNL     1      -8.404  16.207  68.532  1.00  0.00    -0.195 A  
HETATM   18  O   UNL     1      -6.072  16.624  68.941  1.00  0.00    -0.142 OA 
HETATM   19  C   UNL     1      -7.168  17.032  68.590  1.00  0.00    -0.221 C  
ENDBRANCH   5   6
ENDBRANCH   4   5
ENDBRANCH   2   4
BRANCH   2  20
HETATM   20  C   UNL     1      -6.870  10.783  69.861  1.00  0.00    -0.146 C  
BRANCH  20  21
HETATM   21  O   UNL     1      -7.440  10.248  68.684  1.00  0.00    -0.080 OA 
BRANCH  21  22
HETATM   22  C   UNL     1      -8.795  10.368  68.475  1.00  0.00    -0.142 A  
HETATM   23  C   UNL     1      -9.948  11.791  65.056  1.00  0.00    -0.287 C  
HETATM   24  C   UNL     1      -9.064  11.073  65.976  1.00  0.00    -0.195 C  
HETATM   25  C   UNL     1      -9.552  10.813  67.364  1.00  0.00    -0.179 A  
HETATM   26  C   UNL     1     -10.945  10.996  67.532  1.00  0.00    -0.281 A  
HETATM   27  C   UNL     1     -11.231  11.941  65.377  1.00  0.00    -0.295 C  
HETATM   28  C   UNL     1     -11.591  10.658  68.726  1.00  0.00    -0.309 A  
HETATM   29  O   UNL     1     -11.786  11.511  66.564  1.00  0.00    -0.455 OA 
HETATM   30  C   UNL     1     -10.858  10.147  69.785  1.00  0.00    -0.320 A  
HETATM   31  C   UNL     1     -12.113  12.552  64.348  1.00  0.00    -0.424 C  
HETATM   32  O   UNL     1     -13.394  12.647  64.764  1.00  0.00    -0.787 OA 
HETATM   33  C   UNL     1      -9.476  10.029  69.665  1.00  0.00    -0.247 A  
HETATM   34  O   UNL     1      -8.019  10.660  65.497  1.00  0.00    -0.160 OA 
HETATM   35  O   UNL     1     -11.740  12.921  63.246  1.00  0.00    -0.521 OA 
ENDBRANCH  21  22
ENDBRANCH  20  21
ENDBRANCH   2  20
TORSDOF 6
ENDMDL
MODEL       74
REMARK 921   NORMALIZED FREE ENERGY PREDICTED BY IDOCK:   -7.13 KCAL/MOL
REMARK 922        TOTAL FREE ENERGY PREDICTED BY IDOCK:  -10.92 KCAL/MOL
REMARK 923 INTER-LIGAND FREE ENERGY PREDICTED BY IDOCK:   -8.57 KCAL/MOL
REMARK 924 INTRA-LIGAND FREE ENERGY PREDICTED BY IDOCK:   -2.36 KCAL/MOL
REMARK 927      BINDING AFFINITY PREDICTED BY RF-SCORE:    0.00 PKD
ROOT
HETATM    1  O   UNL     1     -12.488  15.154  63.882  1.00  0.00    -0.991 OA 
HETATM    2  C   UNL     1     -11.934  14.224  64.833  1.00  0.00    -0.425 C  
HETATM    3  H   UNL     1     -12.485  16.015  64.284  1.00  0.00     0.000 HD 
ENDROOT
BRANCH   2   4
HETATM    4  C   UNL     1     -10.524  14.684  65.203  1.00  0.00    -0.416 C  
BRANCH   4   5
HETATM    5  O   UNL     1     -10.357  14.601  66.624  1.00  0.00    -0.266 OA 
BRANCH   5   6
HETATM    6  C   UNL     1      -9.615  13.569  67.129  1.00  0.00    -0.241 A  
HETATM    7  O   UNL     1     -13.022   9.785  71.167  1.00  0.00    -0.350 OA 
HETATM    8  O   UNL     1     -10.896   9.023  71.278  1.00  0.00    -0.261 OA 
HETATM    9  C   UNL     1      -8.283  13.330  66.756  1.00  0.00     0.146 A  
HETATM   10  C   UNL     1      -7.546  12.297  67.333  1.00  0.00    -0.159 A  
HETATM   11  C   UNL     1     -11.853   9.873  70.839  1.00  0.00    -0.356 C  
HETATM   12  C   UNL     1      -8.130  11.483  68.294  1.00  0.00    -0.148 A  
HETATM   13  O   UNL     1      -9.959  10.818  69.598  1.00  0.00    -0.130 OA 
HETATM   14  C   UNL     1     -11.300  10.897  69.913  1.00  0.00    -0.305 C  
HETATM   15  C   UNL     1      -9.459  11.693  68.664  1.00  0.00    -0.123 A  
HETATM   16  C   UNL     1     -12.136  11.827  69.437  1.00  0.00    -0.301 C  
HETATM   17  C   UNL     1     -10.209  12.729  68.091  1.00  0.00    -0.241 A  
HETATM   18  O   UNL     1     -12.399  13.721  68.124  1.00  0.00    -0.245 OA 
HETATM   19  C   UNL     1     -11.630  12.854  68.511  1.00  0.00    -0.323 C  
ENDBRANCH   5   6
ENDBRANCH   4   5
ENDBRANCH   2   4
BRANCH   2  20
HETATM   20  C   UNL     1     -11.939  12.835  64.185  1.00  0.00    -0.427 C  
BRANCH  20  21
HETATM   21  O   UNL     1     -11.384  11.813  64.988  1.00  0.00    -0.295 OA 
BRANCH  21  22
HETATM   22  C   UNL     1     -10.386  11.017  64.475  1.00  0.00    -0.354 A  
HETATM   23  C   UNL     1      -8.938   8.265  66.793  1.00  0.00    -0.174 C  
HETATM   24  C   UNL     1      -9.963   9.170  66.271  1.00  0.00    -0.282 C  
HETATM   25  C   UNL     1      -9.664   9.926  65.017  1.00  0.00    -0.359 A  
HETATM   26  C   UNL     1      -8.553   9.431  64.295  1.00  0.00    -0.196 A  
HETATM   27  C   UNL     1      -7.910   7.933  66.015  1.00  0.00    -0.095 C  
HETATM   28  C   UNL     1      -8.221   9.928  63.029  1.00  0.00    -0.152 A  
HETATM   29  O   UNL     1      -7.707   8.437  64.747  1.00  0.00    -0.096 OA 
HETATM   30  C   UNL     1      -8.979  10.942  62.466  1.00  0.00    -0.360 A  
HETATM   31  C   UNL     1      -6.974   6.905  66.541  1.00  0.00    -0.066 C  
HETATM   32  O   UNL     1      -5.977   6.630  65.674  1.00  0.00    -0.032 OA 
HETATM   33  C   UNL     1     -10.030  11.493  63.194  1.00  0.00    -0.404 A  
HETATM   34  O   UNL     1     -11.032   9.162  66.863  1.00  0.00    -0.063 OA 
HETATM   35  O   UNL     1      -7.086   6.356  67.626  1.00  0.00    -0.079 OA 
ENDBRANCH  21  22
ENDBRANCH  20  21
ENDBRANCH   2  20
TORSDOF 6
ENDMDL
MODEL       75
REMARK 921   NORMALIZED FREE ENERGY PREDICTED BY IDOCK:   -7.11 KCAL/MOL
REMARK 922        TOTAL FREE ENERGY PREDICTED BY IDOCK:  -10.90 KCAL/MOL
REMARK 923 INTER-LIGAND FREE ENERGY PREDICTED BY IDOCK:   -9.82 KCAL/MOL
REMARK 924 INTRA-LIGAND FREE ENERGY PREDICTED BY IDOCK:   -1.08 KCAL/MOL
REMARK 927      BINDING AFFINITY PREDICTED BY RF-SCORE:    0.00 PKD
ROOT
HETATM    1  O   UNL     1     -11.630  11.770  70.468  1.00  0.00    -0.493 OA 
HETATM    2  C   UNL     1     -10.758  11.039  69.584  1.00  0.00    -0.139 C  
HETATM    3  H   UNL     1     -11.889  12.569  70.024  1.00  0.00     0.000 HD 
ENDROOT
BRANCH   2   4
HETATM    4  C   UNL     1     -11.505  10.760  68.280  1.00  0.00    -0.280 C  
BRANCH   4   5
HETATM    5  O   UNL     1     -12.122  11.969  67.820  1.00  0.00    -0.537 OA 
BRANCH   5   6
HETATM    6  C   UNL     1     -11.552  12.624  66.762  1.00  0.00    -0.374 A  
HETATM    7  O   UNL     1     -10.056  18.793  68.155  1.00  0.00    -0.344 OA 
HETATM    8  O   UNL     1      -9.636  18.555  65.946  1.00  0.00    -0.494 OA 
HETATM    9  C   UNL     1     -11.272  11.998  65.537  1.00  0.00    -0.372 A  
HETATM   10  C   UNL     1     -10.737  12.715  64.467  1.00  0.00    -0.368 A  
HETATM   11  C   UNL     1     -10.064  18.107  67.149  1.00  0.00    -0.351 C  
HETATM   12  C   UNL     1     -10.475  14.071  64.605  1.00  0.00    -0.398 A  
HETATM   13  O   UNL     1     -10.408  16.041  65.871  1.00  0.00    -0.328 OA 
HETATM   14  C   UNL     1     -10.522  16.694  67.081  1.00  0.00    -0.300 C  
HETATM   15  C   UNL     1     -10.730  14.706  65.820  1.00  0.00    -0.315 A  
HETATM   16  C   UNL     1     -11.010  16.140  68.197  1.00  0.00    -0.341 C  
HETATM   17  C   UNL     1     -11.267  13.996  66.903  1.00  0.00    -0.323 A  
HETATM   18  O   UNL     1     -11.952  14.268  69.191  1.00  0.00    -0.319 OA 
HETATM   19  C   UNL     1     -11.468  14.740  68.175  1.00  0.00    -0.323 C  
ENDBRANCH   5   6
ENDBRANCH   4   5
ENDBRANCH   2   4
BRANCH   2  20
HETATM   20  C   UNL     1     -10.339   9.751  70.300  1.00  0.00    -0.291 C  
BRANCH  20  21
HETATM   21  O   UNL     1     -11.202   8.654  70.080  1.00  0.00    -0.237 OA 
BRANCH  21  22
HETATM   22  C   UNL     1     -10.678   7.382  70.027  1.00  0.00    -0.246 A  
HETATM   23  C   UNL     1     -10.047   5.865  66.513  1.00  0.00    -0.206 C  
HETATM   24  C   UNL     1     -10.169   6.934  67.507  1.00  0.00    -0.194 C  
HETATM   25  C   UNL     1     -10.306   6.549  68.943  1.00  0.00    -0.225 A  
HETATM   26  C   UNL     1      -9.970   5.203  69.217  1.00  0.00    -0.210 A  
HETATM   27  C   UNL     1      -9.786   4.626  66.926  1.00  0.00    -0.213 C  
HETATM   28  C   UNL     1      -9.904   4.715  70.527  1.00  0.00    -0.301 A  
HETATM   29  O   UNL     1      -9.679   4.260  68.250  1.00  0.00    -0.151 OA 
HETATM   30  C   UNL     1     -10.191   5.554  71.591  1.00  0.00    -0.265 A  
HETATM   31  C   UNL     1      -9.535   3.608  65.872  1.00  0.00    -0.160 C  
HETATM   32  O   UNL     1      -9.267   2.391  66.391  1.00  0.00    -0.108 OA 
HETATM   33  C   UNL     1     -10.597   6.862  71.337  1.00  0.00    -0.242 A  
HETATM   34  O   UNL     1     -10.053   8.073  67.079  1.00  0.00    -0.222 OA 
HETATM   35  O   UNL     1      -9.553   3.833  64.672  1.00  0.00    -0.151 OA 
ENDBRANCH  21  22
ENDBRANCH  20  21
ENDBRANCH   2  20
TORSDOF 6
ENDMDL
MODEL       76
REMARK 921   NORMALIZED FREE ENERGY PREDICTED BY IDOCK:   -7.10 KCAL/MOL
REMARK 922        TOTAL FREE ENERGY PREDICTED BY IDOCK:  -10.89 KCAL/MOL
REMARK 923 INTER-LIGAND FREE ENERGY PREDICTED BY IDOCK:   -9.63 KCAL/MOL
REMARK 924 INTRA-LIGAND FREE ENERGY PREDICTED BY IDOCK:   -1.26 KCAL/MOL
REMARK 927      BINDING AFFINITY PREDICTED BY RF-SCORE:    0.00 PKD
ROOT
HETATM    1  O   UNL     1     -12.566  14.201  70.077  1.00  0.00    -0.377 OA 
HETATM    2  C   UNL     1     -11.957  12.904  70.229  1.00  0.00    -0.283 C  
HETATM    3  H   UNL     1     -11.898  14.800  69.765  1.00  0.00     0.000 HD 
ENDROOT
BRANCH   2   4
HETATM    4  C   UNL     1     -11.378  12.474  68.881  1.00  0.00    -0.297 C  
BRANCH   4   5
HETATM    5  O   UNL     1     -10.341  13.387  68.499  1.00  0.00    -0.240 OA 
BRANCH   5   6
HETATM    6  C   UNL     1     -10.407  13.958  67.257  1.00  0.00    -0.257 A  
HETATM    7  O   UNL     1     -10.148  20.448  67.473  1.00  0.00    -0.411 OA 
HETATM    8  O   UNL     1     -10.554  19.932  65.309  1.00  0.00    -0.326 OA 
HETATM    9  C   UNL     1     -10.461  13.207  66.073  1.00  0.00    -0.291 A  
HETATM   10  C   UNL     1     -10.579  13.828  64.830  1.00  0.00    -0.444 A  
HETATM   11  C   UNL     1     -10.360  19.615  66.610  1.00  0.00    -0.486 C  
HETATM   12  C   UNL     1     -10.646  15.212  64.751  1.00  0.00    -0.305 A  
HETATM   13  O   UNL     1     -10.616  17.338  65.736  1.00  0.00    -0.438 OA 
HETATM   14  C   UNL     1     -10.426  18.147  66.836  1.00  0.00    -0.357 C  
HETATM   15  C   UNL     1     -10.574  15.976  65.916  1.00  0.00    -0.328 A  
HETATM   16  C   UNL     1     -10.292  17.701  68.091  1.00  0.00    -0.386 C  
HETATM   17  C   UNL     1     -10.456  15.363  67.171  1.00  0.00    -0.290 A  
HETATM   18  O   UNL     1     -10.264  15.869  69.514  1.00  0.00    -0.244 OA 
HETATM   19  C   UNL     1     -10.344  16.253  68.357  1.00  0.00    -0.271 C  
ENDBRANCH   5   6
ENDBRANCH   4   5
ENDBRANCH   2   4
BRANCH   2  20
HETATM   20  C   UNL     1     -13.036  11.937  70.731  1.00  0.00     0.074 C  
BRANCH  20  21
HETATM   21  O   UNL     1     -12.609  11.072  71.763  1.00  0.00    -0.330 OA 
BRANCH  21  22
HETATM   22  C   UNL     1     -12.705   9.710  71.585  1.00  0.00    -0.407 A  
HETATM   23  C   UNL     1      -9.986   8.005  69.407  1.00  0.00    -0.190 C  
HETATM   24  C   UNL     1     -10.530   9.008  70.324  1.00  0.00    -0.215 C  
HETATM   25  C   UNL     1     -11.893   8.780  70.891  1.00  0.00    -0.267 A  
HETATM   26  C   UNL     1     -12.371   7.458  70.736  1.00  0.00    -0.131 A  
HETATM   27  C   UNL     1     -10.581   6.817  69.321  1.00  0.00    -0.231 C  
HETATM   28  C   UNL     1     -13.564   7.034  71.333  1.00  0.00    -0.312 A  
HETATM   29  O   UNL     1     -11.728   6.477  70.005  1.00  0.00    -0.416 OA 
HETATM   30  C   UNL     1     -14.316   7.926  72.080  1.00  0.00    -0.490 A  
HETATM   31  C   UNL     1      -9.909   5.790  68.482  1.00  0.00    -0.141 C  
HETATM   32  O   UNL     1     -10.582   4.619  68.472  1.00  0.00     0.199 OA 
HETATM   33  C   UNL     1     -13.900   9.251  72.181  1.00  0.00    -0.478 A  
HETATM   34  O   UNL     1      -9.773   9.917  70.628  1.00  0.00    -0.158 OA 
HETATM   35  O   UNL     1      -8.865   5.966  67.875  1.00  0.00    -0.108 OA 
ENDBRANCH  21  22
ENDBRANCH  20  21
ENDBRANCH   2  20
TORSDOF 6
ENDMDL
MODEL       77
REMARK 921   NORMALIZED FREE ENERGY PREDICTED BY IDOCK:   -7.04 KCAL/MOL
REMARK 922        TOTAL FREE ENERGY PREDICTED BY IDOCK:  -10.81 KCAL/MOL
REMARK 923 INTER-LIGAND FREE ENERGY PREDICTED BY IDOCK:   -9.77 KCAL/MOL
REMARK 924 INTRA-LIGAND FREE ENERGY PREDICTED BY IDOCK:   -1.04 KCAL/MOL
REMARK 927      BINDING AFFINITY PREDICTED BY RF-SCORE:    0.00 PKD
ROOT
HETATM    1  O   UNL     1      -9.220   9.507  64.087  1.00  0.00    -0.395 OA 
HETATM    2  C   UNL     1     -10.048  10.205  65.038  1.00  0.00    -0.235 C  
HETATM    3  H   UNL     1      -9.695   9.468  63.264  1.00  0.00     0.000 HD 
ENDROOT
BRANCH   2   4
HETATM    4  C   UNL     1     -10.365  11.594  64.485  1.00  0.00    -0.300 C  
BRANCH   4   5
HETATM    5  O   UNL     1     -11.369  12.210  65.302  1.00  0.00    -0.324 OA 
BRANCH   5   6
HETATM    6  C   UNL     1     -11.148  13.485  65.745  1.00  0.00    -0.286 A  
HETATM    7  O   UNL     1     -12.162  14.119  72.133  1.00  0.00    -0.168 OA 
HETATM    8  O   UNL     1     -11.772  16.213  71.374  1.00  0.00    -0.443 OA 
HETATM    9  C   UNL     1     -10.693  14.517  64.909  1.00  0.00    -0.448 A  
HETATM   10  C   UNL     1     -10.530  15.816  65.391  1.00  0.00    -0.438 A  
HETATM   11  C   UNL     1     -11.939  14.881  71.209  1.00  0.00    -0.340 C  
HETATM   12  C   UNL     1     -10.821  16.105  66.717  1.00  0.00    -0.162 A  
HETATM   13  O   UNL     1     -11.488  15.462  68.869  1.00  0.00    -0.300 OA 
HETATM   14  C   UNL     1     -11.802  14.479  69.784  1.00  0.00    -0.315 C  
HETATM   15  C   UNL     1     -11.256  15.088  67.567  1.00  0.00    -0.330 A  
HETATM   16  C   UNL     1     -11.986  13.189  69.477  1.00  0.00    -0.354 C  
HETATM   17  C   UNL     1     -11.425  13.779  67.095  1.00  0.00    -0.365 A  
HETATM   18  O   UNL     1     -12.067  11.576  67.812  1.00  0.00    -0.626 OA 
HETATM   19  C   UNL     1     -11.852  12.749  68.078  1.00  0.00    -0.336 C  
ENDBRANCH   5   6
ENDBRANCH   4   5
ENDBRANCH   2   4
BRANCH   2  20
HETATM   20  C   UNL     1      -9.282  10.269  66.364  1.00  0.00    -0.158 C  
BRANCH  20  21
HETATM   21  O   UNL     1      -8.759   9.029  66.798  1.00  0.00    -0.120 OA 
BRANCH  21  22
HETATM   22  C   UNL     1      -9.543   8.196  67.564  1.00  0.00    -0.157 A  
HETATM   23  C   UNL     1      -9.224   8.503  71.417  1.00  0.00    -0.272 C  
HETATM   24  C   UNL     1      -9.196   8.974  70.031  1.00  0.00    -0.180 C  
HETATM   25  C   UNL     1      -9.699   8.057  68.964  1.00  0.00    -0.159 A  
HETATM   26  C   UNL     1     -10.454   6.964  69.450  1.00  0.00    -0.217 A  
HETATM   27  C   UNL     1      -9.933   7.417  71.717  1.00  0.00    -0.171 C  
HETATM   28  C   UNL     1     -11.119   6.090  68.583  1.00  0.00    -0.293 A  
HETATM   29  O   UNL     1     -10.610   6.656  70.788  1.00  0.00    -0.215 OA 
HETATM   30  C   UNL     1     -11.030   6.276  67.213  1.00  0.00    -0.455 A  
HETATM   31  C   UNL     1     -10.041   7.063  73.157  1.00  0.00    -0.227 C  
HETATM   32  O   UNL     1     -10.790   5.958  73.356  1.00  0.00    -0.259 OA 
HETATM   33  C   UNL     1     -10.231   7.302  66.715  1.00  0.00    -0.305 A  
HETATM   34  O   UNL     1      -8.843  10.133  69.870  1.00  0.00    -0.174 OA 
HETATM   35  O   UNL     1      -9.528   7.694  74.066  1.00  0.00    -0.249 OA 
ENDBRANCH  21  22
ENDBRANCH  20  21
ENDBRANCH   2  20
TORSDOF 6
ENDMDL
MODEL       78
REMARK 921   NORMALIZED FREE ENERGY PREDICTED BY IDOCK:   -7.02 KCAL/MOL
REMARK 922        TOTAL FREE ENERGY PREDICTED BY IDOCK:  -10.78 KCAL/MOL
REMARK 923 INTER-LIGAND FREE ENERGY PREDICTED BY IDOCK:  -10.04 KCAL/MOL
REMARK 924 INTRA-LIGAND FREE ENERGY PREDICTED BY IDOCK:   -0.74 KCAL/MOL
REMARK 927      BINDING AFFINITY PREDICTED BY RF-SCORE:    0.00 PKD
ROOT
HETATM    1  O   UNL     1     -11.973  11.474  63.062  1.00  0.00    -0.917 OA 
HETATM    2  C   UNL     1     -11.076  11.599  64.183  1.00  0.00    -0.364 C  
HETATM    3  H   UNL     1     -12.698  12.072  63.204  1.00  0.00     0.000 HD 
ENDROOT
BRANCH   2   4
HETATM    4  C   UNL     1     -10.617  13.054  64.283  1.00  0.00    -0.412 C  
BRANCH   4   5
HETATM    5  O   UNL     1     -11.675  13.848  64.834  1.00  0.00    -0.337 OA 
BRANCH   5   6
HETATM    6  C   UNL     1     -11.600  14.198  66.154  1.00  0.00    -0.370 A  
HETATM    7  O   UNL     1     -10.019  20.445  66.996  1.00  0.00    -0.450 OA 
HETATM    8  O   UNL     1     -10.031  19.541  69.069  1.00  0.00    -0.442 OA 
HETATM    9  C   UNL     1     -11.897  13.309  67.199  1.00  0.00    -0.424 A  
HETATM   10  C   UNL     1     -11.758  13.691  68.533  1.00  0.00    -0.392 A  
HETATM   11  C   UNL     1     -10.150  19.477  67.723  1.00  0.00    -0.415 C  
HETATM   12  C   UNL     1     -11.320  14.971  68.844  1.00  0.00    -0.312 A  
HETATM   13  O   UNL     1     -10.642  17.126  68.225  1.00  0.00    -0.348 OA 
HETATM   14  C   UNL     1     -10.468  18.099  67.263  1.00  0.00    -0.393 C  
HETATM   15  C   UNL     1     -11.038  15.874  67.820  1.00  0.00    -0.288 A  
HETATM   16  C   UNL     1     -10.572  17.888  65.945  1.00  0.00    -0.216 C  
HETATM   17  C   UNL     1     -11.173  15.501  66.475  1.00  0.00    -0.104 A  
HETATM   18  O   UNL     1     -10.939  16.358  64.241  1.00  0.00    -0.788 OA 
HETATM   19  C   UNL     1     -10.893  16.539  65.448  1.00  0.00    -0.206 C  
ENDBRANCH   5   6
ENDBRANCH   4   5
ENDBRANCH   2   4
BRANCH   2  20
HETATM   20  C   UNL     1      -9.906  10.636  63.955  1.00  0.00    -0.338 C  
BRANCH  20  21
HETATM   21  O   UNL     1      -9.012  10.534  65.044  1.00  0.00    -0.183 OA 
BRANCH  21  22
HETATM   22  C   UNL     1      -9.297   9.668  66.075  1.00  0.00    -0.207 A  
HETATM   23  C   UNL     1      -8.481   5.916  65.522  1.00  0.00    -0.154 C  
HETATM   24  C   UNL     1      -8.315   7.361  65.350  1.00  0.00    -0.117 C  
HETATM   25  C   UNL     1      -9.112   8.272  66.225  1.00  0.00    -0.235 A  
HETATM   26  C   UNL     1      -9.691   7.636  67.348  1.00  0.00    -0.161 A  
HETATM   27  C   UNL     1      -9.106   5.462  66.607  1.00  0.00    -0.124 C  
HETATM   28  C   UNL     1     -10.348   8.364  68.346  1.00  0.00    -0.239 A  
HETATM   29  O   UNL     1      -9.668   6.272  67.570  1.00  0.00    -0.114 OA 
HETATM   30  C   UNL     1     -10.458   9.741  68.236  1.00  0.00    -0.255 A  
HETATM   31  C   UNL     1      -9.125   3.988  66.801  1.00  0.00    -0.143 C  
HETATM   32  O   UNL     1      -9.767   3.631  67.934  1.00  0.00    -0.159 OA 
HETATM   33  C   UNL     1      -9.960  10.376  67.101  1.00  0.00    -0.239 A  
HETATM   34  O   UNL     1      -7.454   7.706  64.555  1.00  0.00    -0.080 OA 
HETATM   35  O   UNL     1      -8.615   3.182  66.041  1.00  0.00    -0.109 OA 
ENDBRANCH  21  22
ENDBRANCH  20  21
ENDBRANCH   2  20
TORSDOF 6
ENDMDL
MODEL       79
REMARK 921   NORMALIZED FREE ENERGY PREDICTED BY IDOCK:   -6.99 KCAL/MOL
REMARK 922        TOTAL FREE ENERGY PREDICTED BY IDOCK:  -10.74 KCAL/MOL
REMARK 923 INTER-LIGAND FREE ENERGY PREDICTED BY IDOCK:   -9.95 KCAL/MOL
REMARK 924 INTRA-LIGAND FREE ENERGY PREDICTED BY IDOCK:   -0.79 KCAL/MOL
REMARK 927      BINDING AFFINITY PREDICTED BY RF-SCORE:    0.00 PKD
ROOT
HETATM    1  O   UNL     1     -12.284  13.724  69.293  1.00  0.00    -0.337 OA 
HETATM    2  C   UNL     1     -11.719  12.398  69.305  1.00  0.00    -0.329 C  
HETATM    3  H   UNL     1     -11.812  14.234  68.645  1.00  0.00     0.000 HD 
ENDROOT
BRANCH   2   4
HETATM    4  C   UNL     1     -11.837  11.803  67.902  1.00  0.00    -0.219 C  
BRANCH   4   5
HETATM    5  O   UNL     1     -10.703  12.202  67.122  1.00  0.00    -0.221 OA 
BRANCH   5   6
HETATM    6  C   UNL     1     -10.848  13.256  66.262  1.00  0.00    -0.284 A  
HETATM    7  O   UNL     1      -6.146  17.692  66.932  1.00  0.00    -0.134 OA 
HETATM    8  O   UNL     1      -7.613  18.586  65.462  1.00  0.00    -0.499 OA 
HETATM    9  C   UNL     1     -11.872  13.326  65.304  1.00  0.00    -0.386 A  
HETATM   10  C   UNL     1     -12.014  14.443  64.481  1.00  0.00    -0.487 A  
HETATM   11  C   UNL     1      -7.193  17.623  66.313  1.00  0.00    -0.307 C  
HETATM   12  C   UNL     1     -11.136  15.510  64.604  1.00  0.00    -0.373 A  
HETATM   13  O   UNL     1      -9.263  16.540  65.564  1.00  0.00    -0.430 OA 
HETATM   14  C   UNL     1      -8.151  16.487  66.379  1.00  0.00    -0.327 C  
HETATM   15  C   UNL     1     -10.101  15.451  65.538  1.00  0.00    -0.373 A  
HETATM   16  C   UNL     1      -7.873  15.483  67.218  1.00  0.00    -0.236 C  
HETATM   17  C   UNL     1      -9.947  14.334  66.371  1.00  0.00    -0.302 A  
HETATM   18  O   UNL     1      -8.545  13.450  68.112  1.00  0.00    -0.162 OA 
HETATM   19  C   UNL     1      -8.793  14.335  67.307  1.00  0.00    -0.214 C  
ENDBRANCH   5   6
ENDBRANCH   4   5
ENDBRANCH   2   4
BRANCH   2  20
HETATM   20  C   UNL     1     -12.480  11.575  70.350  1.00  0.00    -0.240 C  
BRANCH  20  21
HETATM   21  O   UNL     1     -11.662  10.744  71.148  1.00  0.00    -0.268 OA 
BRANCH  21  22
HETATM   22  C   UNL     1     -12.088   9.471  71.456  1.00  0.00    -0.389 A  
HETATM   23  C   UNL     1      -9.364   6.754  71.947  1.00  0.00    -0.146 C  
HETATM   24  C   UNL     1      -9.923   8.108  71.969  1.00  0.00    -0.233 C  
HETATM   25  C   UNL     1     -11.387   8.270  71.722  1.00  0.00    -0.350 A  
HETATM   26  C   UNL     1     -12.128   7.069  71.821  1.00  0.00    -0.336 A  
HETATM   27  C   UNL     1     -10.191   5.712  71.984  1.00  0.00    -0.205 C  
HETATM   28  C   UNL     1     -13.526   7.062  71.761  1.00  0.00    -0.307 A  
HETATM   29  O   UNL     1     -11.566   5.817  71.985  1.00  0.00    -0.255 OA 
HETATM   30  C   UNL     1     -14.214   8.252  71.581  1.00  0.00    -0.530 A  
HETATM   31  C   UNL     1      -9.570   4.367  72.099  1.00  0.00    -0.151 C  
HETATM   32  O   UNL     1     -10.491   3.381  72.144  1.00  0.00    -0.072 OA 
HETATM   33  C   UNL     1     -13.499   9.434  71.406  1.00  0.00    -0.403 A  
HETATM   34  O   UNL     1      -9.148   8.998  72.286  1.00  0.00    -0.351 OA 
HETATM   35  O   UNL     1      -8.369   4.161  72.159  1.00  0.00    -0.098 OA 
ENDBRANCH  21  22
ENDBRANCH  20  21
ENDBRANCH   2  20
TORSDOF 6
ENDMDL
MODEL       80
REMARK 921   NORMALIZED FREE ENERGY PREDICTED BY IDOCK:   -6.98 KCAL/MOL
REMARK 922        TOTAL FREE ENERGY PREDICTED BY IDOCK:  -10.72 KCAL/MOL
REMARK 923 INTER-LIGAND FREE ENERGY PREDICTED BY IDOCK:   -9.38 KCAL/MOL
REMARK 924 INTRA-LIGAND FREE ENERGY PREDICTED BY IDOCK:   -1.34 KCAL/MOL
REMARK 927      BINDING AFFINITY PREDICTED BY RF-SCORE:    0.00 PKD
ROOT
HETATM    1  O   UNL     1     -11.819  11.870  66.173  1.00  0.00    -0.528 OA 
HETATM    2  C   UNL     1     -11.173  11.128  67.226  1.00  0.00    -0.277 C  
HETATM    3  H   UNL     1     -12.755  11.850  66.338  1.00  0.00     0.000 HD 
ENDROOT
BRANCH   2   4
HETATM    4  C   UNL     1     -11.538  11.763  68.568  1.00  0.00    -0.321 C  
BRANCH   4   5
HETATM    5  O   UNL     1     -10.866  11.062  69.622  1.00  0.00    -0.240 OA 
BRANCH   5   6
HETATM    6  C   UNL     1     -11.627  10.434  70.569  1.00  0.00    -0.344 A  
HETATM    7  O   UNL     1      -9.297   4.583  72.171  1.00  0.00    -0.127 OA 
HETATM    8  O   UNL     1     -11.272   4.763  73.257  1.00  0.00    -0.302 OA 
HETATM    9  C   UNL     1     -12.750  11.030  71.166  1.00  0.00    -0.521 A  
HETATM   10  C   UNL     1     -13.529  10.335  72.091  1.00  0.00    -0.332 A  
HETATM   11  C   UNL     1     -10.311   5.211  72.418  1.00  0.00    -0.204 C  
HETATM   12  C   UNL     1     -13.197   9.032  72.434  1.00  0.00    -0.507 A  
HETATM   13  O   UNL     1     -11.807   7.151  72.293  1.00  0.00    -0.280 OA 
HETATM   14  C   UNL     1     -10.643   6.550  71.861  1.00  0.00    -0.210 C  
HETATM   15  C   UNL     1     -12.074   8.430  71.867  1.00  0.00    -0.342 A  
HETATM   16  C   UNL     1      -9.792   7.090  70.981  1.00  0.00    -0.185 C  
HETATM   17  C   UNL     1     -11.284   9.118  70.935  1.00  0.00    -0.359 A  
HETATM   18  O   UNL     1      -9.315   8.874  69.577  1.00  0.00    -0.151 OA 
HETATM   19  C   UNL     1     -10.081   8.418  70.412  1.00  0.00    -0.187 C  
ENDBRANCH   5   6
ENDBRANCH   4   5
ENDBRANCH   2   4
BRANCH   2  20
HETATM   20  C   UNL     1      -9.663  11.160  66.961  1.00  0.00    -0.186 C  
BRANCH  20  21
HETATM   21  O   UNL     1      -9.194  12.371  66.404  1.00  0.00    -0.231 OA 
BRANCH  21  22
HETATM   22  C   UNL     1      -8.776  13.382  67.239  1.00  0.00    -0.218 A  
HETATM   23  C   UNL     1     -10.553  16.814  66.902  1.00  0.00    -0.219 C  
HETATM   24  C   UNL     1     -10.439  15.355  66.843  1.00  0.00    -0.295 C  
HETATM   25  C   UNL     1      -9.208  14.721  67.404  1.00  0.00    -0.200 A  
HETATM   26  C   UNL     1      -8.440  15.577  68.227  1.00  0.00    -0.156 A  
HETATM   27  C   UNL     1      -9.716  17.497  67.679  1.00  0.00    -0.275 C  
HETATM   28  C   UNL     1      -7.336  15.106  68.947  1.00  0.00    -0.142 A  
HETATM   29  O   UNL     1      -8.692  16.924  68.402  1.00  0.00    -0.226 OA 
HETATM   30  C   UNL     1      -6.964  13.775  68.846  1.00  0.00    -0.111 A  
HETATM   31  C   UNL     1      -9.963  18.957  67.810  1.00  0.00    -0.355 C  
HETATM   32  O   UNL     1      -9.071  19.555  68.628  1.00  0.00    -0.360 OA 
HETATM   33  C   UNL     1      -7.663  12.935  67.983  1.00  0.00    -0.143 A  
HETATM   34  O   UNL     1     -11.418  14.761  66.417  1.00  0.00    -0.350 OA 
HETATM   35  O   UNL     1     -10.869  19.559  67.257  1.00  0.00    -0.493 OA 
ENDBRANCH  21  22
ENDBRANCH  20  21
ENDBRANCH   2  20
TORSDOF 6
ENDMDL
MODEL       81
REMARK 921   NORMALIZED FREE ENERGY PREDICTED BY IDOCK:   -6.96 KCAL/MOL
REMARK 922        TOTAL FREE ENERGY PREDICTED BY IDOCK:  -10.69 KCAL/MOL
REMARK 923 INTER-LIGAND FREE ENERGY PREDICTED BY IDOCK:   -9.83 KCAL/MOL
REMARK 924 INTRA-LIGAND FREE ENERGY PREDICTED BY IDOCK:   -0.86 KCAL/MOL
REMARK 927      BINDING AFFINITY PREDICTED BY RF-SCORE:    0.00 PKD
ROOT
HETATM    1  O   UNL     1      -9.982  11.692  69.372  1.00  0.00    -0.404 OA 
HETATM    2  C   UNL     1     -11.411  11.868  69.302  1.00  0.00    -0.277 C  
HETATM    3  H   UNL     1      -9.754  11.528  70.279  1.00  0.00     0.000 HD 
ENDROOT
BRANCH   2   4
HETATM    4  C   UNL     1     -12.086  10.611  69.850  1.00  0.00    -0.299 C  
BRANCH   4   5
HETATM    5  O   UNL     1     -11.229   9.482  69.636  1.00  0.00    -0.206 OA 
BRANCH   5   6
HETATM    6  C   UNL     1     -11.134   8.545  70.628  1.00  0.00    -0.252 A  
HETATM    7  O   UNL     1      -9.089   2.780  68.432  1.00  0.00    -0.129 OA 
HETATM    8  O   UNL     1      -9.620   2.444  70.604  1.00  0.00    -0.138 OA 
HETATM    9  C   UNL     1     -11.393   8.832  71.977  1.00  0.00    -0.441 A  
HETATM   10  C   UNL     1     -11.333   7.835  72.950  1.00  0.00    -0.406 A  
HETATM   11  C   UNL     1      -9.523   3.203  69.488  1.00  0.00    -0.120 C  
HETATM   12  C   UNL     1     -11.015   6.533  72.589  1.00  0.00    -0.287 A  
HETATM   13  O   UNL     1     -10.398   4.926  71.000  1.00  0.00    -0.208 OA 
HETATM   14  C   UNL     1      -9.993   4.595  69.724  1.00  0.00    -0.225 C  
HETATM   15  C   UNL     1     -10.735   6.233  71.256  1.00  0.00    -0.248 A  
HETATM   16  C   UNL     1      -9.988   5.440  68.687  1.00  0.00    -0.232 C  
HETATM   17  C   UNL     1     -10.792   7.227  70.268  1.00  0.00    -0.264 A  
HETATM   18  O   UNL     1     -10.470   7.573  67.912  1.00  0.00    -0.203 OA 
HETATM   19  C   UNL     1     -10.439   6.829  68.880  1.00  0.00    -0.207 C  
ENDBRANCH   5   6
ENDBRANCH   4   5
ENDBRANCH   2   4
BRANCH   2  20
HETATM   20  C   UNL     1     -11.778  12.133  67.838  1.00  0.00    -0.336 C  
BRANCH  20  21
HETATM   21  O   UNL     1     -12.367  13.396  67.602  1.00  0.00    -0.228 OA 
BRANCH  21  22
HETATM   22  C   UNL     1     -11.794  14.248  66.686  1.00  0.00    -0.421 A  
HETATM   23  C   UNL     1      -9.047  16.663  67.977  1.00  0.00    -0.218 C  
HETATM   24  C   UNL     1      -9.841  15.433  67.948  1.00  0.00    -0.219 C  
HETATM   25  C   UNL     1     -10.770  15.220  66.798  1.00  0.00    -0.313 A  
HETATM   26  C   UNL     1     -10.534  16.076  65.697  1.00  0.00    -0.397 A  
HETATM   27  C   UNL     1      -8.965  17.406  66.875  1.00  0.00    -0.245 C  
HETATM   28  C   UNL     1     -11.216  15.918  64.485  1.00  0.00    -0.324 A  
HETATM   29  O   UNL     1      -9.634  17.124  65.703  1.00  0.00    -0.535 OA 
HETATM   30  C   UNL     1     -12.161  14.913  64.352  1.00  0.00    -0.417 A  
HETATM   31  C   UNL     1      -8.037  18.566  66.916  1.00  0.00    -0.245 C  
HETATM   32  O   UNL     1      -8.016  19.245  65.749  1.00  0.00    -0.446 OA 
HETATM   33  C   UNL     1     -12.460  14.108  65.448  1.00  0.00    -0.488 A  
HETATM   34  O   UNL     1      -9.604  14.626  68.835  1.00  0.00    -0.212 OA 
HETATM   35  O   UNL     1      -7.359  18.877  67.882  1.00  0.00    -0.235 OA 
ENDBRANCH  21  22
ENDBRANCH  20  21
ENDBRANCH   2  20
TORSDOF 6
ENDMDL
MODEL       82
REMARK 921   NORMALIZED FREE ENERGY PREDICTED BY IDOCK:   -6.95 KCAL/MOL
REMARK 922        TOTAL FREE ENERGY PREDICTED BY IDOCK:  -10.68 KCAL/MOL
REMARK 923 INTER-LIGAND FREE ENERGY PREDICTED BY IDOCK:   -9.68 KCAL/MOL
REMARK 924 INTRA-LIGAND FREE ENERGY PREDICTED BY IDOCK:   -1.00 KCAL/MOL
REMARK 927      BINDING AFFINITY PREDICTED BY RF-SCORE:    0.00 PKD
ROOT
HETATM    1  O   UNL     1     -10.849  11.379  64.229  1.00  0.00    -0.342 OA 
HETATM    2  C   UNL     1     -10.177  11.088  65.470  1.00  0.00    -0.268 C  
HETATM    3  H   UNL     1     -10.274  11.116  63.520  1.00  0.00     0.000 HD 
ENDROOT
BRANCH   2   4
HETATM    4  C   UNL     1      -9.851   9.596  65.512  1.00  0.00    -0.281 C  
BRANCH   4   5
HETATM    5  O   UNL     1      -9.273   9.273  66.784  1.00  0.00    -0.138 OA 
BRANCH   5   6
HETATM    6  C   UNL     1      -9.831   8.257  67.509  1.00  0.00    -0.177 A  
HETATM    7  O   UNL     1      -8.521   8.707  73.858  1.00  0.00    -0.310 OA 
HETATM    8  O   UNL     1      -9.590   6.731  73.602  1.00  0.00    -0.163 OA 
HETATM    9  C   UNL     1     -10.648   7.268  66.937  1.00  0.00    -0.375 A  
HETATM   10  C   UNL     1     -11.156   6.220  67.704  1.00  0.00    -0.368 A  
HETATM   11  C   UNL     1      -9.042   7.876  73.136  1.00  0.00    -0.260 C  
HETATM   12  C   UNL     1     -10.855   6.143  69.057  1.00  0.00    -0.416 A  
HETATM   13  O   UNL     1      -9.844   6.984  70.996  1.00  0.00    -0.181 OA 
HETATM   14  C   UNL     1      -9.171   7.989  71.658  1.00  0.00    -0.150 C  
HETATM   15  C   UNL     1     -10.061   7.127  69.646  1.00  0.00    -0.192 A  
HETATM   16  C   UNL     1      -8.631   9.059  71.064  1.00  0.00    -0.264 C  
HETATM   17  C   UNL     1      -9.544   8.185  68.886  1.00  0.00    -0.153 A  
HETATM   18  O   UNL     1      -8.205  10.172  69.074  1.00  0.00    -0.112 OA 
HETATM   19  C   UNL     1      -8.743   9.212  69.603  1.00  0.00    -0.145 C  
ENDBRANCH   5   6
ENDBRANCH   4   5
ENDBRANCH   2   4
BRANCH   2  20
HETATM   20  C   UNL     1     -11.105  11.512  66.614  1.00  0.00    -0.295 C  
BRANCH  20  21
HETATM   21  O   UNL     1     -10.457  12.186  67.673  1.00  0.00    -0.201 OA 
BRANCH  21  22
HETATM   22  C   UNL     1     -10.960  13.387  68.119  1.00  0.00    -0.255 A  
HETATM   23  C   UNL     1      -9.838  16.591  66.244  1.00  0.00    -0.336 C  
HETATM   24  C   UNL     1     -10.165  15.171  66.388  1.00  0.00    -0.281 C  
HETATM   25  C   UNL     1     -10.790  14.718  67.667  1.00  0.00    -0.285 A  
HETATM   26  C   UNL     1     -11.300  15.768  68.466  1.00  0.00    -0.374 A  
HETATM   27  C   UNL     1     -10.346  17.463  67.112  1.00  0.00    -0.325 C  
HETATM   28  C   UNL     1     -12.043  15.514  69.624  1.00  0.00    -0.352 A  
HETATM   29  O   UNL     1     -11.125  17.111  68.194  1.00  0.00    -0.315 OA 
HETATM   30  C   UNL     1     -12.277  14.207  70.021  1.00  0.00    -0.418 A  
HETATM   31  C   UNL     1     -10.097  18.903  66.839  1.00  0.00    -0.364 C  
HETATM   32  O   UNL     1     -10.663  19.704  67.767  1.00  0.00    -0.430 OA 
HETATM   33  C   UNL     1     -11.719  13.162  69.288  1.00  0.00    -0.376 A  
HETATM   34  O   UNL     1      -9.981  14.480  65.398  1.00  0.00    -0.352 OA 
HETATM   35  O   UNL     1      -9.466  19.329  65.886  1.00  0.00    -0.429 OA 
ENDBRANCH  21  22
ENDBRANCH  20  21
ENDBRANCH   2  20
TORSDOF 6
ENDMDL
MODEL       83
REMARK 921   NORMALIZED FREE ENERGY PREDICTED BY IDOCK:   -6.92 KCAL/MOL
REMARK 922        TOTAL FREE ENERGY PREDICTED BY IDOCK:  -10.64 KCAL/MOL
REMARK 923 INTER-LIGAND FREE ENERGY PREDICTED BY IDOCK:   -8.98 KCAL/MOL
REMARK 924 INTRA-LIGAND FREE ENERGY PREDICTED BY IDOCK:   -1.66 KCAL/MOL
REMARK 927      BINDING AFFINITY PREDICTED BY RF-SCORE:    0.00 PKD
ROOT
HETATM    1  O   UNL     1     -11.194  13.383  66.787  1.00  0.00    -0.296 OA 
HETATM    2  C   UNL     1     -10.344  14.502  67.104  1.00  0.00    -0.265 C  
HETATM    3  H   UNL     1     -11.004  13.118  65.894  1.00  0.00     0.000 HD 
ENDROOT
BRANCH   2   4
HETATM    4  C   UNL     1      -8.887  14.076  66.925  1.00  0.00    -0.194 C  
BRANCH   4   5
HETATM    5  O   UNL     1      -8.844  12.753  66.375  1.00  0.00    -0.106 OA 
BRANCH   5   6
HETATM    6  C   UNL     1      -7.955  11.860  66.906  1.00  0.00    -0.132 A  
HETATM    7  O   UNL     1     -10.143   5.744  66.724  1.00  0.00    -0.161 OA 
HETATM    8  O   UNL     1      -8.206   5.656  67.887  1.00  0.00    -0.101 OA 
HETATM    9  C   UNL     1      -6.686  12.233  67.376  1.00  0.00    -0.150 A  
HETATM   10  C   UNL     1      -5.829  11.299  67.957  1.00  0.00    -0.042 A  
HETATM   11  C   UNL     1      -9.186   6.309  67.221  1.00  0.00    -0.118 C  
HETATM   12  C   UNL     1      -6.227   9.975  68.078  1.00  0.00    -0.053 A  
HETATM   13  O   UNL     1      -7.770   8.246  67.732  1.00  0.00    -0.100 OA 
HETATM   14  C   UNL     1      -8.937   7.774  67.168  1.00  0.00    -0.126 C  
HETATM   15  C   UNL     1      -7.477   9.582  67.599  1.00  0.00    -0.091 A  
HETATM   16  C   UNL     1      -9.855   8.544  66.572  1.00  0.00    -0.342 C  
HETATM   17  C   UNL     1      -8.347  10.511  67.013  1.00  0.00    -0.128 A  
HETATM   18  O   UNL     1     -10.512  10.689  65.983  1.00  0.00    -0.239 OA 
HETATM   19  C   UNL     1      -9.642   9.999  66.491  1.00  0.00    -0.187 C  
ENDBRANCH   5   6
ENDBRANCH   4   5
ENDBRANCH   2   4
BRANCH   2  20
HETATM   20  C   UNL     1     -10.650  14.928  68.545  1.00  0.00    -0.245 C  
BRANCH  20  21
HETATM   21  O   UNL     1     -12.025  14.927  68.874  1.00  0.00    -0.305 OA 
BRANCH  21  22
HETATM   22  C   UNL     1     -12.434  14.375  70.066  1.00  0.00    -0.301 A  
HETATM   23  C   UNL     1     -12.387  10.507  70.345  1.00  0.00    -0.409 C  
HETATM   24  C   UNL     1     -11.948  11.819  69.864  1.00  0.00    -0.332 C  
HETATM   25  C   UNL     1     -12.518  13.036  70.517  1.00  0.00    -0.306 A  
HETATM   26  C   UNL     1     -13.167  12.782  71.748  1.00  0.00    -0.374 A  
HETATM   27  C   UNL     1     -13.045  10.428  71.499  1.00  0.00    -0.431 C  
HETATM   28  C   UNL     1     -13.630  13.822  72.562  1.00  0.00    -0.680 A  
HETATM   29  O   UNL     1     -13.401  11.520  72.261  1.00  0.00    -0.422 OA 
HETATM   30  C   UNL     1     -13.473  15.137  72.155  1.00  0.00    -0.525 A  
HETATM   31  C   UNL     1     -13.344   9.064  72.009  1.00  0.00    -0.438 C  
HETATM   32  O   UNL     1     -13.999   9.092  73.188  1.00  0.00    -0.313 OA 
HETATM   33  C   UNL     1     -12.905  15.404  70.911  1.00  0.00    -0.536 A  
HETATM   34  O   UNL     1     -11.068  11.808  69.017  1.00  0.00    -0.223 OA 
HETATM   35  O   UNL     1     -13.030   8.029  71.443  1.00  0.00    -0.311 OA 
ENDBRANCH  21  22
ENDBRANCH  20  21
ENDBRANCH   2  20
TORSDOF 6
ENDMDL
MODEL       84
REMARK 921   NORMALIZED FREE ENERGY PREDICTED BY IDOCK:   -6.91 KCAL/MOL
REMARK 922        TOTAL FREE ENERGY PREDICTED BY IDOCK:  -10.64 KCAL/MOL
REMARK 923 INTER-LIGAND FREE ENERGY PREDICTED BY IDOCK:   -9.94 KCAL/MOL
REMARK 924 INTRA-LIGAND FREE ENERGY PREDICTED BY IDOCK:   -0.69 KCAL/MOL
REMARK 927      BINDING AFFINITY PREDICTED BY RF-SCORE:    0.00 PKD
ROOT
HETATM    1  O   UNL     1     -12.367  14.010  63.024  1.00  0.00    -1.101 OA 
HETATM    2  C   UNL     1     -12.100  12.932  63.943  1.00  0.00    -0.480 C  
HETATM    3  H   UNL     1     -13.291  14.220  63.085  1.00  0.00     0.000 HD 
ENDROOT
BRANCH   2   4
HETATM    4  C   UNL     1     -12.501  13.377  65.349  1.00  0.00    -0.494 C  
BRANCH   4   5
HETATM    5  O   UNL     1     -11.888  14.640  65.639  1.00  0.00    -0.341 OA 
BRANCH   5   6
HETATM    6  C   UNL     1     -11.360  14.832  66.886  1.00  0.00    -0.355 A  
HETATM    7  O   UNL     1      -8.033  20.395  67.362  1.00  0.00    -0.317 OA 
HETATM    8  O   UNL     1      -7.702  19.324  69.326  1.00  0.00    -0.285 OA 
HETATM    9  C   UNL     1     -11.575  13.944  67.952  1.00  0.00    -0.377 A  
HETATM   10  C   UNL     1     -10.975  14.151  69.194  1.00  0.00    -0.280 A  
HETATM   11  C   UNL     1      -8.204  19.421  68.074  1.00  0.00    -0.318 C  
HETATM   12  C   UNL     1     -10.149  15.248  69.390  1.00  0.00    -0.266 A  
HETATM   13  O   UNL     1      -9.133  17.224  68.647  1.00  0.00    -0.262 OA 
HETATM   14  C   UNL     1      -8.986  18.213  67.697  1.00  0.00    -0.259 C  
HETATM   15  C   UNL     1      -9.939  16.151  68.348  1.00  0.00    -0.230 A  
HETATM   16  C   UNL     1      -9.504  18.163  66.464  1.00  0.00    -0.307 C  
HETATM   17  C   UNL     1     -10.535  15.955  67.095  1.00  0.00    -0.313 A  
HETATM   18  O   UNL     1     -10.718  16.941  64.910  1.00  0.00    -0.725 OA 
HETATM   19  C   UNL     1     -10.292  16.988  66.054  1.00  0.00    -0.315 C  
ENDBRANCH   5   6
ENDBRANCH   4   5
ENDBRANCH   2   4
BRANCH   2  20
HETATM   20  C   UNL     1     -10.608  12.594  63.845  1.00  0.00    -0.428 C  
BRANCH  20  21
HETATM   21  O   UNL     1     -10.333  11.227  63.611  1.00  0.00    -0.341 OA 
BRANCH  21  22
HETATM   22  C   UNL     1      -9.780  10.468  64.617  1.00  0.00    -0.309 A  
HETATM   23  C   UNL     1      -7.643   7.407  63.563  1.00  0.00    -0.121 C  
HETATM   24  C   UNL     1      -8.225   8.744  63.424  1.00  0.00    -0.170 C  
HETATM   25  C   UNL     1      -8.944   9.325  64.597  1.00  0.00    -0.202 A  
HETATM   26  C   UNL     1      -8.696   8.654  65.818  1.00  0.00    -0.181 A  
HETATM   27  C   UNL     1      -7.528   6.875  64.777  1.00  0.00    -0.096 C  
HETATM   28  C   UNL     1      -9.173   9.150  67.037  1.00  0.00    -0.167 A  
HETATM   29  O   UNL     1      -7.979   7.479  65.932  1.00  0.00    -0.104 OA 
HETATM   30  C   UNL     1      -9.924  10.315  67.062  1.00  0.00    -0.249 A  
HETATM   31  C   UNL     1      -6.806   5.579  64.876  1.00  0.00    -0.048 C  
HETATM   32  O   UNL     1      -6.731   5.131  66.147  1.00  0.00    -0.051 OA 
HETATM   33  C   UNL     1     -10.241  10.947  65.862  1.00  0.00    -0.314 A  
HETATM   34  O   UNL     1      -7.989   9.320  62.373  1.00  0.00    -0.117 OA 
HETATM   35  O   UNL     1      -6.322   4.981  63.928  1.00  0.00    -0.022 OA 
ENDBRANCH  21  22
ENDBRANCH  20  21
ENDBRANCH   2  20
TORSDOF 6
ENDMDL
MODEL       85
REMARK 921   NORMALIZED FREE ENERGY PREDICTED BY IDOCK:   -6.88 KCAL/MOL
REMARK 922        TOTAL FREE ENERGY PREDICTED BY IDOCK:  -10.58 KCAL/MOL
REMARK 923 INTER-LIGAND FREE ENERGY PREDICTED BY IDOCK:   -9.89 KCAL/MOL
REMARK 924 INTRA-LIGAND FREE ENERGY PREDICTED BY IDOCK:   -0.70 KCAL/MOL
REMARK 927      BINDING AFFINITY PREDICTED BY RF-SCORE:    0.00 PKD
ROOT
HETATM    1  O   UNL     1      -9.310  11.957  63.516  1.00  0.00    -0.530 OA 
HETATM    2  C   UNL     1      -9.629  11.922  64.921  1.00  0.00    -0.066 C  
HETATM    3  H   UNL     1      -8.380  11.783  63.426  1.00  0.00     0.000 HD 
ENDROOT
BRANCH   2   4
HETATM    4  C   UNL     1      -9.241  10.552  65.476  1.00  0.00    -0.188 C  
BRANCH   4   5
HETATM    5  O   UNL     1     -10.256  10.104  66.384  1.00  0.00    -0.230 OA 
BRANCH   5   6
HETATM    6  C   UNL     1     -10.210   8.807  66.817  1.00  0.00    -0.284 A  
HETATM    7  O   UNL     1     -11.995   8.185  73.035  1.00  0.00    -0.269 OA 
HETATM    8  O   UNL     1     -11.281   6.134  72.404  1.00  0.00    -0.257 OA 
HETATM    9  C   UNL     1      -9.872   7.733  65.979  1.00  0.00     0.164 A  
HETATM   10  C   UNL     1      -9.788   6.432  66.473  1.00  0.00    -0.170 A  
HETATM   11  C   UNL     1     -11.515   7.449  72.191  1.00  0.00    -0.282 C  
HETATM   12  C   UNL     1     -10.039   6.183  67.815  1.00  0.00    -0.177 A  
HETATM   13  O   UNL     1     -10.655   6.888  69.963  1.00  0.00    -0.210 OA 
HETATM   14  C   UNL     1     -11.129   7.863  70.816  1.00  0.00    -0.256 C  
HETATM   15  C   UNL     1     -10.394   7.235  68.659  1.00  0.00    -0.193 A  
HETATM   16  C   UNL     1     -11.272   9.153  70.488  1.00  0.00    -0.309 C  
HETATM   17  C   UNL     1     -10.482   8.548  68.175  1.00  0.00    -0.236 A  
HETATM   18  O   UNL     1     -11.003  10.790  68.867  1.00  0.00    -0.206 OA 
HETATM   19  C   UNL     1     -10.908   9.602  69.133  1.00  0.00    -0.190 C  
ENDBRANCH   5   6
ENDBRANCH   4   5
ENDBRANCH   2   4
BRANCH   2  20
HETATM   20  C   UNL     1     -11.129  12.203  65.066  1.00  0.00    -0.320 C  
BRANCH  20  21
HETATM   21  O   UNL     1     -11.475  13.572  65.005  1.00  0.00    -0.306 OA 
BRANCH  21  22
HETATM   22  C   UNL     1     -11.507  14.313  66.164  1.00  0.00    -0.355 A  
HETATM   23  C   UNL     1     -10.293  17.991  65.957  1.00  0.00    -0.333 C  
HETATM   24  C   UNL     1     -10.890  16.749  65.461  1.00  0.00    -0.129 C  
HETATM   25  C   UNL     1     -11.171  15.660  66.443  1.00  0.00    -0.038 A  
HETATM   26  C   UNL     1     -11.135  16.076  67.795  1.00  0.00    -0.273 A  
HETATM   27  C   UNL     1     -10.275  18.220  67.268  1.00  0.00    -0.373 C  
HETATM   28  C   UNL     1     -11.514  15.221  68.836  1.00  0.00    -0.346 A  
HETATM   29  O   UNL     1     -10.735  17.330  68.215  1.00  0.00    -0.373 OA 
HETATM   30  C   UNL     1     -11.920  13.927  68.552  1.00  0.00    -0.394 A  
HETATM   31  C   UNL     1      -9.785  19.553  67.709  1.00  0.00    -0.354 C  
HETATM   32  O   UNL     1      -9.819  19.692  69.051  1.00  0.00    -0.431 OA 
HETATM   33  C   UNL     1     -11.890  13.476  67.235  1.00  0.00    -0.427 A  
HETATM   34  O   UNL     1     -11.200  16.744  64.279  1.00  0.00    -1.163 OA 
HETATM   35  O   UNL     1      -9.403  20.435  66.956  1.00  0.00    -0.381 OA 
ENDBRANCH  21  22
ENDBRANCH  20  21
ENDBRANCH   2  20
TORSDOF 6
ENDMDL
MODEL       86
REMARK 921   NORMALIZED FREE ENERGY PREDICTED BY IDOCK:   -6.87 KCAL/MOL
REMARK 922        TOTAL FREE ENERGY PREDICTED BY IDOCK:  -10.58 KCAL/MOL
REMARK 923 INTER-LIGAND FREE ENERGY PREDICTED BY IDOCK:   -9.50 KCAL/MOL
REMARK 924 INTRA-LIGAND FREE ENERGY PREDICTED BY IDOCK:   -1.08 KCAL/MOL
REMARK 927      BINDING AFFINITY PREDICTED BY RF-SCORE:    0.00 PKD
ROOT
HETATM    1  O   UNL     1     -10.171  10.217  66.199  1.00  0.00    -0.236 OA 
HETATM    2  C   UNL     1      -9.945   9.326  67.309  1.00  0.00    -0.207 C  
HETATM    3  H   UNL     1      -9.792   9.817  65.425  1.00  0.00     0.000 HD 
ENDROOT
BRANCH   2   4
HETATM    4  C   UNL     1     -10.580   7.974  66.987  1.00  0.00    -0.294 C  
BRANCH   4   5
HETATM    5  O   UNL     1     -10.885   7.291  68.210  1.00  0.00    -0.157 OA 
BRANCH   5   6
HETATM    6  C   UNL     1     -10.425   6.013  68.370  1.00  0.00    -0.238 A  
HETATM    7  O   UNL     1     -10.795   3.977  74.531  1.00  0.00    -0.173 OA 
HETATM    8  O   UNL     1      -9.705   2.338  73.418  1.00  0.00    -0.092 OA 
HETATM    9  C   UNL     1      -9.983   5.220  67.299  1.00  0.00    -0.207 A  
HETATM   10  C   UNL     1      -9.474   3.940  67.513  1.00  0.00    -0.236 A  
HETATM   11  C   UNL     1     -10.307   3.546  73.501  1.00  0.00    -0.157 C  
HETATM   12  C   UNL     1      -9.397   3.431  68.802  1.00  0.00    -0.234 A  
HETATM   13  O   UNL     1      -9.763   3.597  71.110  1.00  0.00    -0.175 OA 
HETATM   14  C   UNL     1     -10.306   4.255  72.194  1.00  0.00    -0.123 C  
HETATM   15  C   UNL     1      -9.849   4.197  69.876  1.00  0.00    -0.162 A  
HETATM   16  C   UNL     1     -10.836   5.483  72.148  1.00  0.00    -0.293 C  
HETATM   17  C   UNL     1     -10.363   5.486  69.675  1.00  0.00    -0.359 A  
HETATM   18  O   UNL     1     -11.308   7.352  70.858  1.00  0.00    -0.264 OA 
HETATM   19  C   UNL     1     -10.861   6.216  70.870  1.00  0.00    -0.281 C  
ENDBRANCH   5   6
ENDBRANCH   4   5
ENDBRANCH   2   4
BRANCH   2  20
HETATM   20  C   UNL     1     -10.556   9.972  68.557  1.00  0.00    -0.215 C  
BRANCH  20  21
HETATM   21  O   UNL     1     -11.769  10.660  68.325  1.00  0.00    -0.445 OA 
BRANCH  21  22
HETATM   22  C   UNL     1     -11.895  11.966  68.740  1.00  0.00    -0.313 A  
HETATM   23  C   UNL     1     -10.965  14.738  66.191  1.00  0.00    -0.332 C  
HETATM   24  C   UNL     1     -11.448  13.424  66.622  1.00  0.00    -0.344 C  
HETATM   25  C   UNL     1     -11.674  13.200  68.081  1.00  0.00    -0.391 A  
HETATM   26  C   UNL     1     -11.713  14.387  68.850  1.00  0.00    -0.322 A  
HETATM   27  C   UNL     1     -11.006  15.755  67.049  1.00  0.00    -0.221 C  
HETATM   28  C   UNL     1     -12.058  14.371  70.207  1.00  0.00    -0.396 A  
HETATM   29  O   UNL     1     -11.426  15.645  68.358  1.00  0.00    -0.351 OA 
HETATM   30  C   UNL     1     -12.353  13.169  70.829  1.00  0.00    -0.404 A  
HETATM   31  C   UNL     1     -10.636  17.094  66.520  1.00  0.00    -0.172 C  
HETATM   32  O   UNL     1     -10.724  18.058  67.462  1.00  0.00    -0.404 OA 
HETATM   33  C   UNL     1     -12.247  11.983  70.107  1.00  0.00    -0.309 A  
HETATM   34  O   UNL     1     -11.718  12.638  65.727  1.00  0.00    -0.373 OA 
HETATM   35  O   UNL     1     -10.300  17.315  65.368  1.00  0.00    -0.626 OA 
ENDBRANCH  21  22
ENDBRANCH  20  21
ENDBRANCH   2  20
TORSDOF 6
ENDMDL
MODEL       87
REMARK 921   NORMALIZED FREE ENERGY PREDICTED BY IDOCK:   -6.83 KCAL/MOL
REMARK 922        TOTAL FREE ENERGY PREDICTED BY IDOCK:  -10.52 KCAL/MOL
REMARK 923 INTER-LIGAND FREE ENERGY PREDICTED BY IDOCK:  -10.09 KCAL/MOL
REMARK 924 INTRA-LIGAND FREE ENERGY PREDICTED BY IDOCK:   -0.43 KCAL/MOL
REMARK 927      BINDING AFFINITY PREDICTED BY RF-SCORE:    0.00 PKD
ROOT
HETATM    1  O   UNL     1     -12.311  13.767  62.960  1.00  0.00    -1.089 OA 
HETATM    2  C   UNL     1     -12.364  13.863  64.397  1.00  0.00    -0.361 C  
HETATM    3  H   UNL     1     -12.538  14.618  62.604  1.00  0.00     0.000 HD 
ENDROOT
BRANCH   2   4
HETATM    4  C   UNL     1     -11.398  14.957  64.850  1.00  0.00    -0.413 C  
BRANCH   4   5
HETATM    5  O   UNL     1     -10.932  14.659  66.173  1.00  0.00    -0.317 OA 
BRANCH   5   6
HETATM    6  C   UNL     1     -10.650  15.704  67.009  1.00  0.00    -0.311 A  
HETATM    7  O   UNL     1     -12.515  14.574  73.132  1.00  0.00    -0.329 OA 
HETATM    8  O   UNL     1     -11.807  16.721  73.103  1.00  0.00    -0.434 OA 
HETATM    9  C   UNL     1      -9.974  16.860  66.588  1.00  0.00    -0.302 A  
HETATM   10  C   UNL     1      -9.751  17.924  67.462  1.00  0.00    -0.278 A  
HETATM   11  C   UNL     1     -12.083  15.533  72.518  1.00  0.00    -0.437 C  
HETATM   12  C   UNL     1     -10.202  17.849  68.773  1.00  0.00    -0.362 A  
HETATM   13  O   UNL     1     -11.238  16.705  70.535  1.00  0.00    -0.250 OA 
HETATM   14  C   UNL     1     -11.781  15.552  71.062  1.00  0.00    -0.381 C  
HETATM   15  C   UNL     1     -10.858  16.700  69.215  1.00  0.00    -0.310 A  
HETATM   16  C   UNL     1     -12.049  14.448  70.354  1.00  0.00    -0.399 C  
HETATM   17  C   UNL     1     -11.089  15.624  68.346  1.00  0.00    -0.326 A  
HETATM   18  O   UNL     1     -12.051  13.423  68.273  1.00  0.00    -0.343 OA 
HETATM   19  C   UNL     1     -11.758  14.423  68.910  1.00  0.00    -0.322 C  
ENDBRANCH   5   6
ENDBRANCH   4   5
ENDBRANCH   2   4
BRANCH   2  20
HETATM   20  C   UNL     1     -11.997  12.490  64.971  1.00  0.00    -0.427 C  
BRANCH  20  21
HETATM   21  O   UNL     1     -10.622  12.323  65.250  1.00  0.00    -0.270 OA 
BRANCH  21  22
HETATM   22  C   UNL     1      -9.917  11.331  64.607  1.00  0.00    -0.281 A  
HETATM   23  C   UNL     1      -9.424   7.984  66.505  1.00  0.00    -0.278 C  
HETATM   24  C   UNL     1     -10.110   9.225  66.136  1.00  0.00    -0.233 C  
HETATM   25  C   UNL     1      -9.578  10.008  64.981  1.00  0.00    -0.362 A  
HETATM   26  C   UNL     1      -8.670   9.292  64.165  1.00  0.00    -0.173 A  
HETATM   27  C   UNL     1      -8.544   7.456  65.658  1.00  0.00    -0.112 C  
HETATM   28  C   UNL     1      -8.188   9.824  62.964  1.00  0.00    -0.152 A  
HETATM   29  O   UNL     1      -8.182   8.034  64.459  1.00  0.00    -0.148 OA 
HETATM   30  C   UNL     1      -8.585  11.088  62.560  1.00  0.00    -0.305 A  
HETATM   31  C   UNL     1      -7.981   6.127  66.017  1.00  0.00    -0.110 C  
HETATM   32  O   UNL     1      -7.112   5.672  65.090  1.00  0.00    -0.061 OA 
HETATM   33  C   UNL     1      -9.419  11.837  63.387  1.00  0.00    -0.179 A  
HETATM   34  O   UNL     1     -11.133   9.471  66.757  1.00  0.00     0.066 OA 
HETATM   35  O   UNL     1      -8.270   5.502  67.025  1.00  0.00    -0.105 OA 
ENDBRANCH  21  22
ENDBRANCH  20  21
ENDBRANCH   2  20
TORSDOF 6
ENDMDL
MODEL       88
REMARK 921   NORMALIZED FREE ENERGY PREDICTED BY IDOCK:   -6.83 KCAL/MOL
REMARK 922        TOTAL FREE ENERGY PREDICTED BY IDOCK:  -10.52 KCAL/MOL
REMARK 923 INTER-LIGAND FREE ENERGY PREDICTED BY IDOCK:   -9.62 KCAL/MOL
REMARK 924 INTRA-LIGAND FREE ENERGY PREDICTED BY IDOCK:   -0.90 KCAL/MOL
REMARK 927      BINDING AFFINITY PREDICTED BY RF-SCORE:    0.00 PKD
ROOT
HETATM    1  O   UNL     1      -6.760   7.750  69.246  1.00  0.00    -0.042 OA 
HETATM    2  C   UNL     1      -8.027   8.174  68.707  1.00  0.00    -0.115 C  
HETATM    3  H   UNL     1      -6.833   7.747  70.193  1.00  0.00     0.000 HD 
ENDROOT
BRANCH   2   4
HETATM    4  C   UNL     1      -9.113   7.218  69.201  1.00  0.00    -0.137 C  
BRANCH   4   5
HETATM    5  O   UNL     1     -10.399   7.822  69.007  1.00  0.00    -0.205 OA 
BRANCH   5   6
HETATM    6  C   UNL     1     -11.196   8.012  70.102  1.00  0.00    -0.144 A  
HETATM    7  O   UNL     1     -13.036  14.206  70.802  1.00  0.00    -0.329 OA 
HETATM    8  O   UNL     1     -13.789  13.141  72.649  1.00  0.00    -0.691 OA 
HETATM    9  C   UNL     1     -11.613   6.964  70.936  1.00  0.00    -0.384 A  
HETATM   10  C   UNL     1     -12.384   7.209  72.072  1.00  0.00    -0.298 A  
HETATM   11  C   UNL     1     -13.127  13.192  71.471  1.00  0.00    -0.315 C  
HETATM   12  C   UNL     1     -12.750   8.508  72.393  1.00  0.00    -0.394 A  
HETATM   13  O   UNL     1     -12.799  10.808  71.946  1.00  0.00    -0.436 OA 
HETATM   14  C   UNL     1     -12.551  11.871  71.103  1.00  0.00    -0.288 C  
HETATM   15  C   UNL     1     -12.362   9.562  71.565  1.00  0.00    -0.380 A  
HETATM   16  C   UNL     1     -11.834  11.794  69.976  1.00  0.00    -0.422 C  
HETATM   17  C   UNL     1     -11.586   9.328  70.421  1.00  0.00    -0.215 A  
HETATM   18  O   UNL     1     -10.563  10.462  68.564  1.00  0.00    -0.185 OA 
HETATM   19  C   UNL     1     -11.252  10.502  69.571  1.00  0.00    -0.271 C  
ENDBRANCH   5   6
ENDBRANCH   4   5
ENDBRANCH   2   4
BRANCH   2  20
HETATM   20  C   UNL     1      -7.908   8.177  67.179  1.00  0.00    -0.101 C  
BRANCH  20  21
HETATM   21  O   UNL     1      -7.576   9.432  66.622  1.00  0.00    -0.093 OA 
BRANCH  21  22
HETATM   22  C   UNL     1      -8.195   9.842  65.463  1.00  0.00    -0.136 A  
HETATM   23  C   UNL     1     -10.710  12.783  65.734  1.00  0.00    -0.296 C  
HETATM   24  C   UNL     1      -9.534  11.990  66.100  1.00  0.00    -0.232 C  
HETATM   25  C   UNL     1      -9.126  10.875  65.194  1.00  0.00    -0.216 A  
HETATM   26  C   UNL     1      -9.725  10.921  63.913  1.00  0.00    -0.303 A  
HETATM   27  C   UNL     1     -11.204  12.676  64.502  1.00  0.00    -0.333 C  
HETATM   28  C   UNL     1      -9.347  10.039  62.894  1.00  0.00    -0.290 A  
HETATM   29  O   UNL     1     -10.713  11.814  63.545  1.00  0.00    -0.382 OA 
HETATM   30  C   UNL     1      -8.376   9.080  63.137  1.00  0.00    -0.195 A  
HETATM   31  C   UNL     1     -12.308  13.604  64.140  1.00  0.00    -0.330 C  
HETATM   32  O   UNL     1     -12.728  13.426  62.870  1.00  0.00    -0.535 OA 
HETATM   33  C   UNL     1      -7.830   8.971  64.413  1.00  0.00    -0.125 A  
HETATM   34  O   UNL     1      -8.921  12.372  67.084  1.00  0.00    -0.181 OA 
HETATM   35  O   UNL     1     -12.784  14.441  64.890  1.00  0.00    -0.614 OA 
ENDBRANCH  21  22
ENDBRANCH  20  21
ENDBRANCH   2  20
TORSDOF 6
ENDMDL
MODEL       89
REMARK 921   NORMALIZED FREE ENERGY PREDICTED BY IDOCK:   -6.82 KCAL/MOL
REMARK 922        TOTAL FREE ENERGY PREDICTED BY IDOCK:  -10.50 KCAL/MOL
REMARK 923 INTER-LIGAND FREE ENERGY PREDICTED BY IDOCK:   -9.94 KCAL/MOL
REMARK 924 INTRA-LIGAND FREE ENERGY PREDICTED BY IDOCK:   -0.56 KCAL/MOL
REMARK 927      BINDING AFFINITY PREDICTED BY RF-SCORE:    0.00 PKD
ROOT
HETATM    1  O   UNL     1     -13.491  11.357  72.285  1.00  0.00    -0.601 OA 
HETATM    2  C   UNL     1     -12.475  10.531  71.683  1.00  0.00    -0.340 C  
HETATM    3  H   UNL     1     -13.240  12.264  72.157  1.00  0.00     0.000 HD 
ENDROOT
BRANCH   2   4
HETATM    4  C   UNL     1     -12.360  10.896  70.204  1.00  0.00    -0.322 C  
BRANCH   4   5
HETATM    5  O   UNL     1     -12.068  12.294  70.083  1.00  0.00    -0.327 OA 
BRANCH   5   6
HETATM    6  C   UNL     1     -11.764  12.786  68.843  1.00  0.00    -0.326 A  
HETATM    7  O   UNL     1     -10.136  19.077  68.984  1.00  0.00    -0.403 OA 
HETATM    8  O   UNL     1     -10.215  18.523  66.793  1.00  0.00    -0.349 OA 
HETATM    9  C   UNL     1     -11.749  11.991  67.687  1.00  0.00    -0.365 A  
HETATM   10  C   UNL     1     -11.483  12.543  66.435  1.00  0.00    -0.418 A  
HETATM   11  C   UNL     1     -10.353  18.255  68.112  1.00  0.00    -0.373 C  
HETATM   12  C   UNL     1     -11.229  13.902  66.318  1.00  0.00    -0.310 A  
HETATM   13  O   UNL     1     -10.926  16.032  67.247  1.00  0.00    -0.300 OA 
HETATM   14  C   UNL     1     -10.782  16.851  68.348  1.00  0.00    -0.368 C  
HETATM   15  C   UNL     1     -11.220  14.706  67.458  1.00  0.00    -0.333 A  
HETATM   16  C   UNL     1     -10.996  16.466  69.611  1.00  0.00    -0.329 C  
HETATM   17  C   UNL     1     -11.486  14.162  68.722  1.00  0.00    -0.333 A  
HETATM   18  O   UNL     1     -11.649  14.763  71.044  1.00  0.00    -0.300 OA 
HETATM   19  C   UNL     1     -11.415  15.082  69.889  1.00  0.00    -0.289 C  
ENDBRANCH   5   6
ENDBRANCH   4   5
ENDBRANCH   2   4
BRANCH   2  20
HETATM   20  C   UNL     1     -12.881   9.067  71.890  1.00  0.00    -0.387 C  
BRANCH  20  21
HETATM   21  O   UNL     1     -12.276   8.161  70.990  1.00  0.00    -0.277 OA 
BRANCH  21  22
HETATM   22  C   UNL     1     -11.353   7.255  71.461  1.00  0.00    -0.251 A  
HETATM   23  C   UNL     1     -10.160   4.494  69.012  1.00  0.00    -0.057 C  
HETATM   24  C   UNL     1     -10.659   5.816  69.397  1.00  0.00    -0.313 C  
HETATM   25  C   UNL     1     -10.695   6.159  70.851  1.00  0.00    -0.316 A  
HETATM   26  C   UNL     1      -9.932   5.294  71.669  1.00  0.00    -0.180 A  
HETATM   27  C   UNL     1      -9.508   3.761  69.912  1.00  0.00    -0.197 C  
HETATM   28  C   UNL     1      -9.739   5.553  73.031  1.00  0.00    -0.164 A  
HETATM   29  O   UNL     1      -9.317   4.140  71.224  1.00  0.00    -0.130 OA 
HETATM   30  C   UNL     1     -10.319   6.671  73.609  1.00  0.00    -0.343 A  
HETATM   31  C   UNL     1      -8.902   2.492  69.432  1.00  0.00    -0.094 C  
HETATM   32  O   UNL     1      -8.254   1.831  70.414  1.00  0.00    -0.041 OA 
HETATM   33  C   UNL     1     -11.134   7.494  72.836  1.00  0.00    -0.426 A  
HETATM   34  O   UNL     1     -10.923   6.574  68.477  1.00  0.00    -0.278 OA 
HETATM   35  O   UNL     1      -8.965   2.085  68.283  1.00  0.00    -0.105 OA 
ENDBRANCH  21  22
ENDBRANCH  20  21
ENDBRANCH   2  20
TORSDOF 6
ENDMDL
MODEL       90
REMARK 921   NORMALIZED FREE ENERGY PREDICTED BY IDOCK:   -6.77 KCAL/MOL
REMARK 922        TOTAL FREE ENERGY PREDICTED BY IDOCK:  -10.44 KCAL/MOL
REMARK 923 INTER-LIGAND FREE ENERGY PREDICTED BY IDOCK:   -9.44 KCAL/MOL
REMARK 924 INTRA-LIGAND FREE ENERGY PREDICTED BY IDOCK:   -1.01 KCAL/MOL
REMARK 927      BINDING AFFINITY PREDICTED BY RF-SCORE:    0.00 PKD
ROOT
HETATM    1  O   UNL     1     -10.946  12.629  69.716  1.00  0.00    -0.452 OA 
HETATM    2  C   UNL     1     -11.394  11.279  69.488  1.00  0.00    -0.294 C  
HETATM    3  H   UNL     1     -10.707  12.704  70.633  1.00  0.00     0.000 HD 
ENDROOT
BRANCH   2   4
HETATM    4  C   UNL     1     -10.268  10.318  69.872  1.00  0.00    -0.202 C  
BRANCH   4   5
HETATM    5  O   UNL     1     -10.824   9.188  70.556  1.00  0.00    -0.227 OA 
BRANCH   5   6
HETATM    6  C   UNL     1     -10.647   7.948  70.004  1.00  0.00    -0.242 A  
HETATM    7  O   UNL     1     -10.682   3.209  74.451  1.00  0.00    -0.183 OA 
HETATM    8  O   UNL     1     -10.140   2.202  72.501  1.00  0.00    -0.126 OA 
HETATM    9  C   UNL     1     -10.535   7.735  68.622  1.00  0.00    -0.199 A  
HETATM   10  C   UNL     1     -10.305   6.461  68.104  1.00  0.00    -0.231 A  
HETATM   11  C   UNL     1     -10.439   3.280  73.260  1.00  0.00    -0.166 C  
HETATM   12  C   UNL     1     -10.182   5.377  68.963  1.00  0.00    -0.291 A  
HETATM   13  O   UNL     1     -10.205   4.431  71.106  1.00  0.00    -0.157 OA 
HETATM   14  C   UNL     1     -10.443   4.535  72.460  1.00  0.00    -0.186 C  
HETATM   15  C   UNL     1     -10.309   5.566  70.339  1.00  0.00    -0.276 A  
HETATM   16  C   UNL     1     -10.684   5.684  73.102  1.00  0.00    -0.301 C  
HETATM   17  C   UNL     1     -10.540   6.843  70.871  1.00  0.00    -0.243 A  
HETATM   18  O   UNL     1     -10.882   7.991  72.955  1.00  0.00    -0.368 OA 
HETATM   19  C   UNL     1     -10.705   6.948  72.345  1.00  0.00    -0.226 C  
ENDBRANCH   5   6
ENDBRANCH   4   5
ENDBRANCH   2   4
BRANCH   2  20
HETATM   20  C   UNL     1     -11.779  11.158  68.009  1.00  0.00    -0.212 C  
BRANCH  20  21
HETATM   21  O   UNL     1     -10.747  11.502  67.107  1.00  0.00    -0.228 OA 
BRANCH  21  22
HETATM   22  C   UNL     1     -10.959  12.504  66.188  1.00  0.00    -0.284 A  
HETATM   23  C   UNL     1      -9.859  16.089  67.180  1.00  0.00    -0.236 C  
HETATM   24  C   UNL     1      -9.806  14.625  67.179  1.00  0.00    -0.237 C  
HETATM   25  C   UNL     1     -10.666  13.889  66.204  1.00  0.00    -0.283 A  
HETATM   26  C   UNL     1     -11.187  14.698  65.167  1.00  0.00    -0.374 A  
HETATM   27  C   UNL     1     -10.440  16.715  66.159  1.00  0.00    -0.285 C  
HETATM   28  C   UNL     1     -11.892  14.146  64.091  1.00  0.00    -0.364 A  
HETATM   29  O   UNL     1     -11.057  16.072  65.108  1.00  0.00    -0.349 OA 
HETATM   30  C   UNL     1     -12.109  12.778  64.037  1.00  0.00    -0.533 A  
HETATM   31  C   UNL     1     -10.344  18.199  66.142  1.00  0.00    -0.385 C  
HETATM   32  O   UNL     1     -10.950  18.737  65.062  1.00  0.00    -0.520 OA 
HETATM   33  C   UNL     1     -11.668  11.976  65.086  1.00  0.00    -0.315 A  
HETATM   34  O   UNL     1      -8.979  14.122  67.924  1.00  0.00    -0.171 OA 
HETATM   35  O   UNL     1      -9.778  18.867  66.992  1.00  0.00    -0.292 OA 
ENDBRANCH  21  22
ENDBRANCH  20  21
ENDBRANCH   2  20
TORSDOF 6
ENDMDL
MODEL       91
REMARK 921   NORMALIZED FREE ENERGY PREDICTED BY IDOCK:   -6.77 KCAL/MOL
REMARK 922        TOTAL FREE ENERGY PREDICTED BY IDOCK:  -10.44 KCAL/MOL
REMARK 923 INTER-LIGAND FREE ENERGY PREDICTED BY IDOCK:   -8.53 KCAL/MOL
REMARK 924 INTRA-LIGAND FREE ENERGY PREDICTED BY IDOCK:   -1.91 KCAL/MOL
REMARK 927      BINDING AFFINITY PREDICTED BY RF-SCORE:    0.00 PKD
ROOT
HETATM    1  O   UNL     1     -10.099  10.854  69.679  1.00  0.00    -0.431 OA 
HETATM    2  C   UNL     1     -11.538  10.845  69.605  1.00  0.00    -0.322 C  
HETATM    3  H   UNL     1      -9.768  10.376  68.927  1.00  0.00     0.000 HD 
ENDROOT
BRANCH   2   4
HETATM    4  C   UNL     1     -11.965  11.479  68.282  1.00  0.00    -0.169 C  
BRANCH   4   5
HETATM    5  O   UNL     1     -10.827  11.579  67.416  1.00  0.00    -0.219 OA 
BRANCH   5   6
HETATM    6  C   UNL     1     -10.848  12.524  66.428  1.00  0.00    -0.261 A  
HETATM    7  O   UNL     1      -6.284  17.080  67.233  1.00  0.00    -0.136 OA 
HETATM    8  O   UNL     1      -7.526  17.775  65.476  1.00  0.00    -0.491 OA 
HETATM    9  C   UNL     1     -11.724  12.467  65.333  1.00  0.00    -0.452 A  
HETATM   10  C   UNL     1     -11.748  13.479  64.373  1.00  0.00    -0.443 A  
HETATM   11  C   UNL     1      -7.232  16.923  66.485  1.00  0.00    -0.262 C  
HETATM   12  C   UNL     1     -10.894  14.566  64.494  1.00  0.00    -0.239 A  
HETATM   13  O   UNL     1      -9.175  15.729  65.582  1.00  0.00    -0.279 OA 
HETATM   14  C   UNL     1      -8.191  15.788  66.546  1.00  0.00    -0.243 C  
HETATM   15  C   UNL     1     -10.003  14.632  65.565  1.00  0.00    -0.352 A  
HETATM   16  C   UNL     1      -8.036  14.892  67.528  1.00  0.00    -0.200 C  
HETATM   17  C   UNL     1      -9.970  13.621  66.536  1.00  0.00    -0.288 A  
HETATM   18  O   UNL     1      -8.831  12.967  68.549  1.00  0.00    -0.148 OA 
HETATM   19  C   UNL     1      -8.961  13.748  67.620  1.00  0.00    -0.194 C  
ENDBRANCH   5   6
ENDBRANCH   4   5
ENDBRANCH   2   4
BRANCH   2  20
HETATM   20  C   UNL     1     -12.073  11.616  70.817  1.00  0.00    -0.283 C  
BRANCH  20  21
HETATM   21  O   UNL     1     -12.924  12.697  70.493  1.00  0.00     0.076 OA 
BRANCH  21  22
HETATM   22  C   UNL     1     -12.616  13.959  70.946  1.00  0.00    -0.361 A  
HETATM   23  C   UNL     1     -11.195  16.480  68.363  1.00  0.00    -0.280 C  
HETATM   24  C   UNL     1     -11.992  15.340  68.821  1.00  0.00    -0.251 C  
HETATM   25  C   UNL     1     -12.115  15.111  70.292  1.00  0.00    -0.385 A  
HETATM   26  C   UNL     1     -11.721  16.214  71.085  1.00  0.00    -0.407 A  
HETATM   27  C   UNL     1     -10.843  17.417  69.241  1.00  0.00     0.182 C  
HETATM   28  C   UNL     1     -11.906  16.225  72.472  1.00  0.00    -0.608 A  
HETATM   29  O   UNL     1     -11.132  17.361  70.588  1.00  0.00     0.649 OA 
HETATM   30  C   UNL     1     -12.471  15.127  73.100  1.00  0.00    -0.561 A  
HETATM   31  C   UNL     1     -10.156  18.618  68.699  1.00  0.00    -0.368 C  
HETATM   32  O   UNL     1      -9.854  19.513  69.664  1.00  0.00    -0.230 OA 
HETATM   33  C   UNL     1     -12.796  14.002  72.346  1.00  0.00    -0.406 A  
HETATM   34  O   UNL     1     -12.576  14.715  67.949  1.00  0.00     0.136 OA 
HETATM   35  O   UNL     1      -9.896  18.796  67.520  1.00  0.00    -0.303 OA 
ENDBRANCH  21  22
ENDBRANCH  20  21
ENDBRANCH   2  20
TORSDOF 6
ENDMDL
MODEL       92
REMARK 921   NORMALIZED FREE ENERGY PREDICTED BY IDOCK:   -6.76 KCAL/MOL
REMARK 922        TOTAL FREE ENERGY PREDICTED BY IDOCK:  -10.43 KCAL/MOL
REMARK 923 INTER-LIGAND FREE ENERGY PREDICTED BY IDOCK:   -9.68 KCAL/MOL
REMARK 924 INTRA-LIGAND FREE ENERGY PREDICTED BY IDOCK:   -0.74 KCAL/MOL
REMARK 927      BINDING AFFINITY PREDICTED BY RF-SCORE:    0.00 PKD
ROOT
HETATM    1  O   UNL     1     -11.649   9.768  67.848  1.00  0.00    -0.523 OA 
HETATM    2  C   UNL     1     -11.433  10.783  68.848  1.00  0.00    -0.293 C  
HETATM    3  H   UNL     1     -12.044  10.186  67.091  1.00  0.00     0.000 HD 
ENDROOT
BRANCH   2   4
HETATM    4  C   UNL     1     -10.537  11.870  68.255  1.00  0.00    -0.213 C  
BRANCH   4   5
HETATM    5  O   UNL     1     -11.346  12.984  67.854  1.00  0.00    -0.255 OA 
BRANCH   5   6
HETATM    6  C   UNL     1     -11.400  14.074  68.679  1.00  0.00    -0.276 A  
HETATM    7  O   UNL     1      -9.916  19.605  65.607  1.00  0.00    -0.392 OA 
HETATM    8  O   UNL     1     -10.127  20.165  67.788  1.00  0.00    -0.404 OA 
HETATM    9  C   UNL     1     -11.795  13.997  70.024  1.00  0.00    -0.388 A  
HETATM   10  C   UNL     1     -11.787  15.125  70.844  1.00  0.00    -0.373 A  
HETATM   11  C   UNL     1     -10.115  19.281  66.764  1.00  0.00    -0.389 C  
HETATM   12  C   UNL     1     -11.382  16.349  70.332  1.00  0.00    -0.209 A  
HETATM   13  O   UNL     1     -10.650  17.708  68.569  1.00  0.00    -0.346 OA 
HETATM   14  C   UNL     1     -10.385  17.894  67.228  1.00  0.00    -0.369 C  
HETATM   15  C   UNL     1     -11.004  16.450  68.993  1.00  0.00    -0.325 A  
HETATM   16  C   UNL     1     -10.361  16.914  66.318  1.00  0.00    -0.312 C  
HETATM   17  C   UNL     1     -11.007  15.323  68.159  1.00  0.00    -0.292 A  
HETATM   18  O   UNL     1     -10.559  14.641  65.898  1.00  0.00    -0.289 OA 
HETATM   19  C   UNL     1     -10.631  15.527  66.735  1.00  0.00    -0.307 C  
ENDBRANCH   5   6
ENDBRANCH   4   5
ENDBRANCH   2   4
BRANCH   2  20
HETATM   20  C   UNL     1     -10.797  10.109  70.068  1.00  0.00    -0.307 C  
BRANCH  20  21
HETATM   21  O   UNL     1     -11.628   9.166  70.714  1.00  0.00    -0.276 OA 
BRANCH  21  22
HETATM   22  C   UNL     1     -11.067   8.036  71.264  1.00  0.00    -0.247 A  
HETATM   23  C   UNL     1     -10.138   5.151  68.843  1.00  0.00    -0.237 C  
HETATM   24  C   UNL     1     -10.362   6.542  69.243  1.00  0.00    -0.202 C  
HETATM   25  C   UNL     1     -10.594   6.831  70.691  1.00  0.00    -0.257 A  
HETATM   26  C   UNL     1     -10.241   5.769  71.556  1.00  0.00    -0.203 A  
HETATM   27  C   UNL     1      -9.875   4.243  69.780  1.00  0.00    -0.187 C  
HETATM   28  C   UNL     1     -10.258   5.920  72.948  1.00  0.00    -0.212 A  
HETATM   29  O   UNL     1      -9.854   4.512  71.132  1.00  0.00    -0.173 OA 
HETATM   30  C   UNL     1     -10.645   7.128  73.505  1.00  0.00    -0.416 A  
HETATM   31  C   UNL     1      -9.519   2.878  69.310  1.00  0.00    -0.087 C  
HETATM   32  O   UNL     1      -9.257   2.038  70.333  1.00  0.00    -0.089 OA 
HETATM   33  C   UNL     1     -11.067   8.160  72.671  1.00  0.00    -0.450 A  
HETATM   34  O   UNL     1     -10.247   7.375  68.358  1.00  0.00    -0.173 OA 
HETATM   35  O   UNL     1      -9.456   2.543  68.138  1.00  0.00    -0.211 OA 
ENDBRANCH  21  22
ENDBRANCH  20  21
ENDBRANCH   2  20
TORSDOF 6
ENDMDL
MODEL       93
REMARK 921   NORMALIZED FREE ENERGY PREDICTED BY IDOCK:   -6.76 KCAL/MOL
REMARK 922        TOTAL FREE ENERGY PREDICTED BY IDOCK:  -10.42 KCAL/MOL
REMARK 923 INTER-LIGAND FREE ENERGY PREDICTED BY IDOCK:   -8.25 KCAL/MOL
REMARK 924 INTRA-LIGAND FREE ENERGY PREDICTED BY IDOCK:   -2.17 KCAL/MOL
REMARK 927      BINDING AFFINITY PREDICTED BY RF-SCORE:    0.00 PKD
ROOT
HETATM    1  O   UNL     1     -10.816  16.545  67.305  1.00  0.00    -0.280 OA 
HETATM    2  C   UNL     1     -10.170  16.613  66.019  1.00  0.00    -0.351 C  
HETATM    3  H   UNL     1     -11.734  16.758  67.180  1.00  0.00     0.000 HD 
ENDROOT
BRANCH   2   4
HETATM    4  C   UNL     1     -10.867  15.640  65.068  1.00  0.00    -0.450 C  
BRANCH   4   5
HETATM    5  O   UNL     1     -11.654  14.716  65.831  1.00  0.00    -0.354 OA 
BRANCH   5   6
HETATM    6  C   UNL     1     -11.356  13.384  65.740  1.00  0.00    -0.305 A  
HETATM    7  O   UNL     1     -11.878  10.312  71.443  1.00  0.00    -0.355 OA 
HETATM    8  O   UNL     1     -11.022   8.785  70.012  1.00  0.00    -0.245 OA 
HETATM    9  C   UNL     1     -11.035  12.753  64.527  1.00  0.00    -0.370 A  
HETATM   10  C   UNL     1     -10.688  11.403  64.487  1.00  0.00    -0.391 A  
HETATM   11  C   UNL     1     -11.465  10.021  70.335  1.00  0.00    -0.314 C  
HETATM   12  C   UNL     1     -10.654  10.661  65.659  1.00  0.00    -0.175 A  
HETATM   13  O   UNL     1     -10.958  10.444  67.972  1.00  0.00    -0.252 OA 
HETATM   14  C   UNL     1     -11.396  10.953  69.177  1.00  0.00    -0.283 C  
HETATM   15  C   UNL     1     -10.988  11.266  66.871  1.00  0.00    -0.290 A  
HETATM   16  C   UNL     1     -11.768  12.223  69.373  1.00  0.00    -0.392 C  
HETATM   17  C   UNL     1     -11.339  12.622  66.925  1.00  0.00    -0.373 A  
HETATM   18  O   UNL     1     -12.022  14.340  68.461  1.00  0.00    -0.341 OA 
HETATM   19  C   UNL     1     -11.722  13.176  68.251  1.00  0.00    -0.349 C  
ENDBRANCH   5   6
ENDBRANCH   4   5
ENDBRANCH   2   4
BRANCH   2  20
HETATM   20  C   UNL     1      -8.690  16.268  66.220  1.00  0.00    -0.335 C  
BRANCH  20  21
HETATM   21  O   UNL     1      -8.449  14.926  66.594  1.00  0.00    -0.221 OA 
BRANCH  21  22
HETATM   22  C   UNL     1      -7.633  14.661  67.670  1.00  0.00    -0.180 A  
HETATM   23  C   UNL     1      -7.155  10.943  68.665  1.00  0.00    -0.080 C  
HETATM   24  C   UNL     1      -7.399  12.063  67.754  1.00  0.00    -0.113 C  
HETATM   25  C   UNL     1      -7.223  13.450  68.279  1.00  0.00    -0.111 A  
HETATM   26  C   UNL     1      -6.519  13.521  69.504  1.00  0.00    -0.089 A  
HETATM   27  C   UNL     1      -6.530  11.172  69.819  1.00  0.00    -0.137 C  
HETATM   28  C   UNL     1      -6.141  14.747  70.064  1.00  0.00    -0.150 A  
HETATM   29  O   UNL     1      -6.141  12.422  70.252  1.00  0.00    -0.153 OA 
HETATM   30  C   UNL     1      -6.474  15.929  69.423  1.00  0.00    -0.167 A  
HETATM   31  C   UNL     1      -6.184   9.983  70.641  1.00  0.00    -0.103 C  
HETATM   32  O   UNL     1      -5.543  10.319  71.781  1.00  0.00    -0.277 OA 
HETATM   33  C   UNL     1      -7.232  15.882  68.255  1.00  0.00    -0.118 A  
HETATM   34  O   UNL     1      -7.640  11.763  66.595  1.00  0.00    -0.108 OA 
HETATM   35  O   UNL     1      -6.434   8.829  70.332  1.00  0.00    -0.037 OA 
ENDBRANCH  21  22
ENDBRANCH  20  21
ENDBRANCH   2  20
TORSDOF 6
ENDMDL
MODEL       94
REMARK 921   NORMALIZED FREE ENERGY PREDICTED BY IDOCK:   -6.76 KCAL/MOL
REMARK 922        TOTAL FREE ENERGY PREDICTED BY IDOCK:  -10.42 KCAL/MOL
REMARK 923 INTER-LIGAND FREE ENERGY PREDICTED BY IDOCK:   -9.06 KCAL/MOL
REMARK 924 INTRA-LIGAND FREE ENERGY PREDICTED BY IDOCK:   -1.36 KCAL/MOL
REMARK 927      BINDING AFFINITY PREDICTED BY RF-SCORE:    0.00 PKD
ROOT
HETATM    1  O   UNL     1      -9.617   8.998  65.316  1.00  0.00    -0.457 OA 
HETATM    2  C   UNL     1     -10.167  10.286  65.653  1.00  0.00    -0.231 C  
HETATM    3  H   UNL     1      -9.142   9.090  64.498  1.00  0.00     0.000 HD 
ENDROOT
BRANCH   2   4
HETATM    4  C   UNL     1      -9.023  11.294  65.759  1.00  0.00    -0.181 C  
BRANCH   4   5
HETATM    5  O   UNL     1      -9.564  12.603  65.978  1.00  0.00    -0.247 OA 
BRANCH   5   6
HETATM    6  C   UNL     1      -9.067  13.343  67.016  1.00  0.00    -0.243 A  
HETATM    7  O   UNL     1     -13.728  15.526  70.984  1.00  0.00    -0.546 OA 
HETATM    8  O   UNL     1     -11.815  16.483  71.717  1.00  0.00    -0.423 OA 
HETATM    9  C   UNL     1      -7.693  13.546  67.221  1.00  0.00    -0.093 A  
HETATM   10  C   UNL     1      -7.230  14.350  68.263  1.00  0.00    -0.122 A  
HETATM   11  C   UNL     1     -12.529  15.710  70.867  1.00  0.00    -0.445 C  
HETATM   12  C   UNL     1      -8.135  14.965  69.116  1.00  0.00    -0.160 A  
HETATM   13  O   UNL     1     -10.320  15.383  69.853  1.00  0.00    -0.281 OA 
HETATM   14  C   UNL     1     -11.673  15.120  69.805  1.00  0.00    -0.319 C  
HETATM   15  C   UNL     1      -9.504  14.760  68.940  1.00  0.00    -0.191 A  
HETATM   16  C   UNL     1     -12.265  14.365  68.872  1.00  0.00    -0.214 C  
HETATM   17  C   UNL     1      -9.981  13.954  67.896  1.00  0.00    -0.242 A  
HETATM   18  O   UNL     1     -12.017  13.107  66.939  1.00  0.00    -0.380 OA 
HETATM   19  C   UNL     1     -11.452  13.755  67.806  1.00  0.00    -0.322 C  
ENDBRANCH   5   6
ENDBRANCH   4   5
ENDBRANCH   2   4
BRANCH   2  20
HETATM   20  C   UNL     1     -10.932  10.137  66.973  1.00  0.00    -0.092 C  
BRANCH  20  21
HETATM   21  O   UNL     1     -10.120  10.187  68.128  1.00  0.00    -0.145 OA 
BRANCH  21  22
HETATM   22  C   UNL     1     -10.636   9.773  69.335  1.00  0.00    -0.228 A  
HETATM   23  C   UNL     1      -9.748   6.185  70.513  1.00  0.00    -0.203 C  
HETATM   24  C   UNL     1      -9.535   7.456  69.816  1.00  0.00    -0.159 C  
HETATM   25  C   UNL     1     -10.500   8.568  70.067  1.00  0.00    -0.226 A  
HETATM   26  C   UNL     1     -11.321   8.377  71.203  1.00  0.00    -0.268 A  
HETATM   27  C   UNL     1     -10.602   6.143  71.533  1.00  0.00    -0.239 C  
HETATM   28  C   UNL     1     -12.178   9.382  71.666  1.00  0.00    -0.467 A  
HETATM   29  O   UNL     1     -11.359   7.217  71.952  1.00  0.00    -0.247 OA 
HETATM   30  C   UNL     1     -12.249  10.592  70.994  1.00  0.00    -0.505 A  
HETATM   31  C   UNL     1     -10.677   4.867  72.293  1.00  0.00    -0.150 C  
HETATM   32  O   UNL     1     -11.559   4.931  73.313  1.00  0.00    -0.336 OA 
HETATM   33  C   UNL     1     -11.504  10.770  69.830  1.00  0.00    -0.398 A  
HETATM   34  O   UNL     1      -8.516   7.531  69.147  1.00  0.00    -0.133 OA 
HETATM   35  O   UNL     1     -10.016   3.872  72.042  1.00  0.00    -0.167 OA 
ENDBRANCH  21  22
ENDBRANCH  20  21
ENDBRANCH   2  20
TORSDOF 6
ENDMDL
MODEL       95
REMARK 921   NORMALIZED FREE ENERGY PREDICTED BY IDOCK:   -6.75 KCAL/MOL
REMARK 922        TOTAL FREE ENERGY PREDICTED BY IDOCK:  -10.41 KCAL/MOL
REMARK 923 INTER-LIGAND FREE ENERGY PREDICTED BY IDOCK:   -9.70 KCAL/MOL
REMARK 924 INTRA-LIGAND FREE ENERGY PREDICTED BY IDOCK:   -0.71 KCAL/MOL
REMARK 927      BINDING AFFINITY PREDICTED BY RF-SCORE:    0.00 PKD
ROOT
HETATM    1  O   UNL     1      -9.765   7.664  65.966  1.00  0.00    -0.434 OA 
HETATM    2  C   UNL     1      -9.190   8.953  66.257  1.00  0.00    -0.207 C  
HETATM    3  H   UNL     1      -9.328   7.022  66.514  1.00  0.00     0.000 HD 
ENDROOT
BRANCH   2   4
HETATM    4  C   UNL     1      -9.370   9.244  67.746  1.00  0.00    -0.128 C  
BRANCH   4   5
HETATM    5  O   UNL     1      -9.986   8.115  68.379  1.00  0.00    -0.178 OA 
BRANCH   5   6
HETATM    6  C   UNL     1     -10.450   8.263  69.657  1.00  0.00    -0.221 A  
HETATM    7  O   UNL     1      -9.721   2.876  73.218  1.00  0.00    -0.095 OA 
HETATM    8  O   UNL     1     -10.897   4.303  74.519  1.00  0.00    -0.250 OA 
HETATM    9  C   UNL     1     -10.967   9.472  70.148  1.00  0.00    -0.302 A  
HETATM   10  C   UNL     1     -11.477   9.566  71.442  1.00  0.00    -0.462 A  
HETATM   11  C   UNL     1     -10.277   3.948  73.370  1.00  0.00    -0.147 C  
HETATM   12  C   UNL     1     -11.479   8.450  72.268  1.00  0.00    -0.454 A  
HETATM   13  O   UNL     1     -10.968   6.206  72.704  1.00  0.00    -0.231 OA 
HETATM   14  C   UNL     1     -10.351   5.025  72.347  1.00  0.00    -0.206 C  
HETATM   15  C   UNL     1     -10.952   7.245  71.804  1.00  0.00    -0.227 A  
HETATM   16  C   UNL     1      -9.811   4.785  71.146  1.00  0.00    -0.260 C  
HETATM   17  C   UNL     1     -10.437   7.138  70.505  1.00  0.00    -0.228 A  
HETATM   18  O   UNL     1      -9.398   5.573  69.004  1.00  0.00    -0.116 OA 
HETATM   19  C   UNL     1      -9.857   5.828  70.107  1.00  0.00    -0.184 C  
ENDBRANCH   5   6
ENDBRANCH   4   5
ENDBRANCH   2   4
BRANCH   2  20
HETATM   20  C   UNL     1      -9.895   9.988  65.374  1.00  0.00    -0.314 C  
BRANCH  20  21
HETATM   21  O   UNL     1     -10.423  11.094  66.078  1.00  0.00    -0.251 OA 
BRANCH  21  22
HETATM   22  C   UNL     1     -10.789  12.225  65.384  1.00  0.00    -0.286 A  
HETATM   23  C   UNL     1      -9.432  15.621  66.678  1.00  0.00    -0.282 C  
HETATM   24  C   UNL     1      -9.414  14.176  66.441  1.00  0.00    -0.269 C  
HETATM   25  C   UNL     1     -10.466  13.593  65.555  1.00  0.00    -0.314 A  
HETATM   26  C   UNL     1     -11.162  14.549  64.778  1.00  0.00    -0.390 A  
HETATM   27  C   UNL     1     -10.188  16.394  65.901  1.00  0.00    -0.359 C  
HETATM   28  C   UNL     1     -12.078  14.165  63.791  1.00  0.00    -0.192 A  
HETATM   29  O   UNL     1     -11.015  15.916  64.907  1.00  0.00    -0.443 OA 
HETATM   30  C   UNL     1     -12.332  12.821  63.572  1.00  0.00    -0.559 A  
HETATM   31  C   UNL     1     -10.063  17.863  66.093  1.00  0.00    -0.320 C  
HETATM   32  O   UNL     1     -10.857  18.557  65.251  1.00  0.00    -0.606 OA 
HETATM   33  C   UNL     1     -11.712  11.869  64.377  1.00  0.00    -0.357 A  
HETATM   34  O   UNL     1      -8.468  13.570  66.922  1.00  0.00    -0.160 OA 
HETATM   35  O   UNL     1      -9.325  18.395  66.906  1.00  0.00    -0.274 OA 
ENDBRANCH  21  22
ENDBRANCH  20  21
ENDBRANCH   2  20
TORSDOF 6
ENDMDL
MODEL       96
REMARK 921   NORMALIZED FREE ENERGY PREDICTED BY IDOCK:   -6.74 KCAL/MOL
REMARK 922        TOTAL FREE ENERGY PREDICTED BY IDOCK:  -10.40 KCAL/MOL
REMARK 923 INTER-LIGAND FREE ENERGY PREDICTED BY IDOCK:   -8.83 KCAL/MOL
REMARK 924 INTRA-LIGAND FREE ENERGY PREDICTED BY IDOCK:   -1.57 KCAL/MOL
REMARK 927      BINDING AFFINITY PREDICTED BY RF-SCORE:    0.00 PKD
ROOT
HETATM    1  O   UNL     1      -8.974   8.579  64.611  1.00  0.00    -0.420 OA 
HETATM    2  C   UNL     1      -9.220   9.772  65.381  1.00  0.00    -0.227 C  
HETATM    3  H   UNL     1      -9.804   8.292  64.249  1.00  0.00     0.000 HD 
ENDROOT
BRANCH   2   4
HETATM    4  C   UNL     1      -9.847  10.824  64.466  1.00  0.00    -0.310 C  
BRANCH   4   5
HETATM    5  O   UNL     1     -11.015  11.364  65.097  1.00  0.00    -0.267 OA 
BRANCH   5   6
HETATM    6  C   UNL     1     -11.020  12.693  65.420  1.00  0.00    -0.286 A  
HETATM    7  O   UNL     1     -12.575  13.746  71.641  1.00  0.00    -0.332 OA 
HETATM    8  O   UNL     1     -12.448  15.797  70.696  1.00  0.00    -0.420 OA 
HETATM    9  C   UNL     1     -10.664  13.702  64.511  1.00  0.00    -0.420 A  
HETATM   10  C   UNL     1     -10.731  15.049  64.866  1.00  0.00    -0.420 A  
HETATM   11  C   UNL     1     -12.402  14.445  70.659  1.00  0.00    -0.351 C  
HETATM   12  C   UNL     1     -11.157  15.410  66.137  1.00  0.00    -0.230 A  
HETATM   13  O   UNL     1     -11.875  14.872  68.301  1.00  0.00    -0.324 OA 
HETATM   14  C   UNL     1     -12.104  13.940  69.292  1.00  0.00    -0.339 C  
HETATM   15  C   UNL     1     -11.497  14.420  67.060  1.00  0.00    -0.361 A  
HETATM   16  C   UNL     1     -12.071  12.615  69.109  1.00  0.00    -0.191 C  
HETATM   17  C   UNL     1     -11.434  13.063  66.715  1.00  0.00    -0.392 A  
HETATM   18  O   UNL     1     -11.791  10.863  67.615  1.00  0.00    -0.572 OA 
HETATM   19  C   UNL     1     -11.772  12.074  67.772  1.00  0.00    -0.309 C  
ENDBRANCH   5   6
ENDBRANCH   4   5
ENDBRANCH   2   4
BRANCH   2  20
HETATM   20  C   UNL     1      -7.880  10.236  65.965  1.00  0.00    -0.133 C  
BRANCH  20  21
HETATM   21  O   UNL     1      -7.188   9.245  66.697  1.00  0.00    -0.081 OA 
BRANCH  21  22
HETATM   22  C   UNL     1      -7.376   9.155  68.057  1.00  0.00    -0.083 A  
HETATM   23  C   UNL     1     -10.725   7.637  69.294  1.00  0.00    -0.169 C  
HETATM   24  C   UNL     1      -9.599   7.825  68.376  1.00  0.00    -0.152 C  
HETATM   25  C   UNL     1      -8.439   8.644  68.841  1.00  0.00    -0.129 A  
HETATM   26  C   UNL     1      -8.413   8.871  70.237  1.00  0.00    -0.160 A  
HETATM   27  C   UNL     1     -10.571   7.954  70.578  1.00  0.00    -0.223 C  
HETATM   28  C   UNL     1      -7.325   9.494  70.858  1.00  0.00    -0.053 A  
HETATM   29  O   UNL     1      -9.426   8.511  71.105  1.00  0.00    -0.165 OA 
HETATM   30  C   UNL     1      -6.248   9.921  70.098  1.00  0.00    -0.073 A  
HETATM   31  C   UNL     1     -11.695   7.615  71.490  1.00  0.00    -0.281 C  
HETATM   32  O   UNL     1     -11.437   7.963  72.769  1.00  0.00    -0.390 OA 
HETATM   33  C   UNL     1      -6.290   9.774  68.714  1.00  0.00    -0.046 A  
HETATM   34  O   UNL     1      -9.662   7.208  67.324  1.00  0.00    -0.140 OA 
HETATM   35  O   UNL     1     -12.733   7.076  71.142  1.00  0.00    -0.381 OA 
ENDBRANCH  21  22
ENDBRANCH  20  21
ENDBRANCH   2  20
TORSDOF 6
ENDMDL
MODEL       97
REMARK 921   NORMALIZED FREE ENERGY PREDICTED BY IDOCK:   -6.74 KCAL/MOL
REMARK 922        TOTAL FREE ENERGY PREDICTED BY IDOCK:  -10.40 KCAL/MOL
REMARK 923 INTER-LIGAND FREE ENERGY PREDICTED BY IDOCK:   -9.67 KCAL/MOL
REMARK 924 INTRA-LIGAND FREE ENERGY PREDICTED BY IDOCK:   -0.73 KCAL/MOL
REMARK 927      BINDING AFFINITY PREDICTED BY RF-SCORE:    0.00 PKD
ROOT
HETATM    1  O   UNL     1     -13.111  12.340  63.357  1.00  0.00    -0.727 OA 
HETATM    2  C   UNL     1     -12.131  13.322  63.745  1.00  0.00    -0.482 C  
HETATM    3  H   UNL     1     -12.867  12.010  62.500  1.00  0.00     0.000 HD 
ENDROOT
BRANCH   2   4
HETATM    4  C   UNL     1     -10.752  12.662  63.750  1.00  0.00    -0.417 C  
BRANCH   4   5
HETATM    5  O   UNL     1     -10.907  11.243  63.880  1.00  0.00    -0.375 OA 
BRANCH   5   6
HETATM    6  C   UNL     1     -10.338  10.627  64.961  1.00  0.00    -0.271 A  
HETATM    7  O   UNL     1      -5.348   6.802  63.315  1.00  0.00    -0.029 OA 
HETATM    8  O   UNL     1      -5.674   6.450  65.525  1.00  0.00    -0.021 OA 
HETATM    9  C   UNL     1     -10.759  10.856  66.280  1.00  0.00    -0.241 A  
HETATM   10  C   UNL     1     -10.185  10.168  67.349  1.00  0.00    -0.267 A  
HETATM   11  C   UNL     1      -5.980   7.015  64.334  1.00  0.00    -0.036 C  
HETATM   12  C   UNL     1      -9.182   9.238  67.116  1.00  0.00    -0.157 A  
HETATM   13  O   UNL     1      -7.719   8.098  65.684  1.00  0.00    -0.083 OA 
HETATM   14  C   UNL     1      -7.155   7.922  64.438  1.00  0.00    -0.074 C  
HETATM   15  C   UNL     1      -8.738   9.011  65.813  1.00  0.00    -0.169 A  
HETATM   16  C   UNL     1      -7.588   8.514  63.319  1.00  0.00    -0.119 C  
HETATM   17  C   UNL     1      -9.306   9.696  64.730  1.00  0.00    -0.286 A  
HETATM   18  O   UNL     1      -9.152   9.921  62.342  1.00  0.00    -0.253 OA 
HETATM   19  C   UNL     1      -8.744   9.425  63.380  1.00  0.00    -0.204 C  
ENDBRANCH   5   6
ENDBRANCH   4   5
ENDBRANCH   2   4
BRANCH   2  20
HETATM   20  C   UNL     1     -12.525  13.853  65.128  1.00  0.00    -0.453 C  
BRANCH  20  21
HETATM   21  O   UNL     1     -11.550  13.651  66.131  1.00  0.00    -0.324 OA 
BRANCH  21  22
HETATM   22  C   UNL     1     -11.469  14.535  67.183  1.00  0.00    -0.368 A  
HETATM   23  C   UNL     1      -9.571  17.862  66.568  1.00  0.00    -0.318 C  
HETATM   24  C   UNL     1     -10.382  16.697  66.205  1.00  0.00    -0.330 C  
HETATM   25  C   UNL     1     -10.890  15.822  67.304  1.00  0.00    -0.298 A  
HETATM   26  C   UNL     1     -10.808  16.403  68.591  1.00  0.00    -0.331 A  
HETATM   27  C   UNL     1      -9.542  18.259  67.838  1.00  0.00    -0.289 C  
HETATM   28  C   UNL     1     -11.369  15.782  69.713  1.00  0.00    -0.339 A  
HETATM   29  O   UNL     1     -10.187  17.606  68.866  1.00  0.00    -0.360 OA 
HETATM   30  C   UNL     1     -12.007  14.559  69.577  1.00  0.00    -0.363 A  
HETATM   31  C   UNL     1      -8.819  19.525  68.128  1.00  0.00    -0.330 C  
HETATM   32  O   UNL     1      -8.859  19.848  69.438  1.00  0.00     0.016 OA 
HETATM   33  C   UNL     1     -12.031  13.937  68.331  1.00  0.00    -0.391 A  
HETATM   34  O   UNL     1     -10.657  16.589  65.020  1.00  0.00    -0.670 OA 
HETATM   35  O   UNL     1      -8.257  20.210  67.289  1.00  0.00    -0.312 OA 
ENDBRANCH  21  22
ENDBRANCH  20  21
ENDBRANCH   2  20
TORSDOF 6
ENDMDL
MODEL       98
REMARK 921   NORMALIZED FREE ENERGY PREDICTED BY IDOCK:   -6.73 KCAL/MOL
REMARK 922        TOTAL FREE ENERGY PREDICTED BY IDOCK:  -10.39 KCAL/MOL
REMARK 923 INTER-LIGAND FREE ENERGY PREDICTED BY IDOCK:   -9.76 KCAL/MOL
REMARK 924 INTRA-LIGAND FREE ENERGY PREDICTED BY IDOCK:   -0.62 KCAL/MOL
REMARK 927      BINDING AFFINITY PREDICTED BY RF-SCORE:    0.00 PKD
ROOT
HETATM    1  O   UNL     1     -12.144  11.131  67.910  1.00  0.00    -0.659 OA 
HETATM    2  C   UNL     1     -11.026  11.084  67.001  1.00  0.00    -0.272 C  
HETATM    3  H   UNL     1     -12.412  10.236  68.085  1.00  0.00     0.000 HD 
ENDROOT
BRANCH   2   4
HETATM    4  C   UNL     1      -9.910  10.259  67.640  1.00  0.00    -0.171 C  
BRANCH   4   5
HETATM    5  O   UNL     1     -10.448   9.496  68.728  1.00  0.00    -0.209 OA 
BRANCH   5   6
HETATM    6  C   UNL     1     -10.500   8.135  68.599  1.00  0.00    -0.165 A  
HETATM    7  O   UNL     1     -11.025   5.103  74.323  1.00  0.00    -0.283 OA 
HETATM    8  O   UNL     1     -10.762   3.459  72.792  1.00  0.00    -0.134 OA 
HETATM    9  C   UNL     1     -10.503   7.484  67.355  1.00  0.00    -0.367 A  
HETATM   10  C   UNL     1     -10.507   6.092  67.270  1.00  0.00    -0.319 A  
HETATM   11  C   UNL     1     -10.842   4.756  73.170  1.00  0.00    -0.270 C  
HETATM   12  C   UNL     1     -10.506   5.327  68.428  1.00  0.00    -0.143 A  
HETATM   13  O   UNL     1     -10.555   5.117  70.761  1.00  0.00    -0.222 OA 
HETATM   14  C   UNL     1     -10.695   5.678  72.013  1.00  0.00    -0.235 C  
HETATM   15  C   UNL     1     -10.523   5.956  69.673  1.00  0.00    -0.277 A  
HETATM   16  C   UNL     1     -10.715   6.994  72.256  1.00  0.00    -0.250 C  
HETATM   17  C   UNL     1     -10.519   7.355  69.772  1.00  0.00    -0.235 A  
HETATM   18  O   UNL     1     -10.555   9.138  71.384  1.00  0.00    -0.289 OA 
HETATM   19  C   UNL     1     -10.581   7.942  71.136  1.00  0.00    -0.213 C  
ENDBRANCH   5   6
ENDBRANCH   4   5
ENDBRANCH   2   4
BRANCH   2  20
HETATM   20  C   UNL     1     -10.593  12.527  66.720  1.00  0.00    -0.233 C  
BRANCH  20  21
HETATM   21  O   UNL     1     -11.617  13.487  66.885  1.00  0.00    -0.328 OA 
BRANCH  21  22
HETATM   22  C   UNL     1     -11.415  14.551  67.734  1.00  0.00    -0.340 A  
HETATM   23  C   UNL     1      -9.307  17.519  66.395  1.00  0.00    -0.265 C  
HETATM   24  C   UNL     1     -10.220  16.378  66.303  1.00  0.00    -0.330 C  
HETATM   25  C   UNL     1     -10.735  15.783  67.573  1.00  0.00    -0.317 A  
HETATM   26  C   UNL     1     -10.543  16.598  68.713  1.00  0.00    -0.340 A  
HETATM   27  C   UNL     1      -9.182  18.156  67.558  1.00  0.00    -0.257 C  
HETATM   28  C   UNL     1     -11.090  16.260  69.956  1.00  0.00    -0.351 A  
HETATM   29  O   UNL     1      -9.820  17.775  68.719  1.00  0.00    -0.332 OA 
HETATM   30  C   UNL     1     -11.825  15.092  70.092  1.00  0.00    -0.351 A  
HETATM   31  C   UNL     1      -8.351  19.389  67.561  1.00  0.00    -0.291 C  
HETATM   32  O   UNL     1      -8.299  19.966  68.780  1.00  0.00    -0.207 OA 
HETATM   33  C   UNL     1     -11.960  14.241  68.999  1.00  0.00    -0.360 A  
HETATM   34  O   UNL     1     -10.564  16.062  65.174  1.00  0.00    -0.485 OA 
HETATM   35  O   UNL     1      -7.784  19.845  66.582  1.00  0.00    -0.263 OA 
ENDBRANCH  21  22
ENDBRANCH  20  21
ENDBRANCH   2  20
TORSDOF 6
ENDMDL
MODEL       99
REMARK 921   NORMALIZED FREE ENERGY PREDICTED BY IDOCK:   -6.70 KCAL/MOL
REMARK 922        TOTAL FREE ENERGY PREDICTED BY IDOCK:  -10.34 KCAL/MOL
REMARK 923 INTER-LIGAND FREE ENERGY PREDICTED BY IDOCK:   -9.12 KCAL/MOL
REMARK 924 INTRA-LIGAND FREE ENERGY PREDICTED BY IDOCK:   -1.23 KCAL/MOL
REMARK 927      BINDING AFFINITY PREDICTED BY RF-SCORE:    0.00 PKD
ROOT
HETATM    1  O   UNL     1     -14.142   8.578  71.975  1.00  0.00    -0.407 OA 
HETATM    2  C   UNL     1     -12.744   8.480  72.311  1.00  0.00    -0.367 C  
HETATM    3  H   UNL     1     -14.467   9.400  72.326  1.00  0.00     0.000 HD 
ENDROOT
BRANCH   2   4
HETATM    4  C   UNL     1     -12.014   9.688  71.726  1.00  0.00    -0.347 C  
BRANCH   4   5
HETATM    5  O   UNL     1     -12.937  10.477  70.965  1.00  0.00    -0.366 OA 
BRANCH   5   6
HETATM    6  C   UNL     1     -12.838  11.839  71.037  1.00  0.00    -0.215 A  
HETATM    7  O   UNL     1     -10.593  14.474  65.536  1.00  0.00    -0.310 OA 
HETATM    8  O   UNL     1     -10.724  16.181  67.013  1.00  0.00    -0.313 OA 
HETATM    9  C   UNL     1     -13.240  12.577  72.162  1.00  0.00    -0.508 A  
HETATM   10  C   UNL     1     -13.073  13.960  72.214  1.00  0.00    -0.512 A  
HETATM   11  C   UNL     1     -10.836  14.881  66.658  1.00  0.00    -0.319 C  
HETATM   12  C   UNL     1     -12.501  14.630  71.141  1.00  0.00    -0.402 A  
HETATM   13  O   UNL     1     -11.586  14.668  68.984  1.00  0.00    -0.268 OA 
HETATM   14  C   UNL     1     -11.298  14.037  67.793  1.00  0.00    -0.303 C  
HETATM   15  C   UNL     1     -12.113  13.916  70.007  1.00  0.00    -0.345 A  
HETATM   16  C   UNL     1     -11.411  12.719  67.586  1.00  0.00    -0.387 C  
HETATM   17  C   UNL     1     -12.274  12.525  69.943  1.00  0.00    -0.233 A  
HETATM   18  O   UNL     1     -11.926  10.645  68.486  1.00  0.00    -0.425 OA 
HETATM   19  C   UNL     1     -11.873  11.849  68.681  1.00  0.00    -0.308 C  
ENDBRANCH   5   6
ENDBRANCH   4   5
ENDBRANCH   2   4
BRANCH   2  20
HETATM   20  C   UNL     1     -12.220   7.155  71.745  1.00  0.00    -0.344 C  
BRANCH  20  21
HETATM   21  O   UNL     1     -10.811   7.066  71.678  1.00  0.00    -0.221 OA 
BRANCH  21  22
HETATM   22  C   UNL     1     -10.223   6.462  70.590  1.00  0.00    -0.190 A  
HETATM   23  C   UNL     1      -8.986   8.771  67.729  1.00  0.00    -0.140 C  
HETATM   24  C   UNL     1      -9.312   8.410  69.111  1.00  0.00    -0.151 C  
HETATM   25  C   UNL     1      -9.649   6.985  69.406  1.00  0.00    -0.155 A  
HETATM   26  C   UNL     1      -9.293   6.080  68.378  1.00  0.00    -0.119 A  
HETATM   27  C   UNL     1      -8.732   7.804  66.851  1.00  0.00    -0.132 C  
HETATM   28  C   UNL     1      -9.404   4.696  68.547  1.00  0.00    -0.190 A  
HETATM   29  O   UNL     1      -8.811   6.458  67.139  1.00  0.00    -0.113 OA 
HETATM   30  C   UNL     1      -9.892   4.184  69.739  1.00  0.00    -0.220 A  
HETATM   31  C   UNL     1      -8.272   8.227  65.502  1.00  0.00    -0.138 C  
HETATM   32  O   UNL     1      -8.028   7.175  64.692  1.00  0.00    -0.122 OA 
HETATM   33  C   UNL     1     -10.318   5.061  70.734  1.00  0.00    -0.265 A  
HETATM   34  O   UNL     1      -9.188   9.301  69.937  1.00  0.00    -0.166 OA 
HETATM   35  O   UNL     1      -8.117   9.387  65.155  1.00  0.00    -0.117 OA 
ENDBRANCH  21  22
ENDBRANCH  20  21
ENDBRANCH   2  20
TORSDOF 6
ENDMDL
MODEL      100
REMARK 921   NORMALIZED FREE ENERGY PREDICTED BY IDOCK:   -6.70 KCAL/MOL
REMARK 922        TOTAL FREE ENERGY PREDICTED BY IDOCK:  -10.34 KCAL/MOL
REMARK 923 INTER-LIGAND FREE ENERGY PREDICTED BY IDOCK:   -8.38 KCAL/MOL
REMARK 924 INTRA-LIGAND FREE ENERGY PREDICTED BY IDOCK:   -1.96 KCAL/MOL
REMARK 927      BINDING AFFINITY PREDICTED BY RF-SCORE:    0.00 PKD
ROOT
HETATM    1  O   UNL     1     -12.651  14.434  67.451  1.00  0.00    -0.532 OA 
HETATM    2  C   UNL     1     -11.877  15.357  68.242  1.00  0.00    -0.206 C  
HETATM    3  H   UNL     1     -12.882  14.871  66.639  1.00  0.00     0.000 HD 
ENDROOT
BRANCH   2   4
HETATM    4  C   UNL     1     -10.646  15.777  67.439  1.00  0.00    -0.313 C  
BRANCH   4   5
HETATM    5  O   UNL     1     -10.235  14.690  66.599  1.00  0.00    -0.265 OA 
BRANCH   5   6
HETATM    6  C   UNL     1      -9.032  14.093  66.857  1.00  0.00    -0.230 A  
HETATM    7  O   UNL     1      -9.073   7.727  65.551  1.00  0.00    -0.021 OA 
HETATM    8  O   UNL     1      -7.068   8.131  66.514  1.00  0.00    -0.073 OA 
HETATM    9  C   UNL     1      -7.903  14.804  67.296  1.00  0.00    -0.223 A  
HETATM   10  C   UNL     1      -6.710  14.148  67.596  1.00  0.00    -0.188 A  
HETATM   11  C   UNL     1      -8.295   8.499  66.081  1.00  0.00    -0.119 C  
HETATM   12  C   UNL     1      -6.625  12.769  67.463  1.00  0.00    -0.158 A  
HETATM   13  O   UNL     1      -7.541  10.693  66.879  1.00  0.00    -0.105 OA 
HETATM   14  C   UNL     1      -8.555   9.944  66.321  1.00  0.00    -0.128 C  
HETATM   15  C   UNL     1      -7.730  12.048  67.010  1.00  0.00    -0.129 A  
HETATM   16  C   UNL     1      -9.754  10.429  65.975  1.00  0.00    -0.265 C  
HETATM   17  C   UNL     1      -8.935  12.696  66.706  1.00  0.00    -0.197 A  
HETATM   18  O   UNL     1     -11.163  12.270  65.909  1.00  0.00    -0.311 OA 
HETATM   19  C   UNL     1     -10.049  11.856  66.189  1.00  0.00    -0.228 C  
ENDBRANCH   5   6
ENDBRANCH   4   5
ENDBRANCH   2   4
BRANCH   2  20
HETATM   20  C   UNL     1     -11.503  14.652  69.550  1.00  0.00    -0.297 C  
BRANCH  20  21
HETATM   21  O   UNL     1     -11.273  13.264  69.420  1.00  0.00    -0.233 OA 
BRANCH  21  22
HETATM   22  C   UNL     1     -11.851  12.396  70.319  1.00  0.00    -0.232 A  
HETATM   23  C   UNL     1     -10.867   8.653  70.062  1.00  0.00    -0.226 C  
HETATM   24  C   UNL     1     -10.671  10.099  69.941  1.00  0.00    -0.295 C  
HETATM   25  C   UNL     1     -11.707  11.003  70.526  1.00  0.00    -0.416 A  
HETATM   26  C   UNL     1     -12.595  10.362  71.422  1.00  0.00    -0.434 A  
HETATM   27  C   UNL     1     -11.788   8.194  70.907  1.00  0.00    -0.218 C  
HETATM   28  C   UNL     1     -13.533  11.085  72.168  1.00  0.00    -0.200 A  
HETATM   29  O   UNL     1     -12.626   8.999  71.648  1.00  0.00    -0.314 OA 
HETATM   30  C   UNL     1     -13.618  12.460  72.022  1.00  0.00    -0.349 A  
HETATM   31  C   UNL     1     -11.851   6.720  71.094  1.00  0.00    -0.360 C  
HETATM   32  O   UNL     1     -12.805   6.358  71.977  1.00  0.00    -0.242 OA 
HETATM   33  C   UNL     1     -12.803  13.099  71.090  1.00  0.00    -0.349 A  
HETATM   34  O   UNL     1      -9.612  10.453  69.446  1.00  0.00    -0.217 OA 
HETATM   35  O   UNL     1     -11.124   5.918  70.529  1.00  0.00    -0.311 OA 
ENDBRANCH  21  22
ENDBRANCH  20  21
ENDBRANCH   2  20
TORSDOF 6
ENDMDL
MODEL      101
REMARK 921   NORMALIZED FREE ENERGY PREDICTED BY IDOCK:   -6.69 KCAL/MOL
REMARK 922        TOTAL FREE ENERGY PREDICTED BY IDOCK:  -10.34 KCAL/MOL
REMARK 923 INTER-LIGAND FREE ENERGY PREDICTED BY IDOCK:   -8.14 KCAL/MOL
REMARK 924 INTRA-LIGAND FREE ENERGY PREDICTED BY IDOCK:   -2.20 KCAL/MOL
REMARK 927      BINDING AFFINITY PREDICTED BY RF-SCORE:    0.00 PKD
ROOT
HETATM    1  O   UNL     1     -12.570  12.037  64.907  1.00  0.00    -0.418 OA 
HETATM    2  C   UNL     1     -11.556  12.706  64.132  1.00  0.00    -0.394 C  
HETATM    3  H   UNL     1     -12.534  11.111  64.694  1.00  0.00     0.000 HD 
ENDROOT
BRANCH   2   4
HETATM    4  C   UNL     1     -10.199  12.088  64.464  1.00  0.00    -0.286 C  
BRANCH   4   5
HETATM    5  O   UNL     1     -10.270  11.447  65.744  1.00  0.00    -0.231 OA 
BRANCH   5   6
HETATM    6  C   UNL     1      -9.288  11.714  66.657  1.00  0.00    -0.194 A  
HETATM    7  O   UNL     1      -9.198   7.442  71.554  1.00  0.00    -0.140 OA 
HETATM    8  O   UNL     1      -7.681   9.024  72.106  1.00  0.00    -0.351 OA 
HETATM    9  C   UNL     1      -8.368  12.763  66.505  1.00  0.00     0.220 A  
HETATM   10  C   UNL     1      -7.413  13.033  67.485  1.00  0.00    -0.158 A  
HETATM   11  C   UNL     1      -8.633   8.492  71.307  1.00  0.00    -0.176 C  
HETATM   12  C   UNL     1      -7.363  12.257  68.635  1.00  0.00    -0.106 A  
HETATM   13  O   UNL     1      -8.110  10.467  69.950  1.00  0.00    -0.069 OA 
HETATM   14  C   UNL     1      -8.882   9.335  70.107  1.00  0.00    -0.213 C  
HETATM   15  C   UNL     1      -8.257  11.198  68.795  1.00  0.00    -0.135 A  
HETATM   16  C   UNL     1      -9.833   8.942  69.253  1.00  0.00    -0.176 C  
HETATM   17  C   UNL     1      -9.221  10.917  67.817  1.00  0.00    -0.155 A  
HETATM   18  O   UNL     1     -11.008   9.394  67.304  1.00  0.00    -0.183 OA 
HETATM   19  C   UNL     1     -10.106   9.745  68.048  1.00  0.00    -0.171 C  
ENDBRANCH   5   6
ENDBRANCH   4   5
ENDBRANCH   2   4
BRANCH   2  20
HETATM   20  C   UNL     1     -11.614  14.198  64.477  1.00  0.00    -0.389 C  
BRANCH  20  21
HETATM   21  O   UNL     1     -12.294  14.494  65.680  1.00  0.00    -0.340 OA 
BRANCH  21  22
HETATM   22  C   UNL     1     -11.569  14.841  66.798  1.00  0.00    -0.324 A  
HETATM   23  C   UNL     1      -8.756  17.473  66.345  1.00  0.00    -0.273 C  
HETATM   24  C   UNL     1     -10.032  16.816  66.055  1.00  0.00    -0.313 C  
HETATM   25  C   UNL     1     -10.513  15.764  67.000  1.00  0.00    -0.309 A  
HETATM   26  C   UNL     1      -9.843  15.754  68.246  1.00  0.00    -0.213 A  
HETATM   27  C   UNL     1      -8.210  17.323  67.550  1.00  0.00    -0.195 C  
HETATM   28  C   UNL     1     -10.262  14.931  69.297  1.00  0.00    -0.219 A  
HETATM   29  O   UNL     1      -8.741  16.531  68.545  1.00  0.00    -0.208 OA 
HETATM   30  C   UNL     1     -11.347  14.087  69.123  1.00  0.00    -0.323 A  
HETATM   31  C   UNL     1      -6.989  18.122  67.836  1.00  0.00    -0.209 C  
HETATM   32  O   UNL     1      -6.522  17.910  69.085  1.00  0.00    -0.226 OA 
HETATM   33  C   UNL     1     -11.972  14.029  67.879  1.00  0.00    -0.387 A  
HETATM   34  O   UNL     1     -10.652  17.256  65.099  1.00  0.00    -0.686 OA 
HETATM   35  O   UNL     1      -6.463  18.891  67.049  1.00  0.00    -0.190 OA 
ENDBRANCH  21  22
ENDBRANCH  20  21
ENDBRANCH   2  20
TORSDOF 6
ENDMDL
MODEL      102
REMARK 921   NORMALIZED FREE ENERGY PREDICTED BY IDOCK:   -6.65 KCAL/MOL
REMARK 922        TOTAL FREE ENERGY PREDICTED BY IDOCK:  -10.28 KCAL/MOL
REMARK 923 INTER-LIGAND FREE ENERGY PREDICTED BY IDOCK:   -8.63 KCAL/MOL
REMARK 924 INTRA-LIGAND FREE ENERGY PREDICTED BY IDOCK:   -1.64 KCAL/MOL
REMARK 927      BINDING AFFINITY PREDICTED BY RF-SCORE:    0.00 PKD
ROOT
HETATM    1  O   UNL     1     -11.799   7.063  73.135  1.00  0.00    -0.423 OA 
HETATM    2  C   UNL     1     -11.675   7.696  71.846  1.00  0.00    -0.289 C  
HETATM    3  H   UNL     1     -11.333   6.236  73.098  1.00  0.00     0.000 HD 
ENDROOT
BRANCH   2   4
HETATM    4  C   UNL     1     -10.190   7.882  71.534  1.00  0.00    -0.190 C  
BRANCH   4   5
HETATM    5  O   UNL     1      -9.948   7.539  70.164  1.00  0.00    -0.190 OA 
BRANCH   5   6
HETATM    6  C   UNL     1      -9.318   8.456  69.369  1.00  0.00    -0.154 A  
HETATM    7  O   UNL     1      -8.130   6.188  63.395  1.00  0.00    -0.118 OA 
HETATM    8  O   UNL     1      -7.117   8.208  63.486  1.00  0.00    -0.082 OA 
HETATM    9  C   UNL     1      -9.024   9.762  69.793  1.00  0.00    -0.239 A  
HETATM   10  C   UNL     1      -8.335  10.650  68.968  1.00  0.00    -0.153 A  
HETATM   11  C   UNL     1      -7.825   7.187  64.022  1.00  0.00    -0.113 C  
HETATM   12  C   UNL     1      -7.927  10.247  67.704  1.00  0.00    -0.102 A  
HETATM   13  O   UNL     1      -7.811   8.662  65.982  1.00  0.00    -0.097 OA 
HETATM   14  C   UNL     1      -8.184   7.450  65.441  1.00  0.00    -0.134 C  
HETATM   15  C   UNL     1      -8.226   8.959  67.258  1.00  0.00    -0.104 A  
HETATM   16  C   UNL     1      -8.852   6.497  66.103  1.00  0.00    -0.160 C  
HETATM   17  C   UNL     1      -8.918   8.057  68.078  1.00  0.00    -0.130 A  
HETATM   18  O   UNL     1      -9.802   5.822  68.108  1.00  0.00    -0.122 OA 
HETATM   19  C   UNL     1      -9.233   6.720  67.508  1.00  0.00    -0.122 C  
ENDBRANCH   5   6
ENDBRANCH   4   5
ENDBRANCH   2   4
BRANCH   2  20
HETATM   20  C   UNL     1     -12.426   9.030  71.907  1.00  0.00    -0.384 C  
BRANCH  20  21
HETATM   21  O   UNL     1     -12.416   9.762  70.698  1.00  0.00    -0.242 OA 
BRANCH  21  22
HETATM   22  C   UNL     1     -12.586  11.127  70.732  1.00  0.00    -0.352 A  
HETATM   23  C   UNL     1     -11.174  13.171  67.754  1.00  0.00    -0.308 C  
HETATM   24  C   UNL     1     -11.750  12.001  68.420  1.00  0.00    -0.332 C  
HETATM   25  C   UNL     1     -12.230  12.155  69.826  1.00  0.00    -0.212 A  
HETATM   26  C   UNL     1     -12.377  13.499  70.243  1.00  0.00    -0.300 A  
HETATM   27  C   UNL     1     -11.343  14.374  68.300  1.00  0.00    -0.287 C  
HETATM   28  C   UNL     1     -12.952  13.824  71.477  1.00  0.00    -0.444 A  
HETATM   29  O   UNL     1     -11.984  14.595  69.500  1.00  0.00    -0.297 OA 
HETATM   30  C   UNL     1     -13.374  12.816  72.329  1.00  0.00    -0.563 A  
HETATM   31  C   UNL     1     -10.859  15.540  67.514  1.00  0.00    -0.306 C  
HETATM   32  O   UNL     1     -11.089  16.711  68.145  1.00  0.00    -0.361 OA 
HETATM   33  C   UNL     1     -13.168  11.487  71.968  1.00  0.00    -0.443 A  
HETATM   34  O   UNL     1     -11.877  11.004  67.726  1.00  0.00    -0.605 OA 
HETATM   35  O   UNL     1     -10.325  15.465  66.420  1.00  0.00    -0.276 OA 
ENDBRANCH  21  22
ENDBRANCH  20  21
ENDBRANCH   2  20
TORSDOF 6
ENDMDL
MODEL      103
REMARK 921   NORMALIZED FREE ENERGY PREDICTED BY IDOCK:   -6.62 KCAL/MOL
REMARK 922        TOTAL FREE ENERGY PREDICTED BY IDOCK:  -10.24 KCAL/MOL
REMARK 923 INTER-LIGAND FREE ENERGY PREDICTED BY IDOCK:   -9.31 KCAL/MOL
REMARK 924 INTRA-LIGAND FREE ENERGY PREDICTED BY IDOCK:   -0.93 KCAL/MOL
REMARK 927      BINDING AFFINITY PREDICTED BY RF-SCORE:    0.00 PKD
ROOT
HETATM    1  O   UNL     1     -13.311  12.833  64.888  1.00  0.00    -0.736 OA 
HETATM    2  C   UNL     1     -12.060  13.254  64.310  1.00  0.00    -0.416 C  
HETATM    3  H   UNL     1     -13.708  12.206  64.295  1.00  0.00     0.000 HD 
ENDROOT
BRANCH   2   4
HETATM    4  C   UNL     1     -11.181  12.022  64.097  1.00  0.00    -0.373 C  
BRANCH   4   5
HETATM    5  O   UNL     1     -10.543  11.676  65.333  1.00  0.00    -0.264 OA 
BRANCH   5   6
HETATM    6  C   UNL     1      -9.532  10.756  65.303  1.00  0.00    -0.218 A  
HETATM    7  O   UNL     1      -6.445  10.251  71.000  1.00  0.00    -0.329 OA 
HETATM    8  O   UNL     1      -5.275   8.954  69.564  1.00  0.00    -0.034 OA 
HETATM    9  C   UNL     1      -9.246   9.969  64.176  1.00  0.00    -0.319 A  
HETATM   10  C   UNL     1      -8.174   9.078  64.171  1.00  0.00    -0.166 A  
HETATM   11  C   UNL     1      -6.271   9.815  69.877  1.00  0.00    -0.051 C  
HETATM   12  C   UNL     1      -7.367   8.959  65.294  1.00  0.00    -0.088 A  
HETATM   13  O   UNL     1      -6.814   9.509  67.504  1.00  0.00    -0.080 OA 
HETATM   14  C   UNL     1      -7.113  10.138  68.694  1.00  0.00    -0.074 C  
HETATM   15  C   UNL     1      -7.647   9.718  66.431  1.00  0.00    -0.099 A  
HETATM   16  C   UNL     1      -8.112  11.014  68.858  1.00  0.00    -0.135 C  
HETATM   17  C   UNL     1      -8.722  10.618  66.448  1.00  0.00    -0.155 A  
HETATM   18  O   UNL     1      -9.851  12.190  67.873  1.00  0.00    -0.187 OA 
HETATM   19  C   UNL     1      -8.974  11.356  67.714  1.00  0.00    -0.147 C  
ENDBRANCH   5   6
ENDBRANCH   4   5
ENDBRANCH   2   4
BRANCH   2  20
HETATM   20  C   UNL     1     -11.420  14.265  65.268  1.00  0.00    -0.344 C  
BRANCH  20  21
HETATM   21  O   UNL     1     -11.947  14.243  66.578  1.00  0.00    -0.408 OA 
BRANCH  21  22
HETATM   22  C   UNL     1     -11.444  15.108  67.524  1.00  0.00    -0.298 A  
HETATM   23  C   UNL     1     -12.354  14.416  71.230  1.00  0.00    -0.432 C  
HETATM   24  C   UNL     1     -12.075  14.072  69.834  1.00  0.00    -0.345 C  
HETATM   25  C   UNL     1     -11.549  15.143  68.935  1.00  0.00    -0.361 A  
HETATM   26  C   UNL     1     -11.067  16.285  69.616  1.00  0.00    -0.333 A  
HETATM   27  C   UNL     1     -11.884  15.562  71.720  1.00  0.00    -0.428 C  
HETATM   28  C   UNL     1     -10.411  17.320  68.940  1.00  0.00    -0.352 A  
HETATM   29  O   UNL     1     -11.189  16.492  70.977  1.00  0.00    -0.256 OA 
HETATM   30  C   UNL     1     -10.238  17.245  67.567  1.00  0.00    -0.328 A  
HETATM   31  C   UNL     1     -12.076  15.797  73.175  1.00  0.00    -0.496 C  
HETATM   32  O   UNL     1     -11.554  16.976  73.575  1.00  0.00    -0.045 OA 
HETATM   33  C   UNL     1     -10.772  16.164  66.870  1.00  0.00    -0.247 A  
HETATM   34  O   UNL     1     -12.209  12.894  69.541  1.00  0.00    -0.233 OA 
HETATM   35  O   UNL     1     -12.630  15.020  73.936  1.00  0.00    -0.535 OA 
ENDBRANCH  21  22
ENDBRANCH  20  21
ENDBRANCH   2  20
TORSDOF 6
ENDMDL
MODEL      104
REMARK 921   NORMALIZED FREE ENERGY PREDICTED BY IDOCK:   -6.62 KCAL/MOL
REMARK 922        TOTAL FREE ENERGY PREDICTED BY IDOCK:  -10.24 KCAL/MOL
REMARK 923 INTER-LIGAND FREE ENERGY PREDICTED BY IDOCK:   -9.52 KCAL/MOL
REMARK 924 INTRA-LIGAND FREE ENERGY PREDICTED BY IDOCK:   -0.72 KCAL/MOL
REMARK 927      BINDING AFFINITY PREDICTED BY RF-SCORE:    0.00 PKD
ROOT
HETATM    1  O   UNL     1     -13.163  12.459  64.471  1.00  0.00    -0.834 OA 
HETATM    2  C   UNL     1     -11.812  12.897  64.225  1.00  0.00    -0.395 C  
HETATM    3  H   UNL     1     -13.507  12.110  63.656  1.00  0.00     0.000 HD 
ENDROOT
BRANCH   2   4
HETATM    4  C   UNL     1     -10.998  11.709  63.714  1.00  0.00    -0.422 C  
BRANCH   4   5
HETATM    5  O   UNL     1     -10.661  10.857  64.816  1.00  0.00    -0.292 OA 
BRANCH   5   6
HETATM    6  C   UNL     1      -9.659   9.942  64.644  1.00  0.00    -0.252 A  
HETATM    7  O   UNL     1      -8.895   6.071  69.808  1.00  0.00    -0.131 OA 
HETATM    8  O   UNL     1      -7.199   5.549  68.407  1.00  0.00    -0.071 OA 
HETATM    9  C   UNL     1      -8.928   9.825  63.451  1.00  0.00    -0.271 A  
HETATM   10  C   UNL     1      -7.879   8.912  63.335  1.00  0.00    -0.144 A  
HETATM   11  C   UNL     1      -8.289   6.264  68.769  1.00  0.00    -0.120 C  
HETATM   12  C   UNL     1      -7.544   8.102  64.411  1.00  0.00    -0.115 A  
HETATM   13  O   UNL     1      -7.889   7.327  66.595  1.00  0.00    -0.098 OA 
HETATM   14  C   UNL     1      -8.647   7.282  67.746  1.00  0.00    -0.120 C  
HETATM   15  C   UNL     1      -8.272   8.191  65.598  1.00  0.00    -0.133 A  
HETATM   16  C   UNL     1      -9.685   8.086  68.002  1.00  0.00    -0.184 C  
HETATM   17  C   UNL     1      -9.328   9.104  65.727  1.00  0.00    -0.309 A  
HETATM   18  O   UNL     1     -10.999   9.858  67.282  1.00  0.00    -0.251 OA 
HETATM   19  C   UNL     1     -10.078   9.103  67.011  1.00  0.00    -0.249 C  
ENDBRANCH   5   6
ENDBRANCH   4   5
ENDBRANCH   2   4
BRANCH   2  20
HETATM   20  C   UNL     1     -11.257  13.460  65.538  1.00  0.00    -0.288 C  
BRANCH  20  21
HETATM   21  O   UNL     1     -12.008  14.527  66.080  1.00  0.00    -0.370 OA 
BRANCH  21  22
HETATM   22  C   UNL     1     -11.517  15.216  67.166  1.00  0.00    -0.250 A  
HETATM   23  C   UNL     1      -9.272  18.297  66.452  1.00  0.00    -0.272 C  
HETATM   24  C   UNL     1     -10.339  17.329  66.188  1.00  0.00    -0.317 C  
HETATM   25  C   UNL     1     -10.708  16.373  67.274  1.00  0.00    -0.257 A  
HETATM   26  C   UNL     1     -10.213  16.728  68.551  1.00  0.00    -0.298 A  
HETATM   27  C   UNL     1      -8.863  18.482  67.705  1.00  0.00    -0.275 C  
HETATM   28  C   UNL     1     -10.583  16.024  69.703  1.00  0.00    -0.311 A  
HETATM   29  O   UNL     1      -9.341  17.774  68.787  1.00  0.00    -0.282 OA 
HETATM   30  C   UNL     1     -11.440  14.940  69.603  1.00  0.00    -0.325 A  
HETATM   31  C   UNL     1      -7.879  19.572  67.935  1.00  0.00    -0.295 C  
HETATM   32  O   UNL     1      -7.540  19.689  69.236  1.00  0.00    -0.336 OA 
HETATM   33  C   UNL     1     -11.878  14.530  68.347  1.00  0.00    -0.351 A  
HETATM   34  O   UNL     1     -10.910  17.447  65.115  1.00  0.00    -0.642 OA 
HETATM   35  O   UNL     1      -7.428  20.294  67.060  1.00  0.00    -0.265 OA 
ENDBRANCH  21  22
ENDBRANCH  20  21
ENDBRANCH   2  20
TORSDOF 6
ENDMDL
MODEL      105
REMARK 921   NORMALIZED FREE ENERGY PREDICTED BY IDOCK:   -6.60 KCAL/MOL
REMARK 922        TOTAL FREE ENERGY PREDICTED BY IDOCK:  -10.21 KCAL/MOL
REMARK 923 INTER-LIGAND FREE ENERGY PREDICTED BY IDOCK:   -8.48 KCAL/MOL
REMARK 924 INTRA-LIGAND FREE ENERGY PREDICTED BY IDOCK:   -1.73 KCAL/MOL
REMARK 927      BINDING AFFINITY PREDICTED BY RF-SCORE:    0.00 PKD
ROOT
HETATM    1  O   UNL     1     -12.732  14.695  65.950  1.00  0.00    -0.200 OA 
HETATM    2  C   UNL     1     -11.898  14.901  64.793  1.00  0.00    -0.384 C  
HETATM    3  H   UNL     1     -13.422  14.088  65.705  1.00  0.00     0.000 HD 
ENDROOT
BRANCH   2   4
HETATM    4  C   UNL     1     -11.346  13.549  64.341  1.00  0.00    -0.382 C  
BRANCH   4   5
HETATM    5  O   UNL     1     -11.806  12.527  65.234  1.00  0.00    -0.374 OA 
BRANCH   5   6
HETATM    6  C   UNL     1     -10.987  11.457  65.469  1.00  0.00    -0.183 A  
HETATM    7  O   UNL     1     -11.081   9.557  71.684  1.00  0.00    -0.371 OA 
HETATM    8  O   UNL     1      -9.477   8.306  70.695  1.00  0.00    -0.159 OA 
HETATM    9  C   UNL     1     -10.260  10.813  64.455  1.00  0.00    -0.428 A  
HETATM   10  C   UNL     1      -9.397   9.757  64.746  1.00  0.00    -0.327 A  
HETATM   11  C   UNL     1     -10.424   9.272  70.698  1.00  0.00    -0.262 C  
HETATM   12  C   UNL     1      -9.245   9.329  66.058  1.00  0.00    -0.262 A  
HETATM   13  O   UNL     1      -9.781   9.430  68.336  1.00  0.00    -0.145 OA 
HETATM   14  C   UNL     1     -10.562   9.915  69.364  1.00  0.00    -0.229 C  
HETATM   15  C   UNL     1      -9.973   9.944  67.076  1.00  0.00    -0.200 A  
HETATM   16  C   UNL     1     -11.439  10.918  69.241  1.00  0.00    -0.372 C  
HETATM   17  C   UNL     1     -10.843  11.006  66.796  1.00  0.00    -0.307 A  
HETATM   18  O   UNL     1     -12.383  12.520  67.853  1.00  0.00    -0.245 OA 
HETATM   19  C   UNL     1     -11.612  11.577  67.934  1.00  0.00    -0.282 C  
ENDBRANCH   5   6
ENDBRANCH   4   5
ENDBRANCH   2   4
BRANCH   2  20
HETATM   20  C   UNL     1     -10.786  15.879  65.188  1.00  0.00    -0.429 C  
BRANCH  20  21
HETATM   21  O   UNL     1      -9.537  15.270  65.446  1.00  0.00    -0.279 OA 
BRANCH  21  22
HETATM   22  C   UNL     1      -8.699  15.821  66.389  1.00  0.00    -0.337 A  
HETATM   23  C   UNL     1      -7.072  13.404  68.950  1.00  0.00    -0.084 C  
HETATM   24  C   UNL     1      -7.646  13.800  67.662  1.00  0.00    -0.181 C  
HETATM   25  C   UNL     1      -7.934  15.248  67.434  1.00  0.00    -0.211 A  
HETATM   26  C   UNL     1      -7.312  16.116  68.363  1.00  0.00    -0.140 A  
HETATM   27  C   UNL     1      -6.576  14.343  69.753  1.00  0.00    -0.142 C  
HETATM   28  C   UNL     1      -7.358  17.506  68.212  1.00  0.00    -0.223 A  
HETATM   29  O   UNL     1      -6.616  15.694  69.480  1.00  0.00    -0.157 OA 
HETATM   30  C   UNL     1      -8.040  18.062  67.142  1.00  0.00    -0.225 A  
HETATM   31  C   UNL     1      -5.883  13.876  70.982  1.00  0.00    -0.198 C  
HETATM   32  O   UNL     1      -5.405  14.901  71.720  1.00  0.00    -0.112 OA 
HETATM   33  C   UNL     1      -8.721  17.227  66.260  1.00  0.00    -0.259 A  
HETATM   34  O   UNL     1      -7.756  12.910  66.833  1.00  0.00    -0.019 OA 
HETATM   35  O   UNL     1      -5.743  12.705  71.297  1.00  0.00    -0.372 OA 
ENDBRANCH  21  22
ENDBRANCH  20  21
ENDBRANCH   2  20
TORSDOF 6
ENDMDL
MODEL      106
REMARK 921   NORMALIZED FREE ENERGY PREDICTED BY IDOCK:   -6.58 KCAL/MOL
REMARK 922        TOTAL FREE ENERGY PREDICTED BY IDOCK:  -10.18 KCAL/MOL
REMARK 923 INTER-LIGAND FREE ENERGY PREDICTED BY IDOCK:   -9.69 KCAL/MOL
REMARK 924 INTRA-LIGAND FREE ENERGY PREDICTED BY IDOCK:   -0.49 KCAL/MOL
REMARK 927      BINDING AFFINITY PREDICTED BY RF-SCORE:    0.00 PKD
ROOT
HETATM    1  O   UNL     1     -12.479  14.086  65.321  1.00  0.00    -0.441 OA 
HETATM    2  C   UNL     1     -11.859  13.154  66.228  1.00  0.00    -0.401 C  
HETATM    3  H   UNL     1     -13.402  14.136  65.543  1.00  0.00     0.000 HD 
ENDROOT
BRANCH   2   4
HETATM    4  C   UNL     1     -12.084  13.641  67.659  1.00  0.00    -0.293 C  
BRANCH   4   5
HETATM    5  O   UNL     1     -11.185  12.955  68.540  1.00  0.00    -0.240 OA 
BRANCH   5   6
HETATM    6  C   UNL     1     -11.711  12.303  69.621  1.00  0.00    -0.316 A  
HETATM    7  O   UNL     1      -9.913   6.064  69.897  1.00  0.00    -0.164 OA 
HETATM    8  O   UNL     1     -11.419   6.332  71.562  1.00  0.00    -0.287 OA 
HETATM    9  C   UNL     1     -12.500  12.943  70.590  1.00  0.00    -0.333 A  
HETATM   10  C   UNL     1     -13.060  12.230  71.650  1.00  0.00    -0.408 A  
HETATM   11  C   UNL     1     -10.699   6.769  70.504  1.00  0.00    -0.238 C  
HETATM   12  C   UNL     1     -12.840  10.865  71.759  1.00  0.00    -0.509 A  
HETATM   13  O   UNL     1     -11.855   8.869  71.025  1.00  0.00    -0.283 OA 
HETATM   14  C   UNL     1     -10.979   8.197  70.198  1.00  0.00    -0.223 C  
HETATM   15  C   UNL     1     -12.042  10.215  70.816  1.00  0.00    -0.343 A  
HETATM   16  C   UNL     1     -10.360   8.744  69.145  1.00  0.00    -0.227 C  
HETATM   17  C   UNL     1     -11.475  10.920  69.746  1.00  0.00    -0.390 A  
HETATM   18  O   UNL     1     -10.066  10.626  67.821  1.00  0.00    -0.167 OA 
HETATM   19  C   UNL     1     -10.605  10.158  68.812  1.00  0.00    -0.213 C  
ENDBRANCH   5   6
ENDBRANCH   4   5
ENDBRANCH   2   4
BRANCH   2  20
HETATM   20  C   UNL     1     -10.371  13.073  65.870  1.00  0.00    -0.288 C  
BRANCH  20  21
HETATM   21  O   UNL     1      -9.743  14.327  65.694  1.00  0.00    -0.288 OA 
BRANCH  21  22
HETATM   22  C   UNL     1      -9.073  14.901  66.750  1.00  0.00    -0.270 A  
HETATM   23  C   UNL     1      -8.738  18.765  66.753  1.00  0.00    -0.303 C  
HETATM   24  C   UNL     1      -9.368  17.478  66.455  1.00  0.00    -0.265 C  
HETATM   25  C   UNL     1      -8.792  16.249  67.080  1.00  0.00    -0.212 A  
HETATM   26  C   UNL     1      -7.906  16.507  68.153  1.00  0.00    -0.168 A  
HETATM   27  C   UNL     1      -7.871  18.843  67.761  1.00  0.00    -0.243 C  
HETATM   28  C   UNL     1      -7.390  15.472  68.941  1.00  0.00    -0.150 A  
HETATM   29  O   UNL     1      -7.473  17.765  68.522  1.00  0.00    -0.252 OA 
HETATM   30  C   UNL     1      -7.731  14.158  68.665  1.00  0.00    -0.135 A  
HETATM   31  C   UNL     1      -7.368  20.198  68.108  1.00  0.00    -0.244 C  
HETATM   32  O   UNL     1      -6.508  20.172  69.149  1.00  0.00    -0.315 OA 
HETATM   33  C   UNL     1      -8.542  13.880  67.568  1.00  0.00    -0.195 A  
HETATM   34  O   UNL     1     -10.387  17.527  65.783  1.00  0.00    -0.560 OA 
HETATM   35  O   UNL     1      -7.692  21.226  67.536  1.00  0.00    -0.322 OA 
ENDBRANCH  21  22
ENDBRANCH  20  21
ENDBRANCH   2  20
TORSDOF 6
ENDMDL
MODEL      107
REMARK 921   NORMALIZED FREE ENERGY PREDICTED BY IDOCK:   -6.55 KCAL/MOL
REMARK 922        TOTAL FREE ENERGY PREDICTED BY IDOCK:  -10.14 KCAL/MOL
REMARK 923 INTER-LIGAND FREE ENERGY PREDICTED BY IDOCK:   -9.40 KCAL/MOL
REMARK 924 INTRA-LIGAND FREE ENERGY PREDICTED BY IDOCK:   -0.74 KCAL/MOL
REMARK 927      BINDING AFFINITY PREDICTED BY RF-SCORE:    0.00 PKD
ROOT
HETATM    1  O   UNL     1     -10.191   9.361  67.307  1.00  0.00    -0.212 OA 
HETATM    2  C   UNL     1     -10.677  10.341  68.245  1.00  0.00    -0.237 C  
HETATM    3  H   UNL     1     -10.570   9.559  66.459  1.00  0.00     0.000 HD 
ENDROOT
BRANCH   2   4
HETATM    4  C   UNL     1     -10.285  11.732  67.747  1.00  0.00    -0.191 C  
BRANCH   4   5
HETATM    5  O   UNL     1     -11.464  12.537  67.616  1.00  0.00    -0.290 OA 
BRANCH   5   6
HETATM    6  C   UNL     1     -11.620  13.597  68.466  1.00  0.00    -0.335 A  
HETATM    7  O   UNL     1     -10.098  19.272  65.687  1.00  0.00    -0.444 OA 
HETATM    8  O   UNL     1     -10.498  19.753  67.860  1.00  0.00    -0.420 OA 
HETATM    9  C   UNL     1     -12.117  13.464  69.772  1.00  0.00    -0.374 A  
HETATM   10  C   UNL     1     -12.212  14.564  70.623  1.00  0.00    -0.401 A  
HETATM   11  C   UNL     1     -10.375  18.903  66.814  1.00  0.00    -0.414 C  
HETATM   12  C   UNL     1     -11.812  15.818  70.182  1.00  0.00    -0.369 A  
HETATM   13  O   UNL     1     -10.994  17.256  68.524  1.00  0.00    -0.290 OA 
HETATM   14  C   UNL     1     -10.631  17.494  67.214  1.00  0.00    -0.287 C  
HETATM   15  C   UNL     1     -11.335  15.974  68.881  1.00  0.00    -0.370 A  
HETATM   16  C   UNL     1     -10.501  16.545  66.280  1.00  0.00    -0.285 C  
HETATM   17  C   UNL     1     -11.233  14.875  68.016  1.00  0.00    -0.318 A  
HETATM   18  O   UNL     1     -10.586  14.282  65.778  1.00  0.00    -0.288 OA 
HETATM   19  C   UNL     1     -10.754  15.138  66.633  1.00  0.00    -0.310 C  
ENDBRANCH   5   6
ENDBRANCH   4   5
ENDBRANCH   2   4
BRANCH   2  20
HETATM   20  C   UNL     1     -10.065  10.022  69.614  1.00  0.00    -0.236 C  
BRANCH  20  21
HETATM   21  O   UNL     1     -10.933  10.243  70.707  1.00  0.00    -0.306 OA 
BRANCH  21  22
HETATM   22  C   UNL     1     -11.688   9.200  71.192  1.00  0.00    -0.313 A  
HETATM   23  C   UNL     1      -9.783   6.135  72.616  1.00  0.00    -0.164 C  
HETATM   24  C   UNL     1      -9.990   7.547  72.286  1.00  0.00    -0.181 C  
HETATM   25  C   UNL     1     -11.336   7.967  71.793  1.00  0.00    -0.309 A  
HETATM   26  C   UNL     1     -12.357   7.013  72.015  1.00  0.00    -0.267 A  
HETATM   27  C   UNL     1     -10.842   5.338  72.733  1.00  0.00    -0.261 C  
HETATM   28  C   UNL     1     -13.700   7.300  71.747  1.00  0.00    -0.399 A  
HETATM   29  O   UNL     1     -12.142   5.740  72.506  1.00  0.00    -0.241 OA 
HETATM   30  C   UNL     1     -14.051   8.539  71.234  1.00  0.00    -0.267 A  
HETATM   31  C   UNL     1     -10.588   3.951  73.204  1.00  0.00    -0.183 C  
HETATM   32  O   UNL     1     -11.724   3.228  73.303  1.00  0.00    -0.019 OA 
HETATM   33  C   UNL     1     -13.052   9.463  70.939  1.00  0.00    -0.110 A  
HETATM   34  O   UNL     1      -9.055   8.293  72.534  1.00  0.00    -0.206 OA 
HETATM   35  O   UNL     1      -9.487   3.505  73.484  1.00  0.00    -0.102 OA 
ENDBRANCH  21  22
ENDBRANCH  20  21
ENDBRANCH   2  20
TORSDOF 6
ENDMDL
MODEL      108
REMARK 921   NORMALIZED FREE ENERGY PREDICTED BY IDOCK:   -6.55 KCAL/MOL
REMARK 922        TOTAL FREE ENERGY PREDICTED BY IDOCK:  -10.14 KCAL/MOL
REMARK 923 INTER-LIGAND FREE ENERGY PREDICTED BY IDOCK:   -6.94 KCAL/MOL
REMARK 924 INTRA-LIGAND FREE ENERGY PREDICTED BY IDOCK:   -3.20 KCAL/MOL
REMARK 927      BINDING AFFINITY PREDICTED BY RF-SCORE:    0.00 PKD
ROOT
HETATM    1  O   UNL     1      -9.471  11.843  63.695  1.00  0.00    -0.516 OA 
HETATM    2  C   UNL     1      -9.637  11.158  64.952  1.00  0.00    -0.239 C  
HETATM    3  H   UNL     1      -9.846  12.712  63.788  1.00  0.00     0.000 HD 
ENDROOT
BRANCH   2   4
HETATM    4  C   UNL     1      -8.950  11.972  66.048  1.00  0.00    -0.021 C  
BRANCH   4   5
HETATM    5  O   UNL     1      -9.649  11.785  67.285  1.00  0.00    -0.174 OA 
BRANCH   5   6
HETATM    6  C   UNL     1      -9.033  11.068  68.274  1.00  0.00    -0.155 A  
HETATM    7  O   UNL     1     -13.266   8.207  72.291  1.00  0.00    -0.259 OA 
HETATM    8  O   UNL     1     -11.227   7.829  73.194  1.00  0.00    -0.402 OA 
HETATM    9  C   UNL     1      -7.639  10.925  68.361  1.00  0.00    -0.104 A  
HETATM   10  C   UNL     1      -7.050  10.228  69.415  1.00  0.00    -0.094 A  
HETATM   11  C   UNL     1     -12.058   8.362  72.269  1.00  0.00    -0.392 C  
HETATM   12  C   UNL     1      -7.845   9.663  70.401  1.00  0.00    -0.181 A  
HETATM   13  O   UNL     1      -9.937   9.158  71.327  1.00  0.00    -0.280 OA 
HETATM   14  C   UNL     1     -11.314   9.132  71.237  1.00  0.00    -0.336 C  
HETATM   15  C   UNL     1      -9.233   9.778  70.322  1.00  0.00    -0.172 A  
HETATM   16  C   UNL     1     -12.023   9.747  70.283  1.00  0.00    -0.156 C  
HETATM   17  C   UNL     1      -9.837  10.476  69.268  1.00  0.00    -0.225 A  
HETATM   18  O   UNL     1     -11.991  11.105  68.403  1.00  0.00    -0.561 OA 
HETATM   19  C   UNL     1     -11.324  10.514  69.238  1.00  0.00    -0.262 C  
ENDBRANCH   5   6
ENDBRANCH   4   5
ENDBRANCH   2   4
BRANCH   2  20
HETATM   20  C   UNL     1      -9.031   9.757  64.803  1.00  0.00    -0.225 C  
BRANCH  20  21
HETATM   21  O   UNL     1      -9.626   8.773  65.624  1.00  0.00    -0.184 OA 
BRANCH  21  22
HETATM   22  C   UNL     1      -8.830   8.010  66.449  1.00  0.00    -0.157 A  
HETATM   23  C   UNL     1     -10.553   6.230  69.433  1.00  0.00    -0.330 C  
HETATM   24  C   UNL     1     -10.464   6.808  68.090  1.00  0.00    -0.211 C  
HETATM   25  C   UNL     1      -9.119   7.221  67.588  1.00  0.00    -0.124 A  
HETATM   26  C   UNL     1      -8.037   6.702  68.337  1.00  0.00    -0.115 A  
HETATM   27  C   UNL     1      -9.437   5.840  70.045  1.00  0.00    -0.158 C  
HETATM   28  C   UNL     1      -6.711   6.871  67.923  1.00  0.00    -0.064 A  
HETATM   29  O   UNL     1      -8.172   5.997  69.517  1.00  0.00    -0.111 OA 
HETATM   30  C   UNL     1      -6.435   7.576  66.763  1.00  0.00    -0.056 A  
HETATM   31  C   UNL     1      -9.595   5.135  71.344  1.00  0.00    -0.161 C  
HETATM   32  O   UNL     1      -8.409   4.770  71.874  1.00  0.00    -0.110 OA 
HETATM   33  C   UNL     1      -7.483   8.157  66.053  1.00  0.00    -0.080 A  
HETATM   34  O   UNL     1     -11.502   6.818  67.446  1.00  0.00    -0.159 OA 
HETATM   35  O   UNL     1     -10.666   4.898  71.877  1.00  0.00    -0.163 OA 
ENDBRANCH  21  22
ENDBRANCH  20  21
ENDBRANCH   2  20
TORSDOF 6
ENDMDL
MODEL      109
REMARK 921   NORMALIZED FREE ENERGY PREDICTED BY IDOCK:   -6.54 KCAL/MOL
REMARK 922        TOTAL FREE ENERGY PREDICTED BY IDOCK:  -10.14 KCAL/MOL
REMARK 923 INTER-LIGAND FREE ENERGY PREDICTED BY IDOCK:   -9.17 KCAL/MOL
REMARK 924 INTRA-LIGAND FREE ENERGY PREDICTED BY IDOCK:   -0.96 KCAL/MOL
REMARK 927      BINDING AFFINITY PREDICTED BY RF-SCORE:    0.00 PKD
ROOT
HETATM    1  O   UNL     1     -12.029  12.683  70.571  1.00  0.00    -0.495 OA 
HETATM    2  C   UNL     1     -11.294  11.772  69.731  1.00  0.00    -0.170 C  
HETATM    3  H   UNL     1     -11.858  13.565  70.261  1.00  0.00     0.000 HD 
ENDROOT
BRANCH   2   4
HETATM    4  C   UNL     1     -11.741  11.973  68.283  1.00  0.00    -0.334 C  
BRANCH   4   5
HETATM    5  O   UNL     1     -12.159  13.332  68.101  1.00  0.00    -0.330 OA 
BRANCH   5   6
HETATM    6  C   UNL     1     -11.777  13.979  66.958  1.00  0.00    -0.398 A  
HETATM    7  O   UNL     1      -7.984  19.121  68.144  1.00  0.00    -0.282 OA 
HETATM    8  O   UNL     1      -8.396  19.176  65.921  1.00  0.00    -0.451 OA 
HETATM    9  C   UNL     1     -12.124  13.531  65.674  1.00  0.00    -0.467 A  
HETATM   10  C   UNL     1     -11.757  14.248  64.536  1.00  0.00    -0.431 A  
HETATM   11  C   UNL     1      -8.538  18.658  67.163  1.00  0.00    -0.269 C  
HETATM   12  C   UNL     1     -11.037  15.428  64.663  1.00  0.00    -0.361 A  
HETATM   13  O   UNL     1      -9.928  17.038  65.955  1.00  0.00    -0.462 OA 
HETATM   14  C   UNL     1      -9.429  17.467  67.167  1.00  0.00    -0.259 C  
HETATM   15  C   UNL     1     -10.666  15.879  65.930  1.00  0.00    -0.296 A  
HETATM   16  C   UNL     1      -9.686  16.883  68.342  1.00  0.00    -0.263 C  
HETATM   17  C   UNL     1     -11.030  15.167  67.082  1.00  0.00    -0.326 A  
HETATM   18  O   UNL     1     -10.817  15.204  69.476  1.00  0.00    -0.241 OA 
HETATM   19  C   UNL     1     -10.558  15.696  68.389  1.00  0.00    -0.252 C  
ENDBRANCH   5   6
ENDBRANCH   4   5
ENDBRANCH   2   4
BRANCH   2  20
HETATM   20  C   UNL     1     -11.570  10.349  70.230  1.00  0.00    -0.327 C  
BRANCH  20  21
HETATM   21  O   UNL     1     -11.167   9.329  69.340  1.00  0.00    -0.107 OA 
BRANCH  21  22
HETATM   22  C   UNL     1     -10.272   8.374  69.766  1.00  0.00    -0.207 A  
HETATM   23  C   UNL     1     -11.460   5.934  72.538  1.00  0.00    -0.347 C  
HETATM   24  C   UNL     1     -11.611   6.825  71.385  1.00  0.00    -0.305 C  
HETATM   25  C   UNL     1     -10.373   7.331  70.718  1.00  0.00    -0.212 A  
HETATM   26  C   UNL     1      -9.197   6.627  71.070  1.00  0.00    -0.160 A  
HETATM   27  C   UNL     1     -10.270   5.389  72.782  1.00  0.00    -0.187 C  
HETATM   28  C   UNL     1      -7.977   6.874  70.432  1.00  0.00    -0.114 A  
HETATM   29  O   UNL     1      -9.134   5.653  72.048  1.00  0.00    -0.138 OA 
HETATM   30  C   UNL     1      -7.898   7.841  69.443  1.00  0.00    -0.115 A  
HETATM   31  C   UNL     1     -10.205   4.386  73.878  1.00  0.00    -0.185 C  
HETATM   32  O   UNL     1      -8.962   3.884  74.036  1.00  0.00    -0.091 OA 
HETATM   33  C   UNL     1      -9.028   8.596  69.136  1.00  0.00    -0.142 A  
HETATM   34  O   UNL     1     -12.756   7.010  71.001  1.00  0.00    -0.367 OA 
HETATM   35  O   UNL     1     -11.158   4.039  74.557  1.00  0.00    -0.084 OA 
ENDBRANCH  21  22
ENDBRANCH  20  21
ENDBRANCH   2  20
TORSDOF 6
ENDMDL
MODEL      110
REMARK 921   NORMALIZED FREE ENERGY PREDICTED BY IDOCK:   -6.54 KCAL/MOL
REMARK 922        TOTAL FREE ENERGY PREDICTED BY IDOCK:  -10.13 KCAL/MOL
REMARK 923 INTER-LIGAND FREE ENERGY PREDICTED BY IDOCK:   -9.65 KCAL/MOL
REMARK 924 INTRA-LIGAND FREE ENERGY PREDICTED BY IDOCK:   -0.48 KCAL/MOL
REMARK 927      BINDING AFFINITY PREDICTED BY RF-SCORE:    0.00 PKD
ROOT
HETATM    1  O   UNL     1      -9.573  10.498  66.771  1.00  0.00    -0.163 OA 
HETATM    2  C   UNL     1     -10.221  11.512  67.564  1.00  0.00    -0.184 C  
HETATM    3  H   UNL     1      -8.757  10.271  67.202  1.00  0.00     0.000 HD 
ENDROOT
BRANCH   2   4
HETATM    4  C   UNL     1     -10.444  10.963  68.973  1.00  0.00    -0.219 C  
BRANCH   4   5
HETATM    5  O   UNL     1     -11.153   9.720  68.891  1.00  0.00    -0.191 OA 
BRANCH   5   6
HETATM    6  C   UNL     1     -11.124   8.886  69.974  1.00  0.00    -0.170 A  
HETATM    7  O   UNL     1      -9.046   2.914  68.470  1.00  0.00    -0.126 OA 
HETATM    8  O   UNL     1      -9.696   2.799  70.633  1.00  0.00    -0.134 OA 
HETATM    9  C   UNL     1     -11.450   9.306  71.273  1.00  0.00    -0.418 A  
HETATM   10  C   UNL     1     -11.456   8.410  72.341  1.00  0.00    -0.451 A  
HETATM   11  C   UNL     1      -9.529   3.443  69.455  1.00  0.00    -0.151 C  
HETATM   12  C   UNL     1     -11.137   7.077  72.128  1.00  0.00    -0.279 A  
HETATM   13  O   UNL     1     -10.459   5.314  70.740  1.00  0.00    -0.253 OA 
HETATM   14  C   UNL     1      -9.992   4.855  69.527  1.00  0.00    -0.225 C  
HETATM   15  C   UNL     1     -10.791   6.644  70.847  1.00  0.00    -0.252 A  
HETATM   16  C   UNL     1      -9.920   5.594  68.413  1.00  0.00    -0.201 C  
HETATM   17  C   UNL     1     -10.782   7.535  69.765  1.00  0.00    -0.249 A  
HETATM   18  O   UNL     1     -10.330   7.643  67.407  1.00  0.00    -0.223 OA 
HETATM   19  C   UNL     1     -10.361   6.999  68.444  1.00  0.00    -0.193 C  
ENDBRANCH   5   6
ENDBRANCH   4   5
ENDBRANCH   2   4
BRANCH   2  20
HETATM   20  C   UNL     1     -11.538  11.878  66.869  1.00  0.00    -0.285 C  
BRANCH  20  21
HETATM   21  O   UNL     1     -12.393  12.702  67.634  1.00  0.00    -0.279 OA 
BRANCH  21  22
HETATM   22  C   UNL     1     -11.874  13.806  68.273  1.00  0.00    -0.378 A  
HETATM   23  C   UNL     1     -12.588  14.164  72.068  1.00  0.00    -0.348 C  
HETATM   24  C   UNL     1     -12.363  13.447  70.811  1.00  0.00    -0.354 C  
HETATM   25  C   UNL     1     -11.915  14.232  69.622  1.00  0.00    -0.387 A  
HETATM   26  C   UNL     1     -11.438  15.528  69.931  1.00  0.00    -0.327 A  
HETATM   27  C   UNL     1     -12.133  15.409  72.193  1.00  0.00    -0.407 C  
HETATM   28  C   UNL     1     -10.847  16.343  68.958  1.00  0.00    -0.331 A  
HETATM   29  O   UNL     1     -11.503  16.106  71.184  1.00  0.00    -0.413 OA 
HETATM   30  C   UNL     1     -10.736  15.890  67.654  1.00  0.00    -0.312 A  
HETATM   31  C   UNL     1     -12.264  16.039  73.533  1.00  0.00    -0.523 C  
HETATM   32  O   UNL     1     -11.762  17.292  73.560  1.00  0.00    -0.037 OA 
HETATM   33  C   UNL     1     -11.267  14.648  67.316  1.00  0.00    -0.344 A  
HETATM   34  O   UNL     1     -12.473  12.232  70.865  1.00  0.00    -0.371 OA 
HETATM   35  O   UNL     1     -12.757  15.497  74.509  1.00  0.00    -0.469 OA 
ENDBRANCH  21  22
ENDBRANCH  20  21
ENDBRANCH   2  20
TORSDOF 6
ENDMDL
MODEL      111
REMARK 921   NORMALIZED FREE ENERGY PREDICTED BY IDOCK:   -6.52 KCAL/MOL
REMARK 922        TOTAL FREE ENERGY PREDICTED BY IDOCK:  -10.10 KCAL/MOL
REMARK 923 INTER-LIGAND FREE ENERGY PREDICTED BY IDOCK:   -9.21 KCAL/MOL
REMARK 924 INTRA-LIGAND FREE ENERGY PREDICTED BY IDOCK:   -0.90 KCAL/MOL
REMARK 927      BINDING AFFINITY PREDICTED BY RF-SCORE:    0.00 PKD
ROOT
HETATM    1  O   UNL     1      -7.612  11.634  65.664  1.00  0.00    -0.115 OA 
HETATM    2  C   UNL     1      -8.877  11.122  66.128  1.00  0.00    -0.190 C  
HETATM    3  H   UNL     1      -6.925  11.177  66.136  1.00  0.00     0.000 HD 
ENDROOT
BRANCH   2   4
HETATM    4  C   UNL     1      -8.913   9.613  65.887  1.00  0.00    -0.167 C  
BRANCH   4   5
HETATM    5  O   UNL     1      -8.593   8.931  67.106  1.00  0.00    -0.110 OA 
BRANCH   5   6
HETATM    6  C   UNL     1      -9.313   7.814  67.431  1.00  0.00    -0.141 A  
HETATM    7  O   UNL     1     -13.088   8.704  72.646  1.00  0.00    -0.348 OA 
HETATM    8  O   UNL     1     -13.276   6.510  72.133  1.00  0.00    -0.125 OA 
HETATM    9  C   UNL     1      -9.277   6.634  66.672  1.00  0.00    -0.179 A  
HETATM   10  C   UNL     1      -9.988   5.501  67.066  1.00  0.00    -0.198 A  
HETATM   11  C   UNL     1     -12.772   7.752  71.955  1.00  0.00    -0.302 C  
HETATM   12  C   UNL     1     -10.747   5.529  68.228  1.00  0.00    -0.155 A  
HETATM   13  O   UNL     1     -11.613   6.642  70.099  1.00  0.00    -0.382 OA 
HETATM   14  C   UNL     1     -11.813   7.802  70.819  1.00  0.00    -0.187 C  
HETATM   15  C   UNL     1     -10.811   6.699  68.985  1.00  0.00    -0.277 A  
HETATM   16  C   UNL     1     -11.209   8.968  70.561  1.00  0.00    -0.301 C  
HETATM   17  C   UNL     1     -10.100   7.845  68.599  1.00  0.00    -0.210 A  
HETATM   18  O   UNL     1      -9.683  10.121  69.249  1.00  0.00    -0.201 OA 
HETATM   19  C   UNL     1     -10.258   9.061  69.439  1.00  0.00    -0.204 C  
ENDBRANCH   5   6
ENDBRANCH   4   5
ENDBRANCH   2   4
BRANCH   2  20
HETATM   20  C   UNL     1      -9.986  11.857  65.366  1.00  0.00    -0.252 C  
BRANCH  20  21
HETATM   21  O   UNL     1     -11.195  11.995  66.084  1.00  0.00    -0.316 OA 
BRANCH  21  22
HETATM   22  C   UNL     1     -11.336  13.033  66.977  1.00  0.00    -0.301 A  
HETATM   23  C   UNL     1     -10.467  16.596  65.715  1.00  0.00    -0.324 C  
HETATM   24  C   UNL     1     -10.927  15.211  65.598  1.00  0.00    -0.355 C  
HETATM   25  C   UNL     1     -11.138  14.430  66.854  1.00  0.00    -0.325 A  
HETATM   26  C   UNL     1     -11.187  15.221  68.026  1.00  0.00    -0.326 A  
HETATM   27  C   UNL     1     -10.515  17.196  66.902  1.00  0.00    -0.274 C  
HETATM   28  C   UNL     1     -11.520  14.670  69.269  1.00  0.00    -0.322 A  
HETATM   29  O   UNL     1     -10.922  16.576  68.064  1.00  0.00    -0.352 OA 
HETATM   30  C   UNL     1     -11.793  13.315  69.372  1.00  0.00    -0.386 A  
HETATM   31  C   UNL     1     -10.168  18.641  66.938  1.00  0.00    -0.385 C  
HETATM   32  O   UNL     1     -10.262  19.158  68.182  1.00  0.00    -0.372 OA 
HETATM   33  C   UNL     1     -11.676  12.508  68.243  1.00  0.00    -0.390 A  
HETATM   34  O   UNL     1     -11.194  14.833  64.468  1.00  0.00    -0.349 OA 
HETATM   35  O   UNL     1      -9.845  19.301  65.963  1.00  0.00    -0.384 OA 
ENDBRANCH  21  22
ENDBRANCH  20  21
ENDBRANCH   2  20
TORSDOF 6
ENDMDL
MODEL      112
REMARK 921   NORMALIZED FREE ENERGY PREDICTED BY IDOCK:   -6.52 KCAL/MOL
REMARK 922        TOTAL FREE ENERGY PREDICTED BY IDOCK:  -10.10 KCAL/MOL
REMARK 923 INTER-LIGAND FREE ENERGY PREDICTED BY IDOCK:   -9.34 KCAL/MOL
REMARK 924 INTRA-LIGAND FREE ENERGY PREDICTED BY IDOCK:   -0.76 KCAL/MOL
REMARK 927      BINDING AFFINITY PREDICTED BY RF-SCORE:    0.00 PKD
ROOT
HETATM    1  O   UNL     1     -10.563   9.782  66.984  1.00  0.00    -0.239 OA 
HETATM    2  C   UNL     1     -10.992  11.158  66.958  1.00  0.00    -0.289 C  
HETATM    3  H   UNL     1     -10.202   9.575  66.130  1.00  0.00     0.000 HD 
ENDROOT
BRANCH   2   4
HETATM    4  C   UNL     1      -9.792  12.038  66.608  1.00  0.00    -0.204 C  
BRANCH   4   5
HETATM    5  O   UNL     1      -9.911  13.293  67.290  1.00  0.00    -0.225 OA 
BRANCH   5   6
HETATM    6  C   UNL     1      -8.806  14.096  67.362  1.00  0.00    -0.206 A  
HETATM    7  O   UNL     1     -10.188  20.350  66.262  1.00  0.00    -0.369 OA 
HETATM    8  O   UNL     1      -7.935  20.249  66.414  1.00  0.00    -0.273 OA 
HETATM    9  C   UNL     1      -7.532  13.615  67.701  1.00  0.00    -0.191 A  
HETATM   10  C   UNL     1      -6.422  14.459  67.714  1.00  0.00    -0.181 A  
HETATM   11  C   UNL     1      -9.170  19.697  66.400  1.00  0.00    -0.381 C  
HETATM   12  C   UNL     1      -6.568  15.800  67.387  1.00  0.00    -0.215 A  
HETATM   13  O   UNL     1      -7.882  17.646  66.790  1.00  0.00    -0.207 OA 
HETATM   14  C   UNL     1      -9.118  18.223  66.587  1.00  0.00    -0.288 C  
HETATM   15  C   UNL     1      -7.830  16.301  67.067  1.00  0.00    -0.218 A  
HETATM   16  C   UNL     1     -10.273  17.547  66.552  1.00  0.00    -0.342 C  
HETATM   17  C   UNL     1      -8.953  15.462  67.050  1.00  0.00    -0.253 A  
HETATM   18  O   UNL     1     -11.325  15.483  66.659  1.00  0.00    -0.197 OA 
HETATM   19  C   UNL     1     -10.267  16.086  66.740  1.00  0.00    -0.274 C  
ENDBRANCH   5   6
ENDBRANCH   4   5
ENDBRANCH   2   4
BRANCH   2  20
HETATM   20  C   UNL     1     -11.574  11.492  68.337  1.00  0.00    -0.308 C  
BRANCH  20  21
HETATM   21  O   UNL     1     -10.755  11.110  69.424  1.00  0.00    -0.224 OA 
BRANCH  21  22
HETATM   22  C   UNL     1     -11.301  10.383  70.457  1.00  0.00    -0.341 A  
HETATM   23  C   UNL     1      -9.061   7.675  72.100  1.00  0.00    -0.180 C  
HETATM   24  C   UNL     1      -9.349   8.931  71.403  1.00  0.00    -0.268 C  
HETATM   25  C   UNL     1     -10.775   9.359  71.282  1.00  0.00    -0.421 A  
HETATM   26  C   UNL     1     -11.661   8.671  72.144  1.00  0.00    -0.371 A  
HETATM   27  C   UNL     1     -10.019   7.106  72.830  1.00  0.00    -0.185 C  
HETATM   28  C   UNL     1     -13.005   9.044  72.264  1.00  0.00    -0.490 A  
HETATM   29  O   UNL     1     -11.304   7.594  72.932  1.00  0.00    -0.369 OA 
HETATM   30  C   UNL     1     -13.497  10.099  71.514  1.00  0.00    -0.351 A  
HETATM   31  C   UNL     1      -9.634   5.911  73.626  1.00  0.00    -0.143 C  
HETATM   32  O   UNL     1     -10.668   5.419  74.340  1.00  0.00    -0.280 OA 
HETATM   33  C   UNL     1     -12.658  10.740  70.605  1.00  0.00    -0.446 A  
HETATM   34  O   UNL     1      -8.375   9.580  71.054  1.00  0.00    -0.294 OA 
HETATM   35  O   UNL     1      -8.515   5.426  73.651  1.00  0.00    -0.112 OA 
ENDBRANCH  21  22
ENDBRANCH  20  21
ENDBRANCH   2  20
TORSDOF 6
ENDMDL
MODEL      113
REMARK 921   NORMALIZED FREE ENERGY PREDICTED BY IDOCK:   -6.51 KCAL/MOL
REMARK 922        TOTAL FREE ENERGY PREDICTED BY IDOCK:  -10.09 KCAL/MOL
REMARK 923 INTER-LIGAND FREE ENERGY PREDICTED BY IDOCK:   -8.36 KCAL/MOL
REMARK 924 INTRA-LIGAND FREE ENERGY PREDICTED BY IDOCK:   -1.73 KCAL/MOL
REMARK 927      BINDING AFFINITY PREDICTED BY RF-SCORE:    0.00 PKD
ROOT
HETATM    1  O   UNL     1     -10.449  16.681  65.563  1.00  0.00    -0.509 OA 
HETATM    2  C   UNL     1     -10.525  15.411  66.240  1.00  0.00    -0.303 C  
HETATM    3  H   UNL     1     -11.314  17.074  65.586  1.00  0.00     0.000 HD 
ENDROOT
BRANCH   2   4
HETATM    4  C   UNL     1     -11.015  15.647  67.668  1.00  0.00    -0.315 C  
BRANCH   4   5
HETATM    5  O   UNL     1     -11.954  14.623  68.022  1.00  0.00    -0.326 OA 
BRANCH   5   6
HETATM    6  C   UNL     1     -12.250  14.447  69.346  1.00  0.00    -0.266 A  
HETATM    7  O   UNL     1     -12.371   8.181  71.067  1.00  0.00    -0.258 OA 
HETATM    8  O   UNL     1     -13.080   9.320  72.887  1.00  0.00    -0.257 OA 
HETATM    9  C   UNL     1     -12.443  15.516  70.235  1.00  0.00    -0.403 A  
HETATM   10  C   UNL     1     -12.795  15.292  71.566  1.00  0.00    -0.469 A  
HETATM   11  C   UNL     1     -12.664   9.235  71.603  1.00  0.00    -0.364 C  
HETATM   12  C   UNL     1     -12.961  13.995  72.030  1.00  0.00    -0.450 A  
HETATM   13  O   UNL     1     -12.910  11.673  71.723  1.00  0.00    -0.381 OA 
HETATM   14  C   UNL     1     -12.601  10.571  70.953  1.00  0.00    -0.398 C  
HETATM   15  C   UNL     1     -12.755  12.919  71.166  1.00  0.00    -0.276 A  
HETATM   16  C   UNL     1     -12.242  10.623  69.665  1.00  0.00    -0.277 C  
HETATM   17  C   UNL     1     -12.401  13.131  69.826  1.00  0.00    -0.164 A  
HETATM   18  O   UNL     1     -11.875  11.951  67.798  1.00  0.00    -0.518 OA 
HETATM   19  C   UNL     1     -12.160  11.928  68.986  1.00  0.00    -0.186 C  
ENDBRANCH   5   6
ENDBRANCH   4   5
ENDBRANCH   2   4
BRANCH   2  20
HETATM   20  C   UNL     1      -9.129  14.778  66.203  1.00  0.00    -0.126 C  
BRANCH  20  21
HETATM   21  O   UNL     1      -9.086  13.434  66.639  1.00  0.00    -0.234 OA 
BRANCH  21  22
HETATM   22  C   UNL     1      -8.138  13.053  67.561  1.00  0.00    -0.179 A  
HETATM   23  C   UNL     1      -8.592   9.592  69.252  1.00  0.00    -0.149 C  
HETATM   24  C   UNL     1      -8.708  10.582  68.179  1.00  0.00    -0.130 C  
HETATM   25  C   UNL     1      -7.978  11.876  68.333  1.00  0.00    -0.154 A  
HETATM   26  C   UNL     1      -6.989  11.867  69.344  1.00  0.00    -0.001 A  
HETATM   27  C   UNL     1      -7.645   9.747  70.175  1.00  0.00    -0.171 C  
HETATM   28  C   UNL     1      -6.116  12.945  69.526  1.00  0.00    -0.117 A  
HETATM   29  O   UNL     1      -6.788  10.825  70.229  1.00  0.00    -0.234 OA 
HETATM   30  C   UNL     1      -6.222  14.064  68.715  1.00  0.00    -0.087 A  
HETATM   31  C   UNL     1      -7.481   8.643  71.158  1.00  0.00    -0.095 C  
HETATM   32  O   UNL     1      -6.489   8.889  72.040  1.00  0.00    -0.129 OA 
HETATM   33  C   UNL     1      -7.238  14.122  67.764  1.00  0.00    -0.187 A  
HETATM   34  O   UNL     1      -9.328  10.224  67.190  1.00  0.00    -0.151 OA 
HETATM   35  O   UNL     1      -8.148   7.622  71.172  1.00  0.00    -0.096 OA 
ENDBRANCH  21  22
ENDBRANCH  20  21
ENDBRANCH   2  20
TORSDOF 6
ENDMDL
MODEL      114
REMARK 921   NORMALIZED FREE ENERGY PREDICTED BY IDOCK:   -6.51 KCAL/MOL
REMARK 922        TOTAL FREE ENERGY PREDICTED BY IDOCK:  -10.08 KCAL/MOL
REMARK 923 INTER-LIGAND FREE ENERGY PREDICTED BY IDOCK:   -9.15 KCAL/MOL
REMARK 924 INTRA-LIGAND FREE ENERGY PREDICTED BY IDOCK:   -0.93 KCAL/MOL
REMARK 927      BINDING AFFINITY PREDICTED BY RF-SCORE:    0.00 PKD
ROOT
HETATM    1  O   UNL     1     -13.030  10.441  70.431  1.00  0.00    -0.504 OA 
HETATM    2  C   UNL     1     -12.152  10.783  69.340  1.00  0.00    -0.244 C  
HETATM    3  H   UNL     1     -13.187   9.504  70.392  1.00  0.00     0.000 HD 
ENDROOT
BRANCH   2   4
HETATM    4  C   UNL     1     -10.863   9.973  69.476  1.00  0.00    -0.253 C  
BRANCH   4   5
HETATM    5  O   UNL     1     -10.639   9.669  70.858  1.00  0.00    -0.304 OA 
BRANCH   5   6
HETATM    6  C   UNL     1      -9.590   8.851  71.178  1.00  0.00    -0.272 A  
HETATM    7  O   UNL     1     -11.529   3.119  73.549  1.00  0.00    -0.209 OA 
HETATM    8  O   UNL     1      -9.278   3.131  73.766  1.00  0.00    -0.085 OA 
HETATM    9  C   UNL     1      -8.250   9.202  70.954  1.00  0.00    -0.220 A  
HETATM   10  C   UNL     1      -7.209   8.360  71.343  1.00  0.00    -0.086 A  
HETATM   11  C   UNL     1     -10.462   3.693  73.429  1.00  0.00    -0.179 C  
HETATM   12  C   UNL     1      -7.491   7.151  71.963  1.00  0.00    -0.085 A  
HETATM   13  O   UNL     1      -8.999   5.548  72.767  1.00  0.00    -0.123 OA 
HETATM   14  C   UNL     1     -10.286   5.069  72.893  1.00  0.00    -0.193 C  
HETATM   15  C   UNL     1      -8.818   6.776  72.177  1.00  0.00    -0.133 A  
HETATM   16  C   UNL     1     -11.386   5.755  72.560  1.00  0.00    -0.358 C  
HETATM   17  C   UNL     1      -9.873   7.615  71.791  1.00  0.00    -0.200 A  
HETATM   18  O   UNL     1     -12.273   7.745  71.763  1.00  0.00    -0.286 OA 
HETATM   19  C   UNL     1     -11.256   7.119  72.018  1.00  0.00    -0.251 C  
ENDBRANCH   5   6
ENDBRANCH   4   5
ENDBRANCH   2   4
BRANCH   2  20
HETATM   20  C   UNL     1     -11.898  12.293  69.401  1.00  0.00    -0.310 C  
BRANCH  20  21
HETATM   21  O   UNL     1     -10.650  12.697  68.874  1.00  0.00    -0.212 OA 
BRANCH  21  22
HETATM   22  C   UNL     1     -10.617  13.548  67.793  1.00  0.00    -0.246 A  
HETATM   23  C   UNL     1     -10.168  17.331  68.519  1.00  0.00    -0.358 C  
HETATM   24  C   UNL     1     -10.012  15.895  68.759  1.00  0.00    -0.220 C  
HETATM   25  C   UNL     1     -10.446  14.949  67.688  1.00  0.00    -0.249 A  
HETATM   26  C   UNL     1     -10.652  15.558  66.427  1.00  0.00    -0.311 A  
HETATM   27  C   UNL     1     -10.421  17.756  67.283  1.00  0.00    -0.353 C  
HETATM   28  C   UNL     1     -10.920  14.800  65.282  1.00  0.00    -0.382 A  
HETATM   29  O   UNL     1     -10.609  16.920  66.202  1.00  0.00    -0.285 OA 
HETATM   30  C   UNL     1     -11.007  13.420  65.373  1.00  0.00    -0.297 A  
HETATM   31  C   UNL     1     -10.432  19.227  67.068  1.00  0.00    -0.456 C  
HETATM   32  O   UNL     1     -10.684  19.554  65.783  1.00  0.00    -0.503 OA 
HETATM   33  C   UNL     1     -10.882  12.810  66.618  1.00  0.00    -0.288 A  
HETATM   34  O   UNL     1      -9.445  15.588  69.797  1.00  0.00    -0.285 OA 
HETATM   35  O   UNL     1     -10.228  20.056  67.940  1.00  0.00    -0.414 OA 
ENDBRANCH  21  22
ENDBRANCH  20  21
ENDBRANCH   2  20
TORSDOF 6
ENDMDL
MODEL      115
REMARK 921   NORMALIZED FREE ENERGY PREDICTED BY IDOCK:   -6.49 KCAL/MOL
REMARK 922        TOTAL FREE ENERGY PREDICTED BY IDOCK:  -10.06 KCAL/MOL
REMARK 923 INTER-LIGAND FREE ENERGY PREDICTED BY IDOCK:   -9.33 KCAL/MOL
REMARK 924 INTRA-LIGAND FREE ENERGY PREDICTED BY IDOCK:   -0.72 KCAL/MOL
REMARK 927      BINDING AFFINITY PREDICTED BY RF-SCORE:    0.00 PKD
ROOT
HETATM    1  O   UNL     1     -11.782  12.693  62.894  1.00  0.00    -0.718 OA 
HETATM    2  C   UNL     1     -11.739  11.939  64.121  1.00  0.00    -0.340 C  
HETATM    3  H   UNL     1     -12.691  12.907  62.717  1.00  0.00     0.000 HD 
ENDROOT
BRANCH   2   4
HETATM    4  C   UNL     1     -12.363  12.781  65.234  1.00  0.00    -0.488 C  
BRANCH   4   5
HETATM    5  O   UNL     1     -11.447  13.817  65.614  1.00  0.00    -0.304 OA 
BRANCH   5   6
HETATM    6  C   UNL     1     -11.514  14.302  66.891  1.00  0.00    -0.363 A  
HETATM    7  O   UNL     1      -9.994  20.611  67.248  1.00  0.00    -0.448 OA 
HETATM    8  O   UNL     1     -10.237  19.927  69.390  1.00  0.00    -0.334 OA 
HETATM    9  C   UNL     1     -11.929  13.525  67.984  1.00  0.00    -0.372 A  
HETATM   10  C   UNL     1     -11.934  14.044  69.278  1.00  0.00    -0.396 A  
HETATM   11  C   UNL     1     -10.209  19.722  68.053  1.00  0.00    -0.451 C  
HETATM   12  C   UNL     1     -11.523  15.351  69.501  1.00  0.00    -0.330 A  
HETATM   13  O   UNL     1     -10.768  17.434  68.740  1.00  0.00    -0.309 OA 
HETATM   14  C   UNL     1     -10.484  18.302  67.706  1.00  0.00    -0.410 C  
HETATM   15  C   UNL     1     -11.126  16.145  68.425  1.00  0.00    -0.359 A  
HETATM   16  C   UNL     1     -10.445  17.956  66.414  1.00  0.00    -0.318 C  
HETATM   17  C   UNL     1     -11.116  15.634  67.120  1.00  0.00    -0.218 A  
HETATM   18  O   UNL     1     -10.635  16.255  64.848  1.00  0.00    -0.650 OA 
HETATM   19  C   UNL     1     -10.720  16.561  66.027  1.00  0.00    -0.177 C  
ENDBRANCH   5   6
ENDBRANCH   4   5
ENDBRANCH   2   4
BRANCH   2  20
HETATM   20  C   UNL     1     -10.273  11.595  64.407  1.00  0.00    -0.300 C  
BRANCH  20  21
HETATM   21  O   UNL     1     -10.061  10.273  64.858  1.00  0.00    -0.334 OA 
BRANCH  21  22
HETATM   22  C   UNL     1      -9.829  10.044  66.195  1.00  0.00    -0.246 A  
HETATM   23  C   UNL     1      -7.031  12.123  67.896  1.00  0.00    -0.099 C  
HETATM   24  C   UNL     1      -8.099  11.855  66.931  1.00  0.00    -0.146 C  
HETATM   25  C   UNL     1      -8.926  10.625  67.119  1.00  0.00    -0.143 A  
HETATM   26  C   UNL     1      -8.799  10.031  68.397  1.00  0.00    -0.117 A  
HETATM   27  C   UNL     1      -7.004  11.439  69.038  1.00  0.00    -0.106 C  
HETATM   28  C   UNL     1      -9.608   8.959  68.791  1.00  0.00    -0.159 A  
HETATM   29  O   UNL     1      -7.894  10.436  69.358  1.00  0.00    -0.139 OA 
HETATM   30  C   UNL     1     -10.548   8.444  67.912  1.00  0.00    -0.218 A  
HETATM   31  C   UNL     1      -5.984  11.847  70.040  1.00  0.00    -0.159 C  
HETATM   32  O   UNL     1      -6.048  11.104  71.165  1.00  0.00    -0.353 OA 
HETATM   33  C   UNL     1     -10.635   8.967  66.624  1.00  0.00    -0.150 A  
HETATM   34  O   UNL     1      -8.288  12.722  66.092  1.00  0.00     0.399 OA 
HETATM   35  O   UNL     1      -5.182  12.753  69.882  1.00  0.00    -0.079 OA 
ENDBRANCH  21  22
ENDBRANCH  20  21
ENDBRANCH   2  20
TORSDOF 6
ENDMDL
MODEL      116
REMARK 921   NORMALIZED FREE ENERGY PREDICTED BY IDOCK:   -6.46 KCAL/MOL
REMARK 922        TOTAL FREE ENERGY PREDICTED BY IDOCK:  -10.02 KCAL/MOL
REMARK 923 INTER-LIGAND FREE ENERGY PREDICTED BY IDOCK:   -8.86 KCAL/MOL
REMARK 924 INTRA-LIGAND FREE ENERGY PREDICTED BY IDOCK:   -1.15 KCAL/MOL
REMARK 927      BINDING AFFINITY PREDICTED BY RF-SCORE:    0.00 PKD
ROOT
HETATM    1  O   UNL     1     -13.294  10.870  72.133  1.00  0.00    -0.586 OA 
HETATM    2  C   UNL     1     -12.080  10.302  71.603  1.00  0.00    -0.228 C  
HETATM    3  H   UNL     1     -13.344  11.772  71.839  1.00  0.00     0.000 HD 
ENDROOT
BRANCH   2   4
HETATM    4  C   UNL     1     -12.112  10.414  70.079  1.00  0.00    -0.222 C  
BRANCH   4   5
HETATM    5  O   UNL     1     -12.034  11.795  69.704  1.00  0.00    -0.306 OA 
BRANCH   5   6
HETATM    6  C   UNL     1     -11.579  12.099  68.450  1.00  0.00    -0.327 A  
HETATM    7  O   UNL     1     -10.442  18.451  67.678  1.00  0.00    -0.388 OA 
HETATM    8  O   UNL     1     -10.144  17.533  65.634  1.00  0.00    -0.574 OA 
HETATM    9  C   UNL     1     -11.330  11.126  67.469  1.00  0.00    -0.351 A  
HETATM   10  C   UNL     1     -10.916  11.483  66.187  1.00  0.00    -0.320 A  
HETATM   11  C   UNL     1     -10.464  17.478  66.947  1.00  0.00    -0.285 C  
HETATM   12  C   UNL     1     -10.743  12.822  65.863  1.00  0.00    -0.294 A  
HETATM   13  O   UNL     1     -10.738  15.096  66.426  1.00  0.00    -0.305 OA 
HETATM   14  C   UNL     1     -10.823  16.098  67.371  1.00  0.00    -0.265 C  
HETATM   15  C   UNL     1     -10.966  13.802  66.830  1.00  0.00    -0.304 A  
HETATM   16  C   UNL     1     -11.201  15.912  68.641  1.00  0.00    -0.360 C  
HETATM   17  C   UNL     1     -11.384  13.455  68.123  1.00  0.00    -0.321 A  
HETATM   18  O   UNL     1     -11.943  14.419  70.253  1.00  0.00    -0.282 OA 
HETATM   19  C   UNL     1     -11.558  14.560  69.103  1.00  0.00    -0.298 C  
ENDBRANCH   5   6
ENDBRANCH   4   5
ENDBRANCH   2   4
BRANCH   2  20
HETATM   20  C   UNL     1     -12.000   8.847  72.077  1.00  0.00    -0.369 C  
BRANCH  20  21
HETATM   21  O   UNL     1     -10.688   8.326  72.143  1.00  0.00    -0.269 OA 
BRANCH  21  22
HETATM   22  C   UNL     1     -10.182   7.630  71.068  1.00  0.00    -0.194 A  
HETATM   23  C   UNL     1      -7.543   9.428  68.867  1.00  0.00    -0.075 C  
HETATM   24  C   UNL     1      -8.269   9.118  70.101  1.00  0.00    -0.155 C  
HETATM   25  C   UNL     1      -9.210   7.959  70.092  1.00  0.00    -0.153 A  
HETATM   26  C   UNL     1      -9.045   7.087  68.990  1.00  0.00    -0.135 A  
HETATM   27  C   UNL     1      -7.526   8.531  67.885  1.00  0.00    -0.097 C  
HETATM   28  C   UNL     1      -9.744   5.878  68.900  1.00  0.00    -0.168 A  
HETATM   29  O   UNL     1      -8.203   7.331  67.922  1.00  0.00    -0.118 OA 
HETATM   30  C   UNL     1     -10.636   5.520  69.899  1.00  0.00    -0.387 A  
HETATM   31  C   UNL     1      -6.661   8.835  66.714  1.00  0.00    -0.069 C  
HETATM   32  O   UNL     1      -6.702   7.860  65.782  1.00  0.00    -0.045 OA 
HETATM   33  C   UNL     1     -10.867   6.400  70.953  1.00  0.00    -0.316 A  
HETATM   34  O   UNL     1      -7.970   9.789  71.077  1.00  0.00    -0.242 OA 
HETATM   35  O   UNL     1      -5.979   9.841  66.599  1.00  0.00    -0.057 OA 
ENDBRANCH  21  22
ENDBRANCH  20  21
ENDBRANCH   2  20
TORSDOF 6
ENDMDL
MODEL      117
REMARK 921   NORMALIZED FREE ENERGY PREDICTED BY IDOCK:   -6.45 KCAL/MOL
REMARK 922        TOTAL FREE ENERGY PREDICTED BY IDOCK:  -10.01 KCAL/MOL
REMARK 923 INTER-LIGAND FREE ENERGY PREDICTED BY IDOCK:   -8.95 KCAL/MOL
REMARK 924 INTRA-LIGAND FREE ENERGY PREDICTED BY IDOCK:   -1.06 KCAL/MOL
REMARK 927      BINDING AFFINITY PREDICTED BY RF-SCORE:    0.00 PKD
ROOT
HETATM    1  O   UNL     1      -9.617  13.492  65.256  1.00  0.00    -0.522 OA 
HETATM    2  C   UNL     1     -10.992  13.507  64.824  1.00  0.00    -0.373 C  
HETATM    3  H   UNL     1      -9.159  14.179  64.786  1.00  0.00     0.000 HD 
ENDROOT
BRANCH   2   4
HETATM    4  C   UNL     1     -11.578  14.891  65.104  1.00  0.00    -0.330 C  
BRANCH   4   5
HETATM    5  O   UNL     1     -11.207  15.303  66.426  1.00  0.00    -0.315 OA 
BRANCH   5   6
HETATM    6  C   UNL     1     -10.476  16.452  66.563  1.00  0.00    -0.282 A  
HETATM    7  O   UNL     1      -5.342  15.692  70.475  1.00  0.00    -0.148 OA 
HETATM    8  O   UNL     1      -5.408  17.899  69.989  1.00  0.00    -0.203 OA 
HETATM    9  C   UNL     1     -10.780  17.638  65.878  1.00  0.00    -0.113 A  
HETATM   10  C   UNL     1     -10.039  18.801  66.086  1.00  0.00    -0.421 A  
HETATM   11  C   UNL     1      -5.884  16.635  69.927  1.00  0.00    -0.217 C  
HETATM   12  C   UNL     1      -8.982  18.797  66.984  1.00  0.00    -0.299 A  
HETATM   13  O   UNL     1      -7.571  17.707  68.504  1.00  0.00    -0.252 OA 
HETATM   14  C   UNL     1      -7.122  16.550  69.107  1.00  0.00    -0.227 C  
HETATM   15  C   UNL     1      -8.653  17.622  67.661  1.00  0.00    -0.224 A  
HETATM   16  C   UNL     1      -7.720  15.358  68.999  1.00  0.00    -0.186 C  
HETATM   17  C   UNL     1      -9.390  16.447  67.460  1.00  0.00    -0.214 A  
HETATM   18  O   UNL     1      -9.501  14.144  68.140  1.00  0.00    -0.200 OA 
HETATM   19  C   UNL     1      -8.945  15.230  68.190  1.00  0.00    -0.173 C  
ENDBRANCH   5   6
ENDBRANCH   4   5
ENDBRANCH   2   4
BRANCH   2  20
HETATM   20  C   UNL     1     -11.732  12.399  65.582  1.00  0.00    -0.414 C  
BRANCH  20  21
HETATM   21  O   UNL     1     -11.199  12.109  66.858  1.00  0.00    -0.282 OA 
BRANCH  21  22
HETATM   22  C   UNL     1     -10.899  10.805  67.184  1.00  0.00    -0.277 A  
HETATM   23  C   UNL     1     -11.490   9.711  70.859  1.00  0.00    -0.427 C  
HETATM   24  C   UNL     1     -11.730  10.484  69.638  1.00  0.00    -0.256 C  
HETATM   25  C   UNL     1     -11.012  10.075  68.393  1.00  0.00    -0.266 A  
HETATM   26  C   UNL     1     -10.435   8.785  68.453  1.00  0.00    -0.176 A  
HETATM   27  C   UNL     1     -10.877   8.533  70.768  1.00  0.00    -0.231 C  
HETATM   28  C   UNL     1      -9.852   8.189  67.330  1.00  0.00    -0.259 A  
HETATM   29  O   UNL     1     -10.391   8.003  69.591  1.00  0.00    -0.211 OA 
HETATM   30  C   UNL     1      -9.814   8.875  66.126  1.00  0.00    -0.326 A  
HETATM   31  C   UNL     1     -10.783   7.729  72.015  1.00  0.00    -0.231 C  
HETATM   32  O   UNL     1     -10.159   6.548  71.815  1.00  0.00    -0.184 OA 
HETATM   33  C   UNL     1     -10.310  10.175  66.067  1.00  0.00    -0.234 A  
HETATM   34  O   UNL     1     -12.582  11.355  69.719  1.00  0.00    -0.142 OA 
HETATM   35  O   UNL     1     -11.223   8.076  73.099  1.00  0.00    -0.336 OA 
ENDBRANCH  21  22
ENDBRANCH  20  21
ENDBRANCH   2  20
TORSDOF 6
ENDMDL
MODEL      118
REMARK 921   NORMALIZED FREE ENERGY PREDICTED BY IDOCK:   -6.43 KCAL/MOL
REMARK 922        TOTAL FREE ENERGY PREDICTED BY IDOCK:   -9.98 KCAL/MOL
REMARK 923 INTER-LIGAND FREE ENERGY PREDICTED BY IDOCK:   -8.90 KCAL/MOL
REMARK 924 INTRA-LIGAND FREE ENERGY PREDICTED BY IDOCK:   -1.08 KCAL/MOL
REMARK 927      BINDING AFFINITY PREDICTED BY RF-SCORE:    0.00 PKD
ROOT
HETATM    1  O   UNL     1      -8.209  11.299  65.171  1.00  0.00    -0.368 OA 
HETATM    2  C   UNL     1      -9.299  10.357  65.190  1.00  0.00    -0.222 C  
HETATM    3  H   UNL     1      -8.274  11.801  64.367  1.00  0.00     0.000 HD 
ENDROOT
BRANCH   2   4
HETATM    4  C   UNL     1     -10.615  11.129  65.095  1.00  0.00    -0.253 C  
BRANCH   4   5
HETATM    5  O   UNL     1     -10.547  12.285  65.941  1.00  0.00    -0.244 OA 
BRANCH   5   6
HETATM    6  C   UNL     1     -10.917  13.492  65.416  1.00  0.00    -0.292 A  
HETATM    7  O   UNL     1      -6.855  18.286  67.077  1.00  0.00    -0.182 OA 
HETATM    8  O   UNL     1      -8.559  19.292  65.981  1.00  0.00    -0.431 OA 
HETATM    9  C   UNL     1     -12.020  13.650  64.562  1.00  0.00    -0.454 A  
HETATM   10  C   UNL     1     -12.393  14.908  64.090  1.00  0.00    -0.212 A  
HETATM   11  C   UNL     1      -7.931  18.217  66.511  1.00  0.00    -0.262 C  
HETATM   12  C   UNL     1     -11.668  16.031  64.464  1.00  0.00    -0.127 A  
HETATM   13  O   UNL     1      -9.884  17.054  65.586  1.00  0.00    -0.547 OA 
HETATM   14  C   UNL     1      -8.708  16.966  66.302  1.00  0.00    -0.286 C  
HETATM   15  C   UNL     1     -10.557  15.892  65.296  1.00  0.00    -0.419 A  
HETATM   16  C   UNL     1      -8.217  15.832  66.816  1.00  0.00    -0.302 C  
HETATM   17  C   UNL     1     -10.173  14.632  65.778  1.00  0.00    -0.360 A  
HETATM   18  O   UNL     1      -8.511  13.554  67.140  1.00  0.00    -0.196 OA 
HETATM   19  C   UNL     1      -8.952  14.569  66.625  1.00  0.00    -0.219 C  
ENDBRANCH   5   6
ENDBRANCH   4   5
ENDBRANCH   2   4
BRANCH   2  20
HETATM   20  C   UNL     1      -9.194   9.547  66.487  1.00  0.00    -0.160 C  
BRANCH  20  21
HETATM   21  O   UNL     1     -10.434   9.108  67.004  1.00  0.00    -0.260 OA 
BRANCH  21  22
HETATM   22  C   UNL     1     -10.476   7.984  67.797  1.00  0.00    -0.214 A  
HETATM   23  C   UNL     1      -9.739   8.446  71.577  1.00  0.00    -0.276 C  
HETATM   24  C   UNL     1     -10.213   8.840  70.248  1.00  0.00    -0.196 C  
HETATM   25  C   UNL     1     -10.289   7.791  69.187  1.00  0.00    -0.219 A  
HETATM   26  C   UNL     1     -10.210   6.466  69.676  1.00  0.00    -0.189 A  
HETATM   27  C   UNL     1      -9.658   7.152  71.877  1.00  0.00    -0.149 C  
HETATM   28  C   UNL     1     -10.408   5.362  68.839  1.00  0.00    -0.260 A  
HETATM   29  O   UNL     1      -9.939   6.134  70.990  1.00  0.00    -0.180 OA 
HETATM   30  C   UNL     1     -10.671   5.556  67.493  1.00  0.00    -0.211 A  
HETATM   31  C   UNL     1      -9.306   6.809  73.280  1.00  0.00    -0.136 C  
HETATM   32  O   UNL     1      -9.264   5.476  73.485  1.00  0.00    -0.131 OA 
HETATM   33  C   UNL     1     -10.678   6.851  66.979  1.00  0.00    -0.432 A  
HETATM   34  O   UNL     1     -10.601   9.993  70.143  1.00  0.00    -0.264 OA 
HETATM   35  O   UNL     1      -9.089   7.627  74.159  1.00  0.00    -0.246 OA 
ENDBRANCH  21  22
ENDBRANCH  20  21
ENDBRANCH   2  20
TORSDOF 6
ENDMDL
MODEL      119
REMARK 921   NORMALIZED FREE ENERGY PREDICTED BY IDOCK:   -6.43 KCAL/MOL
REMARK 922        TOTAL FREE ENERGY PREDICTED BY IDOCK:   -9.98 KCAL/MOL
REMARK 923 INTER-LIGAND FREE ENERGY PREDICTED BY IDOCK:   -8.81 KCAL/MOL
REMARK 924 INTRA-LIGAND FREE ENERGY PREDICTED BY IDOCK:   -1.18 KCAL/MOL
REMARK 927      BINDING AFFINITY PREDICTED BY RF-SCORE:    0.00 PKD
ROOT
HETATM    1  O   UNL     1      -5.129   8.627  68.268  1.00  0.00    -0.033 OA 
HETATM    2  C   UNL     1      -6.477   8.743  67.771  1.00  0.00    -0.061 C  
HETATM    3  H   UNL     1      -5.178   8.466  69.203  1.00  0.00     0.000 HD 
ENDROOT
BRANCH   2   4
HETATM    4  C   UNL     1      -7.232   7.455  68.098  1.00  0.00    -0.090 C  
BRANCH   4   5
HETATM    5  O   UNL     1      -8.640   7.682  67.953  1.00  0.00    -0.122 OA 
BRANCH   5   6
HETATM    6  C   UNL     1      -9.488   7.057  68.826  1.00  0.00    -0.136 A  
HETATM    7  O   UNL     1     -13.336  11.233  71.987  1.00  0.00    -0.462 OA 
HETATM    8  O   UNL     1     -13.741   9.215  72.921  1.00  0.00    -0.361 OA 
HETATM    9  C   UNL     1      -9.551   5.662  68.965  1.00  0.00    -0.174 A  
HETATM   10  C   UNL     1     -10.395   5.068  69.903  1.00  0.00    -0.298 A  
HETATM   11  C   UNL     1     -13.099  10.041  72.064  1.00  0.00    -0.441 C  
HETATM   12  C   UNL     1     -11.189   5.861  70.720  1.00  0.00    -0.281 A  
HETATM   13  O   UNL     1     -11.999   7.948  71.411  1.00  0.00    -0.291 OA 
HETATM   14  C   UNL     1     -12.099   9.313  71.239  1.00  0.00    -0.337 C  
HETATM   15  C   UNL     1     -11.154   7.249  70.583  1.00  0.00    -0.264 A  
HETATM   16  C   UNL     1     -11.363  10.024  70.376  1.00  0.00    -0.392 C  
HETATM   17  C   UNL     1     -10.310   7.858  69.644  1.00  0.00    -0.216 A  
HETATM   18  O   UNL     1      -9.674  10.012  68.787  1.00  0.00    -0.159 OA 
HETATM   19  C   UNL     1     -10.367   9.339  69.535  1.00  0.00    -0.216 C  
ENDBRANCH   5   6
ENDBRANCH   4   5
ENDBRANCH   2   4
BRANCH   2  20
HETATM   20  C   UNL     1      -6.398   9.003  66.263  1.00  0.00    -0.065 C  
BRANCH  20  21
HETATM   21  O   UNL     1      -6.386  10.370  65.905  1.00  0.00    -0.100 OA 
BRANCH  21  22
HETATM   22  C   UNL     1      -7.392  11.195  66.355  1.00  0.00    -0.099 A  
HETATM   23  C   UNL     1     -10.735  11.160  64.389  1.00  0.00    -0.388 C  
HETATM   24  C   UNL     1      -9.487  10.603  64.915  1.00  0.00    -0.243 C  
HETATM   25  C   UNL     1      -8.717  11.413  65.907  1.00  0.00    -0.101 A  
HETATM   26  C   UNL     1      -9.450  12.481  66.476  1.00  0.00    -0.240 A  
HETATM   27  C   UNL     1     -11.281  12.211  64.995  1.00  0.00    -0.322 C  
HETATM   28  C   UNL     1      -8.932  13.250  67.524  1.00  0.00    -0.208 A  
HETATM   29  O   UNL     1     -10.714  12.863  66.070  1.00  0.00    -0.271 OA 
HETATM   30  C   UNL     1      -7.664  12.982  68.015  1.00  0.00    -0.145 A  
HETATM   31  C   UNL     1     -12.615  12.649  64.507  1.00  0.00    -0.412 C  
HETATM   32  O   UNL     1     -13.087  13.711  65.194  1.00  0.00    -0.750 OA 
HETATM   33  C   UNL     1      -6.899  11.983  67.418  1.00  0.00    -0.142 A  
HETATM   34  O   UNL     1      -9.222   9.464  64.564  1.00  0.00    -0.216 OA 
HETATM   35  O   UNL     1     -13.230  12.115  63.598  1.00  0.00    -0.770 OA 
ENDBRANCH  21  22
ENDBRANCH  20  21
ENDBRANCH   2  20
TORSDOF 6
ENDMDL
MODEL      120
REMARK 921   NORMALIZED FREE ENERGY PREDICTED BY IDOCK:   -6.41 KCAL/MOL
REMARK 922        TOTAL FREE ENERGY PREDICTED BY IDOCK:   -9.95 KCAL/MOL
REMARK 923 INTER-LIGAND FREE ENERGY PREDICTED BY IDOCK:   -9.11 KCAL/MOL
REMARK 924 INTRA-LIGAND FREE ENERGY PREDICTED BY IDOCK:   -0.84 KCAL/MOL
REMARK 927      BINDING AFFINITY PREDICTED BY RF-SCORE:    0.00 PKD
ROOT
HETATM    1  O   UNL     1     -10.107   9.927  70.792  1.00  0.00    -0.351 OA 
HETATM    2  C   UNL     1     -11.506  10.058  70.470  1.00  0.00    -0.330 C  
HETATM    3  H   UNL     1      -9.732   9.286  70.199  1.00  0.00     0.000 HD 
ENDROOT
BRANCH   2   4
HETATM    4  C   UNL     1     -11.634  10.479  69.007  1.00  0.00    -0.207 C  
BRANCH   4   5
HETATM    5  O   UNL     1     -10.756   9.679  68.205  1.00  0.00    -0.231 OA 
BRANCH   5   6
HETATM    6  C   UNL     1     -10.476  10.101  66.934  1.00  0.00    -0.222 A  
HETATM    7  O   UNL     1      -6.692   5.929  63.693  1.00  0.00    -0.035 OA 
HETATM    8  O   UNL     1      -6.898   7.730  62.342  1.00  0.00    -0.079 OA 
HETATM    9  C   UNL     1     -11.008  11.278  66.385  1.00  0.00    -0.285 A  
HETATM   10  C   UNL     1     -10.656  11.699  65.103  1.00  0.00    -0.343 A  
HETATM   11  C   UNL     1      -7.118   7.052  63.491  1.00  0.00    -0.065 C  
HETATM   12  C   UNL     1      -9.766  10.948  64.348  1.00  0.00    -0.342 A  
HETATM   13  O   UNL     1      -8.394   9.074  64.037  1.00  0.00    -0.167 OA 
HETATM   14  C   UNL     1      -7.941   7.838  64.448  1.00  0.00    -0.126 C  
HETATM   15  C   UNL     1      -9.242   9.765  64.870  1.00  0.00    -0.257 A  
HETATM   16  C   UNL     1      -8.197   7.296  65.645  1.00  0.00    -0.138 C  
HETATM   17  C   UNL     1      -9.587   9.332  66.158  1.00  0.00    -0.327 A  
HETATM   18  O   UNL     1      -9.200   7.548  67.721  1.00  0.00    -0.135 OA 
HETATM   19  C   UNL     1      -9.016   8.039  66.619  1.00  0.00    -0.150 C  
ENDBRANCH   5   6
ENDBRANCH   4   5
ENDBRANCH   2   4
BRANCH   2  20
HETATM   20  C   UNL     1     -12.110  11.092  71.427  1.00  0.00    -0.072 C  
BRANCH  20  21
HETATM   21  O   UNL     1     -12.908  12.073  70.797  1.00  0.00    -0.174 OA 
BRANCH  21  22
HETATM   22  C   UNL     1     -12.693  13.403  71.081  1.00  0.00    -0.328 A  
HETATM   23  C   UNL     1     -11.021  15.562  68.326  1.00  0.00    -0.305 C  
HETATM   24  C   UNL     1     -11.841  14.470  68.857  1.00  0.00    -0.324 C  
HETATM   25  C   UNL     1     -12.143  14.463  70.320  1.00  0.00    -0.396 A  
HETATM   26  C   UNL     1     -11.882  15.691  70.971  1.00  0.00    -0.400 A  
HETATM   27  C   UNL     1     -10.808  16.637  69.082  1.00  0.00    -0.315 C  
HETATM   28  C   UNL     1     -12.242  15.905  72.307  1.00  0.00    -0.585 A  
HETATM   29  O   UNL     1     -11.265  16.774  70.376  1.00  0.00    -0.158 OA 
HETATM   30  C   UNL     1     -12.853  14.891  73.026  1.00  0.00    -0.586 A  
HETATM   31  C   UNL     1     -10.089  17.772  68.445  1.00  0.00    -0.376 C  
HETATM   32  O   UNL     1      -9.936  18.816  69.287  1.00  0.00    -0.294 OA 
HETATM   33  C   UNL     1     -13.051  13.650  72.424  1.00  0.00    -0.498 A  
HETATM   34  O   UNL     1     -12.293  13.694  68.029  1.00  0.00    -0.238 OA 
HETATM   35  O   UNL     1      -9.687  17.779  67.293  1.00  0.00    -0.272 OA 
ENDBRANCH  21  22
ENDBRANCH  20  21
ENDBRANCH   2  20
TORSDOF 6
ENDMDL
MODEL      121
REMARK 921   NORMALIZED FREE ENERGY PREDICTED BY IDOCK:   -6.38 KCAL/MOL
REMARK 922        TOTAL FREE ENERGY PREDICTED BY IDOCK:   -9.91 KCAL/MOL
REMARK 923 INTER-LIGAND FREE ENERGY PREDICTED BY IDOCK:   -9.24 KCAL/MOL
REMARK 924 INTRA-LIGAND FREE ENERGY PREDICTED BY IDOCK:   -0.67 KCAL/MOL
REMARK 927      BINDING AFFINITY PREDICTED BY RF-SCORE:    0.00 PKD
ROOT
HETATM    1  O   UNL     1     -13.698   9.755  70.342  1.00  0.00    -0.476 OA 
HETATM    2  C   UNL     1     -13.276   9.948  71.706  1.00  0.00    -0.434 C  
HETATM    3  H   UNL     1     -14.186  10.527  70.079  1.00  0.00     0.000 HD 
ENDROOT
BRANCH   2   4
HETATM    4  C   UNL     1     -12.432  11.220  71.783  1.00  0.00    -0.020 C  
BRANCH   4   5
HETATM    5  O   UNL     1     -13.191  12.322  71.269  1.00  0.00    -0.207 OA 
BRANCH   5   6
HETATM    6  C   UNL     1     -12.834  13.586  71.651  1.00  0.00    -0.329 A  
HETATM    7  O   UNL     1     -10.133  16.990  66.818  1.00  0.00    -0.280 OA 
HETATM    8  O   UNL     1      -9.936  18.292  68.656  1.00  0.00    -0.361 OA 
HETATM    9  C   UNL     1     -13.089  14.098  72.933  1.00  0.00    -0.544 A  
HETATM   10  C   UNL     1     -12.663  15.375  73.298  1.00  0.00    -0.626 A  
HETATM   11  C   UNL     1     -10.293  17.156  68.014  1.00  0.00    -0.353 C  
HETATM   12  C   UNL     1     -11.974  16.162  72.386  1.00  0.00    -0.649 A  
HETATM   13  O   UNL     1     -11.070  16.541  70.258  1.00  0.00    -0.348 OA 
HETATM   14  C   UNL     1     -10.907  16.168  68.940  1.00  0.00    -0.305 C  
HETATM   15  C   UNL     1     -11.729  15.678  71.101  1.00  0.00    -0.413 A  
HETATM   16  C   UNL     1     -11.268  14.981  68.438  1.00  0.00    -0.303 C  
HETATM   17  C   UNL     1     -12.151  14.396  70.722  1.00  0.00    -0.408 A  
HETATM   18  O   UNL     1     -12.167  12.883  68.854  1.00  0.00    -0.213 OA 
HETATM   19  C   UNL     1     -11.886  13.976  69.321  1.00  0.00    -0.344 C  
ENDBRANCH   5   6
ENDBRANCH   4   5
ENDBRANCH   2   4
BRANCH   2  20
HETATM   20  C   UNL     1     -12.488   8.703  72.131  1.00  0.00    -0.389 C  
BRANCH  20  21
HETATM   21  O   UNL     1     -12.640   7.594  71.269  1.00  0.00    -0.323 OA 
BRANCH  21  22
HETATM   22  C   UNL     1     -11.529   6.873  70.893  1.00  0.00    -0.323 A  
HETATM   23  C   UNL     1     -10.388   4.007  73.244  1.00  0.00    -0.233 C  
HETATM   24  C   UNL     1     -11.346   4.913  72.607  1.00  0.00    -0.077 C  
HETATM   25  C   UNL     1     -10.864   5.770  71.482  1.00  0.00    -0.316 A  
HETATM   26  C   UNL     1      -9.620   5.370  70.941  1.00  0.00    -0.173 A  
HETATM   27  C   UNL     1      -9.224   3.771  72.644  1.00  0.00    -0.105 C  
HETATM   28  C   UNL     1      -9.092   5.971  69.793  1.00  0.00    -0.145 A  
HETATM   29  O   UNL     1      -8.823   4.374  71.471  1.00  0.00    -0.113 OA 
HETATM   30  C   UNL     1      -9.785   6.997  69.171  1.00  0.00    -0.156 A  
HETATM   31  C   UNL     1      -8.349   2.739  73.261  1.00  0.00    -0.071 C  
HETATM   32  O   UNL     1      -7.202   2.564  72.572  1.00  0.00    -0.030 OA 
HETATM   33  C   UNL     1     -10.974   7.455  69.732  1.00  0.00    -0.215 A  
HETATM   34  O   UNL     1     -12.501   4.824  72.994  1.00  0.00     0.102 OA 
HETATM   35  O   UNL     1      -8.626   2.107  74.268  1.00  0.00    -0.058 OA 
ENDBRANCH  21  22
ENDBRANCH  20  21
ENDBRANCH   2  20
TORSDOF 6
ENDMDL
MODEL      122
REMARK 921   NORMALIZED FREE ENERGY PREDICTED BY IDOCK:   -6.35 KCAL/MOL
REMARK 922        TOTAL FREE ENERGY PREDICTED BY IDOCK:   -9.87 KCAL/MOL
REMARK 923 INTER-LIGAND FREE ENERGY PREDICTED BY IDOCK:   -8.51 KCAL/MOL
REMARK 924 INTRA-LIGAND FREE ENERGY PREDICTED BY IDOCK:   -1.36 KCAL/MOL
REMARK 927      BINDING AFFINITY PREDICTED BY RF-SCORE:    0.00 PKD
ROOT
HETATM    1  O   UNL     1      -9.842   8.303  65.920  1.00  0.00    -0.466 OA 
HETATM    2  C   UNL     1      -8.796   8.902  65.130  1.00  0.00    -0.166 C  
HETATM    3  H   UNL     1      -9.499   7.501  66.295  1.00  0.00     0.000 HD 
ENDROOT
BRANCH   2   4
HETATM    4  C   UNL     1      -7.587   9.156  66.030  1.00  0.00    -0.095 C  
BRANCH   4   5
HETATM    5  O   UNL     1      -8.036   9.664  67.293  1.00  0.00    -0.109 OA 
BRANCH   5   6
HETATM    6  C   UNL     1      -7.755   8.939  68.419  1.00  0.00    -0.099 A  
HETATM    7  O   UNL     1     -12.823   8.546  72.468  1.00  0.00    -0.345 OA 
HETATM    8  O   UNL     1     -11.096   7.588  73.569  1.00  0.00    -0.312 OA 
HETATM    9  C   UNL     1      -6.521   8.304  68.631  1.00  0.00    -0.054 A  
HETATM   10  C   UNL     1      -6.258   7.618  69.816  1.00  0.00    -0.030 A  
HETATM   11  C   UNL     1     -11.647   8.235  72.516  1.00  0.00    -0.385 C  
HETATM   12  C   UNL     1      -7.224   7.556  70.810  1.00  0.00    -0.067 A  
HETATM   13  O   UNL     1      -9.367   8.022  71.635  1.00  0.00    -0.145 OA 
HETATM   14  C   UNL     1     -10.649   8.496  71.445  1.00  0.00    -0.245 C  
HETATM   15  C   UNL     1      -8.463   8.164  70.609  1.00  0.00    -0.128 A  
HETATM   16  C   UNL     1     -11.056   9.168  70.361  1.00  0.00    -0.293 C  
HETATM   17  C   UNL     1      -8.740   8.858  69.422  1.00  0.00    -0.142 A  
HETATM   18  O   UNL     1     -10.479  10.094  68.314  1.00  0.00    -0.188 OA 
HETATM   19  C   UNL     1     -10.100   9.440  69.274  1.00  0.00    -0.196 C  
ENDBRANCH   5   6
ENDBRANCH   4   5
ENDBRANCH   2   4
BRANCH   2  20
HETATM   20  C   UNL     1      -9.351  10.196  64.525  1.00  0.00    -0.289 C  
BRANCH  20  21
HETATM   21  O   UNL     1     -10.490  10.709  65.185  1.00  0.00    -0.280 OA 
BRANCH  21  22
HETATM   22  C   UNL     1     -10.848  12.024  64.994  1.00  0.00    -0.304 A  
HETATM   23  C   UNL     1      -9.605  14.603  67.611  1.00  0.00    -0.212 C  
HETATM   24  C   UNL     1      -9.551  13.378  66.809  1.00  0.00    -0.262 C  
HETATM   25  C   UNL     1     -10.556  13.205  65.718  1.00  0.00    -0.293 A  
HETATM   26  C   UNL     1     -11.238  14.394  65.366  1.00  0.00    -0.335 A  
HETATM   27  C   UNL     1     -10.342  15.625  67.181  1.00  0.00    -0.285 C  
HETATM   28  C   UNL     1     -12.107  14.443  64.269  1.00  0.00    -0.461 A  
HETATM   29  O   UNL     1     -11.121  15.591  66.044  1.00  0.00    -0.289 OA 
HETATM   30  C   UNL     1     -12.328  13.303  63.513  1.00  0.00    -0.442 A  
HETATM   31  C   UNL     1     -10.252  16.890  67.957  1.00  0.00    -0.310 C  
HETATM   32  O   UNL     1     -11.024  17.866  67.435  1.00  0.00    -0.281 OA 
HETATM   33  C   UNL     1     -11.724  12.107  63.890  1.00  0.00    -0.546 A  
HETATM   34  O   UNL     1      -8.615  12.630  67.044  1.00  0.00    -0.194 OA 
HETATM   35  O   UNL     1      -9.556  17.047  68.948  1.00  0.00    -0.266 OA 
ENDBRANCH  21  22
ENDBRANCH  20  21
ENDBRANCH   2  20
TORSDOF 6
ENDMDL
MODEL      123
REMARK 921   NORMALIZED FREE ENERGY PREDICTED BY IDOCK:   -6.31 KCAL/MOL
REMARK 922        TOTAL FREE ENERGY PREDICTED BY IDOCK:   -9.82 KCAL/MOL
REMARK 923 INTER-LIGAND FREE ENERGY PREDICTED BY IDOCK:   -9.01 KCAL/MOL
REMARK 924 INTRA-LIGAND FREE ENERGY PREDICTED BY IDOCK:   -0.82 KCAL/MOL
REMARK 927      BINDING AFFINITY PREDICTED BY RF-SCORE:    0.00 PKD
ROOT
HETATM    1  O   UNL     1      -9.395  10.289  70.306  1.00  0.00    -0.345 OA 
HETATM    2  C   UNL     1     -10.722   9.977  69.836  1.00  0.00    -0.286 C  
HETATM    3  H   UNL     1      -8.791   9.690  69.885  1.00  0.00     0.000 HD 
ENDROOT
BRANCH   2   4
HETATM    4  C   UNL     1     -10.745  10.107  68.314  1.00  0.00    -0.238 C  
BRANCH   4   5
HETATM    5  O   UNL     1     -11.007   8.823  67.733  1.00  0.00    -0.093 OA 
BRANCH   5   6
HETATM    6  C   UNL     1     -10.115   8.332  66.820  1.00  0.00    -0.303 A  
HETATM    7  O   UNL     1      -9.246   1.915  67.377  1.00  0.00    -0.142 OA 
HETATM    8  O   UNL     1      -7.743   2.595  65.831  1.00  0.00    -0.078 OA 
HETATM    9  C   UNL     1      -9.510   9.130  65.836  1.00  0.00    -0.326 A  
HETATM   10  C   UNL     1      -8.567   8.599  64.956  1.00  0.00    -0.185 A  
HETATM   11  C   UNL     1      -8.723   2.810  66.739  1.00  0.00    -0.122 C  
HETATM   12  C   UNL     1      -8.213   7.261  65.046  1.00  0.00    -0.100 A  
HETATM   13  O   UNL     1      -8.426   5.130  65.997  1.00  0.00    -0.114 OA 
HETATM   14  C   UNL     1      -9.076   4.252  66.838  1.00  0.00    -0.135 C  
HETATM   15  C   UNL     1      -8.817   6.447  66.005  1.00  0.00    -0.150 A  
HETATM   16  C   UNL     1     -10.006   4.607  67.732  1.00  0.00    -0.150 C  
HETATM   17  C   UNL     1      -9.766   6.969  66.895  1.00  0.00    -0.228 A  
HETATM   18  O   UNL     1     -11.209   6.333  68.710  1.00  0.00    -0.363 OA 
HETATM   19  C   UNL     1     -10.391   6.023  67.857  1.00  0.00    -0.206 C  
ENDBRANCH   5   6
ENDBRANCH   4   5
ENDBRANCH   2   4
BRANCH   2  20
HETATM   20  C   UNL     1     -11.697  10.945  70.516  1.00  0.00    -0.342 C  
BRANCH  20  21
HETATM   21  O   UNL     1     -12.390  11.796  69.626  1.00  0.00    -0.198 OA 
BRANCH  21  22
HETATM   22  C   UNL     1     -12.381  13.155  69.847  1.00  0.00    -0.135 A  
HETATM   23  C   UNL     1     -10.864  15.399  67.070  1.00  0.00    -0.320 C  
HETATM   24  C   UNL     1     -11.553  14.227  67.616  1.00  0.00    -0.368 C  
HETATM   25  C   UNL     1     -11.941  14.246  69.058  1.00  0.00    -0.360 A  
HETATM   26  C   UNL     1     -11.894  15.528  69.654  1.00  0.00    -0.366 A  
HETATM   27  C   UNL     1     -10.851  16.528  67.775  1.00  0.00    -0.304 C  
HETATM   28  C   UNL     1     -12.361  15.751  70.954  1.00  0.00    -0.451 A  
HETATM   29  O   UNL     1     -11.400  16.659  69.033  1.00  0.00    -0.238 OA 
HETATM   30  C   UNL     1     -12.867  14.695  71.695  1.00  0.00    -0.403 A  
HETATM   31  C   UNL     1     -10.261  17.722  67.116  1.00  0.00    -0.353 C  
HETATM   32  O   UNL     1     -10.308  18.816  67.906  1.00  0.00    -0.376 OA 
HETATM   33  C   UNL     1     -12.852  13.412  71.153  1.00  0.00    -0.372 A  
HETATM   34  O   UNL     1     -11.841  13.356  66.810  1.00  0.00    -0.365 OA 
HETATM   35  O   UNL     1      -9.794  17.733  65.989  1.00  0.00    -0.490 OA 
ENDBRANCH  21  22
ENDBRANCH  20  21
ENDBRANCH   2  20
TORSDOF 6
ENDMDL
MODEL      124
REMARK 921   NORMALIZED FREE ENERGY PREDICTED BY IDOCK:   -6.30 KCAL/MOL
REMARK 922        TOTAL FREE ENERGY PREDICTED BY IDOCK:   -9.81 KCAL/MOL
REMARK 923 INTER-LIGAND FREE ENERGY PREDICTED BY IDOCK:   -9.17 KCAL/MOL
REMARK 924 INTRA-LIGAND FREE ENERGY PREDICTED BY IDOCK:   -0.64 KCAL/MOL
REMARK 927      BINDING AFFINITY PREDICTED BY RF-SCORE:    0.00 PKD
ROOT
HETATM    1  O   UNL     1      -7.828  11.118  65.395  1.00  0.00    -0.363 OA 
HETATM    2  C   UNL     1      -8.875  11.253  66.376  1.00  0.00    -0.182 C  
HETATM    3  H   UNL     1      -7.384  11.955  65.328  1.00  0.00     0.000 HD 
ENDROOT
BRANCH   2   4
HETATM    4  C   UNL     1      -8.249  11.684  67.702  1.00  0.00    -0.141 C  
BRANCH   4   5
HETATM    5  O   UNL     1      -8.215  13.115  67.767  1.00  0.00    -0.141 OA 
BRANCH   5   6
HETATM    6  C   UNL     1      -9.395  13.782  67.951  1.00  0.00    -0.211 A  
HETATM    7  O   UNL     1      -9.105  19.964  65.964  1.00  0.00    -0.374 OA 
HETATM    8  O   UNL     1     -11.127  19.742  66.953  1.00  0.00    -0.365 OA 
HETATM    9  C   UNL     1     -10.551  13.167  68.456  1.00  0.00    -0.274 A  
HETATM   10  C   UNL     1     -11.719  13.896  68.676  1.00  0.00    -0.396 A  
HETATM   11  C   UNL     1      -9.914  19.283  66.570  1.00  0.00    -0.392 C  
HETATM   12  C   UNL     1     -11.750  15.255  68.395  1.00  0.00    -0.340 A  
HETATM   13  O   UNL     1     -10.754  17.219  67.596  1.00  0.00    -0.359 OA 
HETATM   14  C   UNL     1      -9.710  17.864  66.966  1.00  0.00    -0.298 C  
HETATM   15  C   UNL     1     -10.618  15.880  67.874  1.00  0.00    -0.300 A  
HETATM   16  C   UNL     1      -8.531  17.299  66.683  1.00  0.00    -0.292 C  
HETATM   17  C   UNL     1      -9.437  15.158  67.649  1.00  0.00    -0.201 A  
HETATM   18  O   UNL     1      -7.193  15.409  66.825  1.00  0.00    -0.137 OA 
HETATM   19  C   UNL     1      -8.291  15.893  67.051  1.00  0.00    -0.223 C  
ENDBRANCH   5   6
ENDBRANCH   4   5
ENDBRANCH   2   4
BRANCH   2  20
HETATM   20  C   UNL     1      -9.591   9.902  66.484  1.00  0.00    -0.190 C  
BRANCH  20  21
HETATM   21  O   UNL     1     -10.416   9.767  67.623  1.00  0.00    -0.217 OA 
BRANCH  21  22
HETATM   22  C   UNL     1     -10.656   8.515  68.140  1.00  0.00    -0.124 A  
HETATM   23  C   UNL     1     -10.585   8.141  72.000  1.00  0.00    -0.334 C  
HETATM   24  C   UNL     1     -10.793   8.834  70.727  1.00  0.00    -0.234 C  
HETATM   25  C   UNL     1     -10.731   8.031  69.469  1.00  0.00    -0.185 A  
HETATM   26  C   UNL     1     -10.807   6.632  69.670  1.00  0.00    -0.286 A  
HETATM   27  C   UNL     1     -10.624   6.810  72.026  1.00  0.00    -0.213 C  
HETATM   28  C   UNL     1     -10.907   5.741  68.596  1.00  0.00    -0.270 A  
HETATM   29  O   UNL     1     -10.792   6.021  70.909  1.00  0.00    -0.257 OA 
HETATM   30  C   UNL     1     -10.915   6.224  67.297  1.00  0.00    -0.455 A  
HETATM   31  C   UNL     1     -10.547   6.164  73.363  1.00  0.00    -0.269 C  
HETATM   32  O   UNL     1     -10.609   4.817  73.283  1.00  0.00    -0.184 OA 
HETATM   33  C   UNL     1     -10.765   7.591  67.077  1.00  0.00    -0.367 A  
HETATM   34  O   UNL     1     -11.098  10.014  70.807  1.00  0.00    -0.311 OA 
HETATM   35  O   UNL     1     -10.449   6.766  74.419  1.00  0.00    -0.282 OA 
ENDBRANCH  21  22
ENDBRANCH  20  21
ENDBRANCH   2  20
TORSDOF 6
ENDMDL
MODEL      125
REMARK 921   NORMALIZED FREE ENERGY PREDICTED BY IDOCK:   -6.27 KCAL/MOL
REMARK 922        TOTAL FREE ENERGY PREDICTED BY IDOCK:   -9.77 KCAL/MOL
REMARK 923 INTER-LIGAND FREE ENERGY PREDICTED BY IDOCK:   -9.24 KCAL/MOL
REMARK 924 INTRA-LIGAND FREE ENERGY PREDICTED BY IDOCK:   -0.53 KCAL/MOL
REMARK 927      BINDING AFFINITY PREDICTED BY RF-SCORE:    0.00 PKD
ROOT
HETATM    1  O   UNL     1      -9.072   9.052  64.259  1.00  0.00    -0.427 OA 
HETATM    2  C   UNL     1      -9.548   9.501  65.543  1.00  0.00    -0.279 C  
HETATM    3  H   UNL     1      -9.113   9.789  63.661  1.00  0.00     0.000 HD 
ENDROOT
BRANCH   2   4
HETATM    4  C   UNL     1      -8.679  10.670  66.006  1.00  0.00    -0.177 C  
BRANCH   4   5
HETATM    5  O   UNL     1      -9.448  11.519  66.867  1.00  0.00    -0.177 OA 
BRANCH   5   6
HETATM    6  C   UNL     1     -10.352  12.372  66.296  1.00  0.00    -0.244 A  
HETATM    7  O   UNL     1      -8.402  18.569  66.482  1.00  0.00    -0.268 OA 
HETATM    8  O   UNL     1     -10.510  18.624  65.665  1.00  0.00    -0.603 OA 
HETATM    9  C   UNL     1     -11.537  11.933  65.684  1.00  0.00    -0.275 A  
HETATM   10  C   UNL     1     -12.456  12.840  65.159  1.00  0.00    -0.565 A  
HETATM   11  C   UNL     1      -9.428  17.990  66.171  1.00  0.00    -0.146 C  
HETATM   12  C   UNL     1     -12.206  14.203  65.237  1.00  0.00    -0.440 A  
HETATM   13  O   UNL     1     -10.849  16.021  65.825  1.00  0.00    -0.305 OA 
HETATM   14  C   UNL     1      -9.648  16.523  66.280  1.00  0.00    -0.306 C  
HETATM   15  C   UNL     1     -11.024  14.657  65.823  1.00  0.00    -0.330 A  
HETATM   16  C   UNL     1      -8.666  15.781  66.806  1.00  0.00    -0.305 C  
HETATM   17  C   UNL     1     -10.093  13.755  66.356  1.00  0.00    -0.297 A  
HETATM   18  O   UNL     1      -7.953  13.669  67.448  1.00  0.00    -0.171 OA 
HETATM   19  C   UNL     1      -8.842  14.323  66.924  1.00  0.00    -0.213 C  
ENDBRANCH   5   6
ENDBRANCH   4   5
ENDBRANCH   2   4
BRANCH   2  20
HETATM   20  C   UNL     1      -9.482   8.311  66.507  1.00  0.00    -0.220 C  
BRANCH  20  21
HETATM   21  O   UNL     1     -10.667   8.091  67.245  1.00  0.00    -0.300 OA 
BRANCH  21  22
HETATM   22  C   UNL     1     -10.636   8.189  68.617  1.00  0.00    -0.109 A  
HETATM   23  C   UNL     1     -10.510   4.879  70.635  1.00  0.00    -0.163 C  
HETATM   24  C   UNL     1     -10.262   5.758  69.490  1.00  0.00    -0.239 C  
HETATM   25  C   UNL     1     -10.564   7.214  69.641  1.00  0.00    -0.249 A  
HETATM   26  C   UNL     1     -10.742   7.632  70.981  1.00  0.00    -0.228 A  
HETATM   27  C   UNL     1     -10.724   5.421  71.832  1.00  0.00    -0.211 C  
HETATM   28  C   UNL     1     -10.889   8.984  71.314  1.00  0.00    -0.385 A  
HETATM   29  O   UNL     1     -10.788   6.778  72.066  1.00  0.00    -0.219 OA 
HETATM   30  C   UNL     1     -10.879   9.945  70.315  1.00  0.00    -0.367 A  
HETATM   31  C   UNL     1     -10.832   4.484  72.982  1.00  0.00    -0.237 C  
HETATM   32  O   UNL     1     -11.034   5.131  74.150  1.00  0.00    -0.285 OA 
HETATM   33  C   UNL     1     -10.779   9.545  68.985  1.00  0.00    -0.224 A  
HETATM   34  O   UNL     1      -9.733   5.234  68.522  1.00  0.00    -0.128 OA 
HETATM   35  O   UNL     1     -10.739   3.270  72.898  1.00  0.00    -0.153 OA 
ENDBRANCH  21  22
ENDBRANCH  20  21
ENDBRANCH   2  20
TORSDOF 6
ENDMDL
MODEL      126
REMARK 921   NORMALIZED FREE ENERGY PREDICTED BY IDOCK:   -6.26 KCAL/MOL
REMARK 922        TOTAL FREE ENERGY PREDICTED BY IDOCK:   -9.76 KCAL/MOL
REMARK 923 INTER-LIGAND FREE ENERGY PREDICTED BY IDOCK:   -8.34 KCAL/MOL
REMARK 924 INTRA-LIGAND FREE ENERGY PREDICTED BY IDOCK:   -1.41 KCAL/MOL
REMARK 927      BINDING AFFINITY PREDICTED BY RF-SCORE:    0.00 PKD
ROOT
HETATM    1  O   UNL     1      -9.587  16.110  66.160  1.00  0.00    -0.282 OA 
HETATM    2  C   UNL     1     -10.148  14.936  66.779  1.00  0.00    -0.251 C  
HETATM    3  H   UNL     1     -10.300  16.715  65.988  1.00  0.00     0.000 HD 
ENDROOT
BRANCH   2   4
HETATM    4  C   UNL     1     -10.874  15.356  68.058  1.00  0.00    -0.292 C  
BRANCH   4   5
HETATM    5  O   UNL     1     -11.911  14.410  68.346  1.00  0.00    -0.331 OA 
BRANCH   5   6
HETATM    6  C   UNL     1     -12.246  14.196  69.655  1.00  0.00    -0.326 A  
HETATM    7  O   UNL     1     -12.349   7.887  71.210  1.00  0.00    -0.307 OA 
HETATM    8  O   UNL     1     -13.125   8.971  73.036  1.00  0.00    -0.295 OA 
HETATM    9  C   UNL     1     -12.478  15.240  70.565  1.00  0.00    -0.454 A  
HETATM   10  C   UNL     1     -12.867  14.978  71.878  1.00  0.00    -0.414 A  
HETATM   11  C   UNL     1     -12.670   8.923  71.763  1.00  0.00    -0.364 C  
HETATM   12  C   UNL     1     -13.032  13.667  72.303  1.00  0.00    -0.419 A  
HETATM   13  O   UNL     1     -12.946  11.354  71.939  1.00  0.00    -0.453 OA 
HETATM   14  C   UNL     1     -12.602  10.277  71.150  1.00  0.00    -0.400 C  
HETATM   15  C   UNL     1     -12.788  12.617  71.419  1.00  0.00    -0.261 A  
HETATM   16  C   UNL     1     -12.205  10.366  69.875  1.00  0.00    -0.215 C  
HETATM   17  C   UNL     1     -12.397  12.867  70.096  1.00  0.00    -0.249 A  
HETATM   18  O   UNL     1     -11.796  11.746  68.056  1.00  0.00    -0.484 OA 
HETATM   19  C   UNL     1     -12.116  11.689  69.233  1.00  0.00    -0.259 C  
ENDBRANCH   5   6
ENDBRANCH   4   5
ENDBRANCH   2   4
BRANCH   2  20
HETATM   20  C   UNL     1      -8.999  13.960  67.058  1.00  0.00    -0.240 C  
BRANCH  20  21
HETATM   21  O   UNL     1      -9.079  12.744  66.343  1.00  0.00    -0.192 OA 
BRANCH  21  22
HETATM   22  C   UNL     1      -8.650  11.580  66.940  1.00  0.00    -0.163 A  
HETATM   23  C   UNL     1      -8.503   8.397  64.728  1.00  0.00    -0.120 C  
HETATM   24  C   UNL     1      -8.446   9.833  65.012  1.00  0.00    -0.153 C  
HETATM   25  C   UNL     1      -8.453  10.270  66.440  1.00  0.00    -0.132 A  
HETATM   26  C   UNL     1      -8.178   9.234  67.364  1.00  0.00    -0.117 A  
HETATM   27  C   UNL     1      -8.282   7.533  65.717  1.00  0.00    -0.137 C  
HETATM   28  C   UNL     1      -8.003   9.495  68.728  1.00  0.00    -0.088 A  
HETATM   29  O   UNL     1      -8.056   7.900  67.026  1.00  0.00    -0.113 OA 
HETATM   30  C   UNL     1      -8.118  10.791  69.202  1.00  0.00    -0.133 A  
HETATM   31  C   UNL     1      -8.214   6.095  65.347  1.00  0.00    -0.145 C  
HETATM   32  O   UNL     1      -7.973   5.305  66.415  1.00  0.00    -0.103 OA 
HETATM   33  C   UNL     1      -8.461  11.813  68.320  1.00  0.00    -0.161 A  
HETATM   34  O   UNL     1      -8.302  10.561  64.042  1.00  0.00    -0.161 OA 
HETATM   35  O   UNL     1      -8.347   5.663  64.213  1.00  0.00    -0.129 OA 
ENDBRANCH  21  22
ENDBRANCH  20  21
ENDBRANCH   2  20
TORSDOF 6
ENDMDL
MODEL      127
REMARK 921   NORMALIZED FREE ENERGY PREDICTED BY IDOCK:   -6.26 KCAL/MOL
REMARK 922        TOTAL FREE ENERGY PREDICTED BY IDOCK:   -9.75 KCAL/MOL
REMARK 923 INTER-LIGAND FREE ENERGY PREDICTED BY IDOCK:   -8.19 KCAL/MOL
REMARK 924 INTRA-LIGAND FREE ENERGY PREDICTED BY IDOCK:   -1.56 KCAL/MOL
REMARK 927      BINDING AFFINITY PREDICTED BY RF-SCORE:    0.00 PKD
ROOT
HETATM    1  O   UNL     1      -9.657  14.663  65.677  1.00  0.00    -0.480 OA 
HETATM    2  C   UNL     1      -9.923  13.249  65.595  1.00  0.00    -0.230 C  
HETATM    3  H   UNL     1     -10.279  15.108  65.113  1.00  0.00     0.000 HD 
ENDROOT
BRANCH   2   4
HETATM    4  C   UNL     1     -11.370  12.999  66.019  1.00  0.00    -0.310 C  
BRANCH   4   5
HETATM    5  O   UNL     1     -11.631  13.692  67.246  1.00  0.00    -0.318 OA 
BRANCH   5   6
HETATM    6  C   UNL     1     -11.878  12.949  68.368  1.00  0.00    -0.318 A  
HETATM    7  O   UNL     1     -12.790  16.628  73.647  1.00  0.00    -0.408 OA 
HETATM    8  O   UNL     1     -12.775  14.494  74.395  1.00  0.00    -0.130 OA 
HETATM    9  C   UNL     1     -11.983  11.549  68.351  1.00  0.00    -0.268 A  
HETATM   10  C   UNL     1     -12.185  10.827  69.526  1.00  0.00    -0.292 A  
HETATM   11  C   UNL     1     -12.667  15.436  73.430  1.00  0.00    -0.533 C  
HETATM   12  C   UNL     1     -12.286  11.493  70.740  1.00  0.00    -0.472 A  
HETATM   13  O   UNL     1     -12.348  13.457  72.015  1.00  0.00     0.022 OA 
HETATM   14  C   UNL     1     -12.398  14.833  72.097  1.00  0.00    -0.328 C  
HETATM   15  C   UNL     1     -12.204  12.885  70.774  1.00  0.00    -0.260 A  
HETATM   16  C   UNL     1     -12.228  15.661  71.060  1.00  0.00    -0.462 C  
HETATM   17  C   UNL     1     -12.000  13.622  69.599  1.00  0.00    -0.402 A  
HETATM   18  O   UNL     1     -11.770  15.876  68.796  1.00  0.00    -0.387 OA 
HETATM   19  C   UNL     1     -11.967  15.104  69.721  1.00  0.00    -0.334 C  
ENDBRANCH   5   6
ENDBRANCH   4   5
ENDBRANCH   2   4
BRANCH   2  20
HETATM   20  C   UNL     1      -8.919  12.532  66.504  1.00  0.00    -0.132 C  
BRANCH  20  21
HETATM   21  O   UNL     1      -9.032  11.123  66.501  1.00  0.00    -0.167 OA 
BRANCH  21  22
HETATM   22  C   UNL     1      -8.499  10.401  67.544  1.00  0.00    -0.115 A  
HETATM   23  C   UNL     1     -10.542   7.367  68.835  1.00  0.00    -0.191 C  
HETATM   24  C   UNL     1     -10.064   8.334  67.844  1.00  0.00    -0.202 C  
HETATM   25  C   UNL     1      -8.948   9.248  68.233  1.00  0.00    -0.129 A  
HETATM   26  C   UNL     1      -8.256   8.851  69.401  1.00  0.00    -0.107 A  
HETATM   27  C   UNL     1      -9.810   7.140  69.923  1.00  0.00    -0.174 C  
HETATM   28  C   UNL     1      -7.096   9.510  69.825  1.00  0.00    -0.075 A  
HETATM   29  O   UNL     1      -8.639   7.805  70.218  1.00  0.00    -0.135 OA 
HETATM   30  C   UNL     1      -6.612  10.589  69.103  1.00  0.00    -0.057 A  
HETATM   31  C   UNL     1     -10.269   6.051  70.825  1.00  0.00    -0.204 C  
HETATM   32  O   UNL     1      -9.453   5.891  71.889  1.00  0.00    -0.151 OA 
HETATM   33  C   UNL     1      -7.322  11.040  67.993  1.00  0.00    -0.088 A  
HETATM   34  O   UNL     1     -10.565   8.249  66.734  1.00  0.00    -0.306 OA 
HETATM   35  O   UNL     1     -11.260   5.365  70.635  1.00  0.00    -0.051 OA 
ENDBRANCH  21  22
ENDBRANCH  20  21
ENDBRANCH   2  20
TORSDOF 6
ENDMDL
MODEL      128
REMARK 921   NORMALIZED FREE ENERGY PREDICTED BY IDOCK:   -6.25 KCAL/MOL
REMARK 922        TOTAL FREE ENERGY PREDICTED BY IDOCK:   -9.73 KCAL/MOL
REMARK 923 INTER-LIGAND FREE ENERGY PREDICTED BY IDOCK:   -8.93 KCAL/MOL
REMARK 924 INTRA-LIGAND FREE ENERGY PREDICTED BY IDOCK:   -0.80 KCAL/MOL
REMARK 927      BINDING AFFINITY PREDICTED BY RF-SCORE:    0.00 PKD
ROOT
HETATM    1  O   UNL     1      -9.333   9.276  64.903  1.00  0.00    -0.416 OA 
HETATM    2  C   UNL     1      -9.690   8.851  66.233  1.00  0.00    -0.275 C  
HETATM    3  H   UNL     1      -9.973   9.920  64.624  1.00  0.00     0.000 HD 
ENDROOT
BRANCH   2   4
HETATM    4  C   UNL     1      -9.717  10.076  67.148  1.00  0.00    -0.174 C  
BRANCH   4   5
HETATM    5  O   UNL     1     -11.055  10.585  67.216  1.00  0.00    -0.292 OA 
BRANCH   5   6
HETATM    6  C   UNL     1     -11.229  11.941  67.265  1.00  0.00    -0.317 A  
HETATM    7  O   UNL     1     -13.244  13.989  73.095  1.00  0.00    -0.589 OA 
HETATM    8  O   UNL     1     -13.297  15.816  71.763  1.00  0.00    -0.481 OA 
HETATM    9  C   UNL     1     -10.939  12.789  66.185  1.00  0.00    -0.310 A  
HETATM   10  C   UNL     1     -11.179  14.161  66.261  1.00  0.00    -0.329 A  
HETATM   11  C   UNL     1     -13.096  14.499  71.999  1.00  0.00    -0.344 C  
HETATM   12  C   UNL     1     -11.714  14.707  67.419  1.00  0.00    -0.413 A  
HETATM   13  O   UNL     1     -12.488  14.519  69.622  1.00  0.00    -0.279 OA 
HETATM   14  C   UNL     1     -12.666  13.777  70.771  1.00  0.00    -0.290 C  
HETATM   15  C   UNL     1     -11.991  13.883  68.509  1.00  0.00    -0.359 A  
HETATM   16  C   UNL     1     -12.472  12.456  70.859  1.00  0.00    -0.367 C  
HETATM   17  C   UNL     1     -11.755  12.503  68.446  1.00  0.00    -0.375 A  
HETATM   18  O   UNL     1     -11.911  10.494  69.757  1.00  0.00    -0.265 OA 
HETATM   19  C   UNL     1     -12.038  11.705  69.668  1.00  0.00    -0.280 C  
ENDBRANCH   5   6
ENDBRANCH   4   5
ENDBRANCH   2   4
BRANCH   2  20
HETATM   20  C   UNL     1      -8.656   7.813  66.685  1.00  0.00    -0.136 C  
BRANCH  20  21
HETATM   21  O   UNL     1      -8.709   7.497  68.061  1.00  0.00    -0.122 OA 
BRANCH  21  22
HETATM   22  C   UNL     1      -9.104   6.238  68.451  1.00  0.00    -0.114 A  
HETATM   23  C   UNL     1     -10.065   5.748  72.176  1.00  0.00    -0.219 C  
HETATM   24  C   UNL     1      -9.914   6.484  70.920  1.00  0.00    -0.184 C  
HETATM   25  C   UNL     1      -9.539   5.717  69.694  1.00  0.00    -0.193 A  
HETATM   26  C   UNL     1      -9.696   4.317  69.816  1.00  0.00    -0.220 A  
HETATM   27  C   UNL     1     -10.139   4.419  72.142  1.00  0.00    -0.195 C  
HETATM   28  C   UNL     1      -9.529   3.461  68.722  1.00  0.00    -0.201 A  
HETATM   29  O   UNL     1     -10.023   3.668  70.992  1.00  0.00    -0.159 OA 
HETATM   30  C   UNL     1      -9.182   3.982  67.486  1.00  0.00    -0.194 A  
HETATM   31  C   UNL     1     -10.432   3.731  73.427  1.00  0.00    -0.176 C  
HETATM   32  O   UNL     1     -10.500   2.390  73.284  1.00  0.00    -0.117 OA 
HETATM   33  C   UNL     1      -8.949   5.350  67.363  1.00  0.00    -0.108 A  
HETATM   34  O   UNL     1     -10.202   7.670  70.960  1.00  0.00    -0.194 OA 
HETATM   35  O   UNL     1     -10.604   4.298  74.494  1.00  0.00    -0.243 OA 
ENDBRANCH  21  22
ENDBRANCH  20  21
ENDBRANCH   2  20
TORSDOF 6
ENDMDL
MODEL      129
REMARK 921   NORMALIZED FREE ENERGY PREDICTED BY IDOCK:   -6.25 KCAL/MOL
REMARK 922        TOTAL FREE ENERGY PREDICTED BY IDOCK:   -9.73 KCAL/MOL
REMARK 923 INTER-LIGAND FREE ENERGY PREDICTED BY IDOCK:   -6.78 KCAL/MOL
REMARK 924 INTRA-LIGAND FREE ENERGY PREDICTED BY IDOCK:   -2.95 KCAL/MOL
REMARK 927      BINDING AFFINITY PREDICTED BY RF-SCORE:    0.00 PKD
ROOT
HETATM    1  O   UNL     1      -8.581   7.895  71.649  1.00  0.00    -0.109 OA 
HETATM    2  C   UNL     1      -9.557   7.367  70.731  1.00  0.00    -0.170 C  
HETATM    3  H   UNL     1      -8.120   7.160  72.037  1.00  0.00     0.000 HD 
ENDROOT
BRANCH   2   4
HETATM    4  C   UNL     1      -8.836   6.519  69.684  1.00  0.00    -0.138 C  
BRANCH   4   5
HETATM    5  O   UNL     1      -9.098   7.053  68.380  1.00  0.00    -0.129 OA 
BRANCH   5   6
HETATM    6  C   UNL     1      -8.031   7.426  67.608  1.00  0.00    -0.114 A  
HETATM    7  O   UNL     1      -9.728  11.410  62.761  1.00  0.00    -0.335 OA 
HETATM    8  O   UNL     1      -7.542  10.943  62.421  1.00  0.00    -0.138 OA 
HETATM    9  C   UNL     1      -6.713   7.033  67.885  1.00  0.00    -0.065 A  
HETATM   10  C   UNL     1      -5.661   7.394  67.043  1.00  0.00    -0.027 A  
HETATM   11  C   UNL     1      -8.714  10.817  63.084  1.00  0.00    -0.169 C  
HETATM   12  C   UNL     1      -5.911   8.154  65.909  1.00  0.00    -0.038 A  
HETATM   13  O   UNL     1      -7.357   9.346  64.503  1.00  0.00    -0.099 OA 
HETATM   14  C   UNL     1      -8.598   9.889  64.240  1.00  0.00    -0.188 C  
HETATM   15  C   UNL     1      -7.212   8.570  65.628  1.00  0.00    -0.079 A  
HETATM   16  C   UNL     1      -9.700   9.643  64.958  1.00  0.00    -0.234 C  
HETATM   17  C   UNL     1      -8.278   8.214  66.466  1.00  0.00    -0.107 A  
HETATM   18  O   UNL     1     -10.652   8.488  66.731  1.00  0.00    -0.283 OA 
HETATM   19  C   UNL     1      -9.626   8.735  66.116  1.00  0.00    -0.253 C  
ENDBRANCH   5   6
ENDBRANCH   4   5
ENDBRANCH   2   4
BRANCH   2  20
HETATM   20  C   UNL     1     -10.300   8.553  70.106  1.00  0.00    -0.207 C  
BRANCH  20  21
HETATM   21  O   UNL     1      -9.769   9.818  70.443  1.00  0.00    -0.255 OA 
BRANCH  21  22
HETATM   22  C   UNL     1      -9.313  10.648  69.444  1.00  0.00    -0.059 A  
HETATM   23  C   UNL     1     -11.973  12.534  67.345  1.00  0.00    -0.283 C  
HETATM   24  C   UNL     1     -11.423  11.888  68.539  1.00  0.00    -0.295 C  
HETATM   25  C   UNL     1      -9.983  11.489  68.523  1.00  0.00    -0.207 A  
HETATM   26  C   UNL     1      -9.230  12.079  67.482  1.00  0.00    -0.180 A  
HETATM   27  C   UNL     1     -11.139  12.989  66.413  1.00  0.00    -0.287 C  
HETATM   28  C   UNL     1      -7.840  11.928  67.405  1.00  0.00    -0.158 A  
HETATM   29  O   UNL     1      -9.769  12.843  66.465  1.00  0.00    -0.246 OA 
HETATM   30  C   UNL     1      -7.176  11.170  68.356  1.00  0.00    -0.083 A  
HETATM   31  C   UNL     1     -11.741  13.758  65.292  1.00  0.00    -0.338 C  
HETATM   32  O   UNL     1     -10.813  14.187  64.411  1.00  0.00    -0.353 OA 
HETATM   33  C   UNL     1      -7.910  10.520  69.345  1.00  0.00    -0.151 A  
HETATM   34  O   UNL     1     -12.176  11.812  69.497  1.00  0.00    -0.258 OA 
HETATM   35  O   UNL     1     -12.933  13.993  65.174  1.00  0.00    -0.744 OA 
ENDBRANCH  21  22
ENDBRANCH  20  21
ENDBRANCH   2  20
TORSDOF 6
ENDMDL
MODEL      130
REMARK 921   NORMALIZED FREE ENERGY PREDICTED BY IDOCK:   -6.24 KCAL/MOL
REMARK 922        TOTAL FREE ENERGY PREDICTED BY IDOCK:   -9.72 KCAL/MOL
REMARK 923 INTER-LIGAND FREE ENERGY PREDICTED BY IDOCK:   -9.40 KCAL/MOL
REMARK 924 INTRA-LIGAND FREE ENERGY PREDICTED BY IDOCK:   -0.32 KCAL/MOL
REMARK 927      BINDING AFFINITY PREDICTED BY RF-SCORE:    0.00 PKD
ROOT
HETATM    1  O   UNL     1     -10.025   9.359  65.509  1.00  0.00    -0.421 OA 
HETATM    2  C   UNL     1     -10.775   9.243  66.734  1.00  0.00    -0.050 C  
HETATM    3  H   UNL     1     -10.357  10.114  65.037  1.00  0.00     0.000 HD 
ENDROOT
BRANCH   2   4
HETATM    4  C   UNL     1     -10.618  10.539  67.529  1.00  0.00    -0.259 C  
BRANCH   4   5
HETATM    5  O   UNL     1     -11.786  11.350  67.347  1.00  0.00    -0.574 OA 
BRANCH   5   6
HETATM    6  C   UNL     1     -11.736  12.356  66.422  1.00  0.00    -0.391 A  
HETATM    7  O   UNL     1      -9.976  18.049  69.016  1.00  0.00    -0.357 OA 
HETATM    8  O   UNL     1     -10.522  18.508  66.870  1.00  0.00    -0.378 OA 
HETATM    9  C   UNL     1     -11.980  12.151  65.055  1.00  0.00    -0.343 A  
HETATM   10  C   UNL     1     -11.969  13.214  64.153  1.00  0.00    -0.499 A  
HETATM   11  C   UNL     1     -10.388  17.680  67.931  1.00  0.00    -0.371 C  
HETATM   12  C   UNL     1     -11.714  14.502  64.603  1.00  0.00    -0.438 A  
HETATM   13  O   UNL     1     -11.177  16.025  66.301  1.00  0.00    -0.055 OA 
HETATM   14  C   UNL     1     -10.789  16.286  67.599  1.00  0.00    -0.293 C  
HETATM   15  C   UNL     1     -11.450  14.723  65.955  1.00  0.00    -0.316 A  
HETATM   16  C   UNL     1     -10.744  15.373  68.575  1.00  0.00    -0.256 C  
HETATM   17  C   UNL     1     -11.459  13.662  66.872  1.00  0.00    -0.369 A  
HETATM   18  O   UNL     1     -11.121  13.171  69.201  1.00  0.00    -0.245 OA 
HETATM   19  C   UNL     1     -11.126  13.980  68.286  1.00  0.00    -0.254 C  
ENDBRANCH   5   6
ENDBRANCH   4   5
ENDBRANCH   2   4
BRANCH   2  20
HETATM   20  C   UNL     1     -10.238   8.026  67.497  1.00  0.00    -0.245 C  
BRANCH  20  21
HETATM   21  O   UNL     1     -10.883   6.809  67.181  1.00  0.00    -0.324 OA 
BRANCH  21  22
HETATM   22  C   UNL     1     -10.437   5.640  67.755  1.00  0.00    -0.211 A  
HETATM   23  C   UNL     1     -10.488   5.426  71.627  1.00  0.00    -0.291 C  
HETATM   24  C   UNL     1     -10.937   5.870  70.306  1.00  0.00    -0.320 C  
HETATM   25  C   UNL     1     -10.342   5.215  69.102  1.00  0.00    -0.226 A  
HETATM   26  C   UNL     1      -9.655   4.010  69.379  1.00  0.00    -0.187 A  
HETATM   27  C   UNL     1      -9.793   4.295  71.728  1.00  0.00    -0.180 C  
HETATM   28  C   UNL     1      -9.161   3.195  68.354  1.00  0.00    -0.235 A  
HETATM   29  O   UNL     1      -9.408   3.527  70.650  1.00  0.00    -0.130 OA 
HETATM   30  C   UNL     1      -9.327   3.574  67.032  1.00  0.00    -0.221 A  
HETATM   31  C   UNL     1      -9.482   3.819  73.101  1.00  0.00    -0.109 C  
HETATM   32  O   UNL     1      -8.788   2.661  73.096  1.00  0.00    -0.077 OA 
HETATM   33  C   UNL     1      -9.934   4.793  66.742  1.00  0.00    -0.253 A  
HETATM   34  O   UNL     1     -11.845   6.687  70.299  1.00  0.00    -0.395 OA 
HETATM   35  O   UNL     1      -9.818   4.392  74.126  1.00  0.00    -0.125 OA 
ENDBRANCH  21  22
ENDBRANCH  20  21
ENDBRANCH   2  20
TORSDOF 6
ENDMDL
MODEL      131
REMARK 921   NORMALIZED FREE ENERGY PREDICTED BY IDOCK:   -6.18 KCAL/MOL
REMARK 922        TOTAL FREE ENERGY PREDICTED BY IDOCK:   -9.64 KCAL/MOL
REMARK 923 INTER-LIGAND FREE ENERGY PREDICTED BY IDOCK:   -9.41 KCAL/MOL
REMARK 924 INTRA-LIGAND FREE ENERGY PREDICTED BY IDOCK:   -0.23 KCAL/MOL
REMARK 927      BINDING AFFINITY PREDICTED BY RF-SCORE:    0.00 PKD
ROOT
HETATM    1  O   UNL     1     -11.242   9.500  67.639  1.00  0.00    -0.472 OA 
HETATM    2  C   UNL     1     -10.822  10.304  68.759  1.00  0.00    -0.230 C  
HETATM    3  H   UNL     1     -11.175   8.588  67.895  1.00  0.00     0.000 HD 
ENDROOT
BRANCH   2   4
HETATM    4  C   UNL     1     -11.708   9.973  69.959  1.00  0.00    -0.175 C  
BRANCH   4   5
HETATM    5  O   UNL     1     -10.895   9.872  71.135  1.00  0.00    -0.309 OA 
BRANCH   5   6
HETATM    6  C   UNL     1      -9.841   9.001  71.120  1.00  0.00    -0.300 A  
HETATM    7  O   UNL     1     -11.385   3.169  73.536  1.00  0.00    -0.224 OA 
HETATM    8  O   UNL     1      -9.156   3.096  73.163  1.00  0.00    -0.089 OA 
HETATM    9  C   UNL     1      -8.587   9.327  70.579  1.00  0.00    -0.271 A  
HETATM   10  C   UNL     1      -7.523   8.426  70.630  1.00  0.00    -0.065 A  
HETATM   11  C   UNL     1     -10.358   3.718  73.181  1.00  0.00    -0.165 C  
HETATM   12  C   UNL     1      -7.696   7.183  71.223  1.00  0.00    -0.093 A  
HETATM   13  O   UNL     1      -9.025   5.572  72.285  1.00  0.00    -0.139 OA 
HETATM   14  C   UNL     1     -10.259   5.124  72.708  1.00  0.00    -0.179 C  
HETATM   15  C   UNL     1      -8.941   6.834  71.748  1.00  0.00    -0.139 A  
HETATM   16  C   UNL     1     -11.372   5.866  72.716  1.00  0.00    -0.305 C  
HETATM   17  C   UNL     1     -10.017   7.731  71.704  1.00  0.00    -0.213 A  
HETATM   18  O   UNL     1     -12.336   7.936  72.305  1.00  0.00    -0.305 OA 
HETATM   19  C   UNL     1     -11.319   7.262  72.248  1.00  0.00    -0.272 C  
ENDBRANCH   5   6
ENDBRANCH   4   5
ENDBRANCH   2   4
BRANCH   2  20
HETATM   20  C   UNL     1     -10.931  11.776  68.345  1.00  0.00    -0.231 C  
BRANCH  20  21
HETATM   21  O   UNL     1     -12.105  12.422  68.793  1.00  0.00    -0.269 OA 
BRANCH  21  22
HETATM   22  C   UNL     1     -12.007  13.650  69.407  1.00  0.00    -0.342 A  
HETATM   23  C   UNL     1     -10.535  16.570  67.321  1.00  0.00    -0.304 C  
HETATM   24  C   UNL     1     -11.255  15.314  67.542  1.00  0.00    -0.317 C  
HETATM   25  C   UNL     1     -11.554  14.911  68.950  1.00  0.00    -0.339 A  
HETATM   26  C   UNL     1     -11.401  15.953  69.895  1.00  0.00    -0.348 A  
HETATM   27  C   UNL     1     -10.417  17.433  68.328  1.00  0.00    -0.385 C  
HETATM   28  C   UNL     1     -11.777  15.790  71.233  1.00  0.00    -0.496 A  
HETATM   29  O   UNL     1     -10.882  17.200  69.604  1.00  0.00    -0.170 OA 
HETATM   30  C   UNL     1     -12.296  14.578  71.661  1.00  0.00    -0.420 A  
HETATM   31  C   UNL     1      -9.801  18.750  68.013  1.00  0.00    -0.343 C  
HETATM   32  O   UNL     1      -9.740  19.556  69.094  1.00  0.00    -0.415 OA 
HETATM   33  C   UNL     1     -12.384  13.519  70.762  1.00  0.00    -0.440 A  
HETATM   34  O   UNL     1     -11.638  14.736  66.537  1.00  0.00    -0.355 OA 
HETATM   35  O   UNL     1      -9.403  19.082  66.909  1.00  0.00    -0.294 OA 
ENDBRANCH  21  22
ENDBRANCH  20  21
ENDBRANCH   2  20
TORSDOF 6
ENDMDL
MODEL      132
REMARK 921   NORMALIZED FREE ENERGY PREDICTED BY IDOCK:   -6.16 KCAL/MOL
REMARK 922        TOTAL FREE ENERGY PREDICTED BY IDOCK:   -9.62 KCAL/MOL
REMARK 923 INTER-LIGAND FREE ENERGY PREDICTED BY IDOCK:   -7.70 KCAL/MOL
REMARK 924 INTRA-LIGAND FREE ENERGY PREDICTED BY IDOCK:   -1.92 KCAL/MOL
REMARK 927      BINDING AFFINITY PREDICTED BY RF-SCORE:    0.00 PKD
ROOT
HETATM    1  O   UNL     1     -12.475   6.232  72.561  1.00  0.00    -0.542 OA 
HETATM    2  C   UNL     1     -11.271   6.705  71.924  1.00  0.00    -0.264 C  
HETATM    3  H   UNL     1     -13.059   6.975  72.663  1.00  0.00     0.000 HD 
ENDROOT
BRANCH   2   4
HETATM    4  C   UNL     1     -11.643   7.337  70.583  1.00  0.00    -0.290 C  
BRANCH   4   5
HETATM    5  O   UNL     1     -11.922   8.730  70.777  1.00  0.00    -0.246 OA 
BRANCH   5   6
HETATM    6  C   UNL     1     -11.510   9.612  69.817  1.00  0.00    -0.052 A  
HETATM    7  O   UNL     1     -12.917  15.776  71.318  1.00  0.00    -0.489 OA 
HETATM    8  O   UNL     1     -12.090  15.842  69.215  1.00  0.00    -0.350 OA 
HETATM    9  C   UNL     1     -10.805   9.218  68.669  1.00  0.00    -0.120 A  
HETATM   10  C   UNL     1     -10.448  10.144  67.689  1.00  0.00    -0.293 A  
HETATM   11  C   UNL     1     -12.483  15.199  70.338  1.00  0.00    -0.368 C  
HETATM   12  C   UNL     1     -10.791  11.480  67.841  1.00  0.00    -0.257 A  
HETATM   13  O   UNL     1     -11.741  13.239  69.062  1.00  0.00    -0.281 OA 
HETATM   14  C   UNL     1     -12.304  13.727  70.223  1.00  0.00    -0.337 C  
HETATM   15  C   UNL     1     -11.474  11.893  68.985  1.00  0.00    -0.297 A  
HETATM   16  C   UNL     1     -12.694  12.967  71.253  1.00  0.00    -0.371 C  
HETATM   17  C   UNL     1     -11.839  10.972  69.976  1.00  0.00    -0.435 A  
HETATM   18  O   UNL     1     -12.931  10.826  72.113  1.00  0.00    -0.424 OA 
HETATM   19  C   UNL     1     -12.527  11.505  71.182  1.00  0.00    -0.337 C  
ENDBRANCH   5   6
ENDBRANCH   4   5
ENDBRANCH   2   4
BRANCH   2  20
HETATM   20  C   UNL     1     -10.329   5.507  71.759  1.00  0.00    -0.216 C  
BRANCH  20  21
HETATM   21  O   UNL     1      -8.955   5.834  71.802  1.00  0.00    -0.139 OA 
BRANCH  21  22
HETATM   22  C   UNL     1      -8.321   6.241  70.651  1.00  0.00    -0.133 A  
HETATM   23  C   UNL     1      -7.593  10.031  70.264  1.00  0.00    -0.122 C  
HETATM   24  C   UNL     1      -7.799   8.776  70.989  1.00  0.00    -0.123 C  
HETATM   25  C   UNL     1      -7.887   7.511  70.199  1.00  0.00    -0.098 A  
HETATM   26  C   UNL     1      -7.429   7.628  68.866  1.00  0.00    -0.096 A  
HETATM   27  C   UNL     1      -7.219   9.986  68.987  1.00  0.00    -0.076 C  
HETATM   28  C   UNL     1      -7.307   6.512  68.031  1.00  0.00    -0.090 A  
HETATM   29  O   UNL     1      -7.065   8.820  68.268  1.00  0.00    -0.075 OA 
HETATM   30  C   UNL     1      -7.656   5.257  68.503  1.00  0.00    -0.079 A  
HETATM   31  C   UNL     1      -6.888  11.282  68.339  1.00  0.00    -0.063 C  
HETATM   32  O   UNL     1      -6.508  11.128  67.053  1.00  0.00    -0.086 OA 
HETATM   33  C   UNL     1      -8.180   5.132  69.787  1.00  0.00    -0.089 A  
HETATM   34  O   UNL     1      -7.790   8.858  72.208  1.00  0.00    -0.361 OA 
HETATM   35  O   UNL     1      -6.939  12.368  68.895  1.00  0.00    -0.096 OA 
ENDBRANCH  21  22
ENDBRANCH  20  21
ENDBRANCH   2  20
TORSDOF 6
ENDMDL
MODEL      133
REMARK 921   NORMALIZED FREE ENERGY PREDICTED BY IDOCK:   -6.15 KCAL/MOL
REMARK 922        TOTAL FREE ENERGY PREDICTED BY IDOCK:   -9.61 KCAL/MOL
REMARK 923 INTER-LIGAND FREE ENERGY PREDICTED BY IDOCK:   -8.03 KCAL/MOL
REMARK 924 INTRA-LIGAND FREE ENERGY PREDICTED BY IDOCK:   -1.58 KCAL/MOL
REMARK 927      BINDING AFFINITY PREDICTED BY RF-SCORE:    0.00 PKD
ROOT
HETATM    1  O   UNL     1     -13.137  12.410  64.595  1.00  0.00    -0.825 OA 
HETATM    2  C   UNL     1     -12.432  13.478  65.258  1.00  0.00    -0.482 C  
HETATM    3  H   UNL     1     -13.308  12.687  63.702  1.00  0.00     0.000 HD 
ENDROOT
BRANCH   2   4
HETATM    4  C   UNL     1     -11.146  13.769  64.486  1.00  0.00    -0.380 C  
BRANCH   4   5
HETATM    5  O   UNL     1     -10.058  13.060  65.094  1.00  0.00    -0.279 OA 
BRANCH   5   6
HETATM    6  C   UNL     1      -9.608  11.922  64.483  1.00  0.00    -0.021 A  
HETATM    7  O   UNL     1      -5.624   8.463  68.278  1.00  0.00    -0.033 OA 
HETATM    8  O   UNL     1      -5.590   7.429  66.267  1.00  0.00    -0.026 OA 
HETATM    9  C   UNL     1     -10.020  11.528  63.201  1.00  0.00    -0.404 A  
HETATM   10  C   UNL     1      -9.496  10.386  62.594  1.00  0.00    -0.324 A  
HETATM   11  C   UNL     1      -5.976   8.411  67.113  1.00  0.00    -0.054 C  
HETATM   12  C   UNL     1      -8.550   9.620  63.261  1.00  0.00    -0.210 A  
HETATM   13  O   UNL     1      -7.228   9.149  65.136  1.00  0.00    -0.087 OA 
HETATM   14  C   UNL     1      -6.879   9.389  66.449  1.00  0.00    -0.083 C  
HETATM   15  C   UNL     1      -8.143   9.986  64.544  1.00  0.00    -0.156 A  
HETATM   16  C   UNL     1      -7.302  10.436  67.166  1.00  0.00    -0.092 C  
HETATM   17  C   UNL     1      -8.661  11.131  65.164  1.00  0.00     0.005 A  
HETATM   18  O   UNL     1      -8.542  12.396  67.204  1.00  0.00    -0.177 OA 
HETATM   19  C   UNL     1      -8.204  11.424  66.548  1.00  0.00    -0.152 C  
ENDBRANCH   5   6
ENDBRANCH   4   5
ENDBRANCH   2   4
BRANCH   2  20
HETATM   20  C   UNL     1     -12.157  13.032  66.698  1.00  0.00    -0.319 C  
BRANCH  20  21
HETATM   21  O   UNL     1     -11.988  11.637  66.856  1.00  0.00    -0.567 OA 
BRANCH  21  22
HETATM   22  C   UNL     1     -11.714  11.126  68.104  1.00  0.00    -0.232 A  
HETATM   23  C   UNL     1     -10.659   7.399  68.307  1.00  0.00    -0.204 C  
HETATM   24  C   UNL     1     -10.782   8.723  67.693  1.00  0.00    -0.136 C  
HETATM   25  C   UNL     1     -11.287   9.848  68.537  1.00  0.00    -0.049 A  
HETATM   26  C   UNL     1     -11.274   9.579  69.926  1.00  0.00    -0.178 A  
HETATM   27  C   UNL     1     -10.728   7.292  69.632  1.00  0.00    -0.236 C  
HETATM   28  C   UNL     1     -11.577  10.570  70.867  1.00  0.00    -0.385 A  
HETATM   29  O   UNL     1     -10.971   8.351  70.481  1.00  0.00    -0.237 OA 
HETATM   30  C   UNL     1     -11.916  11.845  70.442  1.00  0.00    -0.400 A  
HETATM   31  C   UNL     1     -10.458   5.950  70.211  1.00  0.00    -0.261 C  
HETATM   32  O   UNL     1     -10.539   5.949  71.558  1.00  0.00    -0.228 OA 
HETATM   33  C   UNL     1     -12.007  12.107  69.077  1.00  0.00    -0.302 A  
HETATM   34  O   UNL     1     -10.368   8.819  66.548  1.00  0.00    -0.279 OA 
HETATM   35  O   UNL     1     -10.183   4.956  69.558  1.00  0.00    -0.234 OA 
ENDBRANCH  21  22
ENDBRANCH  20  21
ENDBRANCH   2  20
TORSDOF 6
ENDMDL
MODEL      134
REMARK 921   NORMALIZED FREE ENERGY PREDICTED BY IDOCK:   -6.15 KCAL/MOL
REMARK 922        TOTAL FREE ENERGY PREDICTED BY IDOCK:   -9.60 KCAL/MOL
REMARK 923 INTER-LIGAND FREE ENERGY PREDICTED BY IDOCK:   -7.25 KCAL/MOL
REMARK 924 INTRA-LIGAND FREE ENERGY PREDICTED BY IDOCK:   -2.35 KCAL/MOL
REMARK 927      BINDING AFFINITY PREDICTED BY RF-SCORE:    0.00 PKD
ROOT
HETATM    1  O   UNL     1     -11.974   6.743  72.757  1.00  0.00    -0.485 OA 
HETATM    2  C   UNL     1     -10.865   6.939  71.859  1.00  0.00    -0.229 C  
HETATM    3  H   UNL     1     -12.499   7.535  72.746  1.00  0.00     0.000 HD 
ENDROOT
BRANCH   2   4
HETATM    4  C   UNL     1     -11.411   7.251  70.466  1.00  0.00    -0.279 C  
BRANCH   4   5
HETATM    5  O   UNL     1     -11.372   8.668  70.249  1.00  0.00    -0.235 OA 
BRANCH   5   6
HETATM    6  C   UNL     1     -11.011   9.122  69.010  1.00  0.00    -0.008 A  
HETATM    7  O   UNL     1     -11.902  15.525  68.341  1.00  0.00    -0.351 OA 
HETATM    8  O   UNL     1     -11.293  14.784  66.294  1.00  0.00    -0.343 OA 
HETATM    9  C   UNL     1     -10.452   8.294  68.025  1.00  0.00    -0.239 A  
HETATM   10  C   UNL     1     -10.145   8.787  66.757  1.00  0.00    -0.359 A  
HETATM   11  C   UNL     1     -11.605  14.607  67.598  1.00  0.00    -0.361 C  
HETATM   12  C   UNL     1     -10.394  10.118  66.453  1.00  0.00    -0.258 A  
HETATM   13  O   UNL     1     -11.111  12.269  67.043  1.00  0.00    -0.258 OA 
HETATM   14  C   UNL     1     -11.523  13.176  67.997  1.00  0.00    -0.311 C  
HETATM   15  C   UNL     1     -10.931  10.961  67.426  1.00  0.00    -0.293 A  
HETATM   16  C   UNL     1     -11.848  12.858  69.255  1.00  0.00    -0.363 C  
HETATM   17  C   UNL     1     -11.244  10.477  68.704  1.00  0.00    -0.328 A  
HETATM   18  O   UNL     1     -12.117  11.178  70.831  1.00  0.00    -0.346 OA 
HETATM   19  C   UNL     1     -11.773  11.454  69.693  1.00  0.00    -0.345 C  
ENDBRANCH   5   6
ENDBRANCH   4   5
ENDBRANCH   2   4
BRANCH   2  20
HETATM   20  C   UNL     1     -10.018   5.661  71.876  1.00  0.00    -0.180 C  
BRANCH  20  21
HETATM   21  O   UNL     1      -8.624   5.885  71.929  1.00  0.00    -0.135 OA 
BRANCH  21  22
HETATM   22  C   UNL     1      -7.955   6.254  70.784  1.00  0.00    -0.112 A  
HETATM   23  C   UNL     1      -7.749  10.045  69.988  1.00  0.00    -0.181 C  
HETATM   24  C   UNL     1      -7.836   8.860  70.846  1.00  0.00    -0.133 C  
HETATM   25  C   UNL     1      -7.670   7.518  70.212  1.00  0.00    -0.092 A  
HETATM   26  C   UNL     1      -7.117   7.556  68.911  1.00  0.00    -0.080 A  
HETATM   27  C   UNL     1      -7.260   9.916  68.756  1.00  0.00    -0.076 C  
HETATM   28  C   UNL     1      -6.762   6.386  68.230  1.00  0.00    -0.068 A  
HETATM   29  O   UNL     1      -6.877   8.715  68.199  1.00  0.00    -0.067 OA 
HETATM   30  C   UNL     1      -6.967   5.152  68.826  1.00  0.00    -0.053 A  
HETATM   31  C   UNL     1      -7.064  11.169  67.980  1.00  0.00    -0.073 C  
HETATM   32  O   UNL     1      -6.553  10.933  66.752  1.00  0.00    -0.097 OA 
HETATM   33  C   UNL     1      -7.579   5.092  70.076  1.00  0.00    -0.060 A  
HETATM   34  O   UNL     1      -7.947   9.078  72.043  1.00  0.00    -0.356 OA 
HETATM   35  O   UNL     1      -7.320  12.288  68.393  1.00  0.00    -0.096 OA 
ENDBRANCH  21  22
ENDBRANCH  20  21
ENDBRANCH   2  20
TORSDOF 6
ENDMDL
MODEL      135
REMARK 921   NORMALIZED FREE ENERGY PREDICTED BY IDOCK:   -6.14 KCAL/MOL
REMARK 922        TOTAL FREE ENERGY PREDICTED BY IDOCK:   -9.59 KCAL/MOL
REMARK 923 INTER-LIGAND FREE ENERGY PREDICTED BY IDOCK:   -7.70 KCAL/MOL
REMARK 924 INTRA-LIGAND FREE ENERGY PREDICTED BY IDOCK:   -1.90 KCAL/MOL
REMARK 927      BINDING AFFINITY PREDICTED BY RF-SCORE:    0.00 PKD
ROOT
HETATM    1  O   UNL     1      -9.638  12.273  64.663  1.00  0.00    -0.461 OA 
HETATM    2  C   UNL     1      -9.321  10.870  64.750  1.00  0.00    -0.226 C  
HETATM    3  H   UNL     1     -10.546  12.349  64.394  1.00  0.00     0.000 HD 
ENDROOT
BRANCH   2   4
HETATM    4  C   UNL     1     -10.277  10.213  65.745  1.00  0.00    -0.213 C  
BRANCH   4   5
HETATM    5  O   UNL     1     -10.860  11.223  66.579  1.00  0.00    -0.271 OA 
BRANCH   5   6
HETATM    6  C   UNL     1     -11.091  10.922  67.893  1.00  0.00    -0.302 A  
HETATM    7  O   UNL     1     -13.513  15.954  71.217  1.00  0.00    -0.499 OA 
HETATM    8  O   UNL     1     -13.131  14.342  72.757  1.00  0.00    -0.454 OA 
HETATM    9  C   UNL     1     -10.881   9.644  68.434  1.00  0.00    -0.212 A  
HETATM   10  C   UNL     1     -11.080   9.393  69.791  1.00  0.00    -0.193 A  
HETATM   11  C   UNL     1     -13.101  14.843  71.501  1.00  0.00    -0.356 C  
HETATM   12  C   UNL     1     -11.492  10.418  70.631  1.00  0.00    -0.438 A  
HETATM   13  O   UNL     1     -12.161  12.631  71.010  1.00  0.00    -0.304 OA 
HETATM   14  C   UNL     1     -12.524  13.873  70.532  1.00  0.00    -0.352 C  
HETATM   15  C   UNL     1     -11.724  11.690  70.109  1.00  0.00    -0.296 A  
HETATM   16  C   UNL     1     -12.399  14.261  69.258  1.00  0.00    -0.197 C  
HETATM   17  C   UNL     1     -11.527  11.955  68.746  1.00  0.00    -0.347 A  
HETATM   18  O   UNL     1     -11.690  13.716  67.117  1.00  0.00    -0.340 OA 
HETATM   19  C   UNL     1     -11.839  13.327  68.266  1.00  0.00    -0.354 C  
ENDBRANCH   5   6
ENDBRANCH   4   5
ENDBRANCH   2   4
BRANCH   2  20
HETATM   20  C   UNL     1      -7.856  10.749  65.186  1.00  0.00     0.068 C  
BRANCH  20  21
HETATM   21  O   UNL     1      -7.619   9.763  66.170  1.00  0.00    -0.097 OA 
BRANCH  21  22
HETATM   22  C   UNL     1      -7.280  10.150  67.447  1.00  0.00    -0.088 A  
HETATM   23  C   UNL     1      -7.835   7.574  70.293  1.00  0.00    -0.094 C  
HETATM   24  C   UNL     1      -7.551   8.017  68.926  1.00  0.00    -0.099 C  
HETATM   25  C   UNL     1      -7.324   9.475  68.691  1.00  0.00    -0.075 A  
HETATM   26  C   UNL     1      -7.080  10.220  69.868  1.00  0.00    -0.152 A  
HETATM   27  C   UNL     1      -7.612   8.412  71.304  1.00  0.00    -0.092 C  
HETATM   28  C   UNL     1      -6.706  11.568  69.818  1.00  0.00    -0.047 A  
HETATM   29  O   UNL     1      -7.180   9.712  71.148  1.00  0.00    -0.328 OA 
HETATM   30  C   UNL     1      -6.586  12.206  68.594  1.00  0.00    -0.077 A  
HETATM   31  C   UNL     1      -7.784   7.867  72.676  1.00  0.00    -0.114 C  
HETATM   32  O   UNL     1      -7.522   8.788  73.628  1.00  0.00    -0.385 OA 
HETATM   33  C   UNL     1      -6.894  11.508  67.428  1.00  0.00    -0.104 A  
HETATM   34  O   UNL     1      -7.430   7.131  68.094  1.00  0.00    -0.094 OA 
HETATM   35  O   UNL     1      -8.112   6.719  72.930  1.00  0.00    -0.105 OA 
ENDBRANCH  21  22
ENDBRANCH  20  21
ENDBRANCH   2  20
TORSDOF 6
ENDMDL
MODEL      136
REMARK 921   NORMALIZED FREE ENERGY PREDICTED BY IDOCK:   -6.13 KCAL/MOL
REMARK 922        TOTAL FREE ENERGY PREDICTED BY IDOCK:   -9.58 KCAL/MOL
REMARK 923 INTER-LIGAND FREE ENERGY PREDICTED BY IDOCK:   -7.61 KCAL/MOL
REMARK 924 INTRA-LIGAND FREE ENERGY PREDICTED BY IDOCK:   -1.98 KCAL/MOL
REMARK 927      BINDING AFFINITY PREDICTED BY RF-SCORE:    0.00 PKD
ROOT
HETATM    1  O   UNL     1      -7.003   6.291  66.110  1.00  0.00    -0.062 OA 
HETATM    2  C   UNL     1      -8.177   6.342  65.277  1.00  0.00    -0.137 C  
HETATM    3  H   UNL     1      -7.232   5.824  66.905  1.00  0.00     0.000 HD 
ENDROOT
BRANCH   2   4
HETATM    4  C   UNL     1      -8.640   4.913  64.995  1.00  0.00    -0.147 C  
BRANCH   4   5
HETATM    5  O   UNL     1      -9.801   4.627  65.785  1.00  0.00    -0.182 OA 
BRANCH   5   6
HETATM    6  C   UNL     1      -9.620   4.087  67.029  1.00  0.00    -0.201 A  
HETATM    7  O   UNL     1     -12.421   7.616  71.713  1.00  0.00    -0.309 OA 
HETATM    8  O   UNL     1     -11.265   5.997  72.788  1.00  0.00    -0.260 OA 
HETATM    9  C   UNL     1      -8.953   2.871  67.246  1.00  0.00    -0.185 A  
HETATM   10  C   UNL     1      -8.745   2.383  68.535  1.00  0.00    -0.131 A  
HETATM   11  C   UNL     1     -11.673   6.655  71.679  1.00  0.00    -0.316 C  
HETATM   12  C   UNL     1      -9.201   3.103  69.631  1.00  0.00    -0.221 A  
HETATM   13  O   UNL     1     -10.324   4.929  70.576  1.00  0.00    -0.239 OA 
HETATM   14  C   UNL     1     -11.109   6.055  70.441  1.00  0.00    -0.329 C  
HETATM   15  C   UNL     1      -9.882   4.304  69.434  1.00  0.00    -0.135 A  
HETATM   16  C   UNL     1     -11.402   6.639  69.273  1.00  0.00    -0.301 C  
HETATM   17  C   UNL     1     -10.097   4.806  68.143  1.00  0.00    -0.105 A  
HETATM   18  O   UNL     1     -11.111   6.644  66.972  1.00  0.00    -0.403 OA 
HETATM   19  C   UNL     1     -10.869   6.071  68.023  1.00  0.00    -0.287 C  
ENDBRANCH   5   6
ENDBRANCH   4   5
ENDBRANCH   2   4
BRANCH   2  20
HETATM   20  C   UNL     1      -7.807   7.095  63.994  1.00  0.00    -0.113 C  
BRANCH  20  21
HETATM   21  O   UNL     1      -7.457   8.450  64.192  1.00  0.00    -0.101 OA 
BRANCH  21  22
HETATM   22  C   UNL     1      -8.440   9.365  64.493  1.00  0.00    -0.177 A  
HETATM   23  C   UNL     1      -9.507   9.671  68.210  1.00  0.00    -0.145 C  
HETATM   24  C   UNL     1      -8.590   9.407  67.099  1.00  0.00    -0.128 C  
HETATM   25  C   UNL     1      -9.041   9.750  65.716  1.00  0.00    -0.221 A  
HETATM   26  C   UNL     1     -10.173  10.597  65.670  1.00  0.00    -0.253 A  
HETATM   27  C   UNL     1     -10.571  10.442  68.001  1.00  0.00    -0.221 C  
HETATM   28  C   UNL     1     -10.641  11.131  64.464  1.00  0.00    -0.397 A  
HETATM   29  O   UNL     1     -10.911  10.975  66.775  1.00  0.00    -0.267 OA 
HETATM   30  C   UNL     1     -10.000  10.816  63.276  1.00  0.00    -0.369 A  
HETATM   31  C   UNL     1     -11.390  10.791  69.192  1.00  0.00    -0.282 C  
HETATM   32  O   UNL     1     -12.435  11.586  68.878  1.00  0.00    -0.331 OA 
HETATM   33  C   UNL     1      -8.931   9.925  63.294  1.00  0.00    -0.276 A  
HETATM   34  O   UNL     1      -7.478   9.009  67.410  1.00  0.00    -0.084 OA 
HETATM   35  O   UNL     1     -11.153  10.419  70.329  1.00  0.00    -0.288 OA 
ENDBRANCH  21  22
ENDBRANCH  20  21
ENDBRANCH   2  20
TORSDOF 6
ENDMDL
MODEL      137
REMARK 921   NORMALIZED FREE ENERGY PREDICTED BY IDOCK:   -6.11 KCAL/MOL
REMARK 922        TOTAL FREE ENERGY PREDICTED BY IDOCK:   -9.54 KCAL/MOL
REMARK 923 INTER-LIGAND FREE ENERGY PREDICTED BY IDOCK:   -8.26 KCAL/MOL
REMARK 924 INTRA-LIGAND FREE ENERGY PREDICTED BY IDOCK:   -1.29 KCAL/MOL
REMARK 927      BINDING AFFINITY PREDICTED BY RF-SCORE:    0.00 PKD
ROOT
HETATM    1  O   UNL     1      -5.832  14.198  69.309  1.00  0.00    -0.085 OA 
HETATM    2  C   UNL     1      -6.889  13.278  68.975  1.00  0.00    -0.096 C  
HETATM    3  H   UNL     1      -5.696  14.154  70.249  1.00  0.00     0.000 HD 
ENDROOT
BRANCH   2   4
HETATM    4  C   UNL     1      -6.484  11.878  69.435  1.00  0.00    -0.119 C  
BRANCH   4   5
HETATM    5  O   UNL     1      -7.637  11.027  69.434  1.00  0.00    -0.128 OA 
BRANCH   5   6
HETATM    6  C   UNL     1      -7.567   9.843  70.116  1.00  0.00    -0.175 A  
HETATM    7  O   UNL     1     -13.424   7.264  71.249  1.00  0.00    -0.369 OA 
HETATM    8  O   UNL     1     -11.959   5.945  72.358  1.00  0.00    -0.298 OA 
HETATM    9  C   UNL     1      -6.352   9.234  70.469  1.00  0.00    -0.062 A  
HETATM   10  C   UNL     1      -6.326   8.052  71.208  1.00  0.00    -0.035 A  
HETATM   11  C   UNL     1     -12.283   7.015  71.596  1.00  0.00    -0.357 C  
HETATM   12  C   UNL     1      -7.515   7.459  71.608  1.00  0.00    -0.084 A  
HETATM   13  O   UNL     1      -9.856   7.363  71.663  1.00  0.00    -0.166 OA 
HETATM   14  C   UNL     1     -11.085   7.820  71.237  1.00  0.00    -0.246 C  
HETATM   15  C   UNL     1      -8.732   8.039  71.250  1.00  0.00    -0.138 A  
HETATM   16  C   UNL     1     -11.273   8.932  70.517  1.00  0.00    -0.287 C  
HETATM   17  C   UNL     1      -8.772   9.227  70.508  1.00  0.00    -0.276 A  
HETATM   18  O   UNL     1     -10.307  10.789  69.516  1.00  0.00    -0.215 OA 
HETATM   19  C   UNL     1     -10.111   9.754  70.134  1.00  0.00    -0.265 C  
ENDBRANCH   5   6
ENDBRANCH   4   5
ENDBRANCH   2   4
BRANCH   2  20
HETATM   20  C   UNL     1      -7.108  13.350  67.459  1.00  0.00    -0.144 C  
BRANCH  20  21
HETATM   21  O   UNL     1      -8.057  14.315  67.051  1.00  0.00    -0.162 OA 
BRANCH  21  22
HETATM   22  C   UNL     1      -9.394  14.087  67.280  1.00  0.00    -0.230 A  
HETATM   23  C   UNL     1     -10.967  15.735  70.419  1.00  0.00    -0.369 C  
HETATM   24  C   UNL     1     -10.035  15.616  69.296  1.00  0.00    -0.265 C  
HETATM   25  C   UNL     1     -10.279  14.539  68.289  1.00  0.00    -0.234 A  
HETATM   26  C   UNL     1     -11.571  13.967  68.355  1.00  0.00    -0.332 A  
HETATM   27  C   UNL     1     -12.128  15.085  70.368  1.00  0.00    -0.333 C  
HETATM   28  C   UNL     1     -12.016  13.049  67.397  1.00  0.00    -0.372 A  
HETATM   29  O   UNL     1     -12.499  14.246  69.339  1.00  0.00    -0.263 OA 
HETATM   30  C   UNL     1     -11.175  12.668  66.363  1.00  0.00    -0.350 A  
HETATM   31  C   UNL     1     -13.093  15.351  71.468  1.00  0.00    -0.467 C  
HETATM   32  O   UNL     1     -14.241  14.657  71.317  1.00  0.00    -0.397 OA 
HETATM   33  C   UNL     1      -9.874  13.164  66.325  1.00  0.00    -0.284 A  
HETATM   34  O   UNL     1      -9.175  16.480  69.224  1.00  0.00    -0.227 OA 
HETATM   35  O   UNL     1     -12.890  16.112  72.399  1.00  0.00    -0.426 OA 
ENDBRANCH  21  22
ENDBRANCH  20  21
ENDBRANCH   2  20
TORSDOF 6
ENDMDL
MODEL      138
REMARK 921   NORMALIZED FREE ENERGY PREDICTED BY IDOCK:   -6.10 KCAL/MOL
REMARK 922        TOTAL FREE ENERGY PREDICTED BY IDOCK:   -9.54 KCAL/MOL
REMARK 923 INTER-LIGAND FREE ENERGY PREDICTED BY IDOCK:   -7.52 KCAL/MOL
REMARK 924 INTRA-LIGAND FREE ENERGY PREDICTED BY IDOCK:   -2.02 KCAL/MOL
REMARK 927      BINDING AFFINITY PREDICTED BY RF-SCORE:    0.00 PKD
ROOT
HETATM    1  O   UNL     1      -8.413  12.719  66.736  1.00  0.00    -0.362 OA 
HETATM    2  C   UNL     1      -8.019  11.333  66.783  1.00  0.00    -0.159 C  
HETATM    3  H   UNL     1      -8.789  12.883  65.878  1.00  0.00     0.000 HD 
ENDROOT
BRANCH   2   4
HETATM    4  C   UNL     1      -9.248  10.465  66.513  1.00  0.00    -0.160 C  
BRANCH   4   5
HETATM    5  O   UNL     1     -10.414  11.124  67.022  1.00  0.00    -0.214 OA 
BRANCH   5   6
HETATM    6  C   UNL     1     -10.862  10.777  68.267  1.00  0.00    -0.229 A  
HETATM    7  O   UNL     1     -13.847  15.684  71.307  1.00  0.00    -0.573 OA 
HETATM    8  O   UNL     1     -13.720  14.019  72.832  1.00  0.00    -0.677 OA 
HETATM    9  C   UNL     1     -10.737   9.480  68.790  1.00  0.00    -0.218 A  
HETATM   10  C   UNL     1     -11.161   9.181  70.085  1.00  0.00    -0.248 A  
HETATM   11  C   UNL     1     -13.481  14.565  71.617  1.00  0.00    -0.373 C  
HETATM   12  C   UNL     1     -11.716  10.175  70.878  1.00  0.00    -0.468 A  
HETATM   13  O   UNL     1     -12.456  12.372  71.216  1.00  0.00    -0.302 OA 
HETATM   14  C   UNL     1     -12.742  13.630  70.727  1.00  0.00    -0.268 C  
HETATM   15  C   UNL     1     -11.866  11.465  70.369  1.00  0.00    -0.335 A  
HETATM   16  C   UNL     1     -12.406  14.063  69.507  1.00  0.00    -0.275 C  
HETATM   17  C   UNL     1     -11.443  11.778  69.069  1.00  0.00    -0.358 A  
HETATM   18  O   UNL     1     -11.342  13.595  67.499  1.00  0.00    -0.283 OA 
HETATM   19  C   UNL     1     -11.679  13.166  68.591  1.00  0.00    -0.326 C  
ENDBRANCH   5   6
ENDBRANCH   4   5
ENDBRANCH   2   4
BRANCH   2  20
HETATM   20  C   UNL     1      -7.414  11.067  68.167  1.00  0.00    -0.092 C  
BRANCH  20  21
HETATM   21  O   UNL     1      -6.685   9.861  68.263  1.00  0.00    -0.059 OA 
BRANCH  21  22
HETATM   22  C   UNL     1      -7.094   8.893  69.152  1.00  0.00    -0.063 A  
HETATM   23  C   UNL     1      -8.145   5.460  67.684  1.00  0.00    -0.100 C  
HETATM   24  C   UNL     1      -7.403   6.722  67.737  1.00  0.00    -0.096 C  
HETATM   25  C   UNL     1      -7.512   7.552  68.974  1.00  0.00    -0.096 A  
HETATM   26  C   UNL     1      -8.056   6.866  70.086  1.00  0.00    -0.127 A  
HETATM   27  C   UNL     1      -8.657   4.963  68.808  1.00  0.00    -0.089 C  
HETATM   28  C   UNL     1      -8.097   7.448  71.358  1.00  0.00    -0.097 A  
HETATM   29  O   UNL     1      -8.587   5.592  70.033  1.00  0.00    -0.116 OA 
HETATM   30  C   UNL     1      -7.612   8.732  71.545  1.00  0.00    -0.130 A  
HETATM   31  C   UNL     1      -9.279   3.616  68.722  1.00  0.00    -0.160 C  
HETATM   32  O   UNL     1      -9.754   3.196  69.914  1.00  0.00    -0.124 OA 
HETATM   33  C   UNL     1      -7.141   9.450  70.449  1.00  0.00    -0.104 A  
HETATM   34  O   UNL     1      -6.671   6.948  66.787  1.00  0.00    -0.043 OA 
HETATM   35  O   UNL     1      -9.350   2.948  67.703  1.00  0.00    -0.194 OA 
ENDBRANCH  21  22
ENDBRANCH  20  21
ENDBRANCH   2  20
TORSDOF 6
ENDMDL
MODEL      139
REMARK 921   NORMALIZED FREE ENERGY PREDICTED BY IDOCK:   -6.08 KCAL/MOL
REMARK 922        TOTAL FREE ENERGY PREDICTED BY IDOCK:   -9.51 KCAL/MOL
REMARK 923 INTER-LIGAND FREE ENERGY PREDICTED BY IDOCK:   -8.35 KCAL/MOL
REMARK 924 INTRA-LIGAND FREE ENERGY PREDICTED BY IDOCK:   -1.16 KCAL/MOL
REMARK 927      BINDING AFFINITY PREDICTED BY RF-SCORE:    0.00 PKD
ROOT
HETATM    1  O   UNL     1      -7.475  10.843  65.171  1.00  0.00    -0.358 OA 
HETATM    2  C   UNL     1      -8.234   9.868  64.429  1.00  0.00    -0.164 C  
HETATM    3  H   UNL     1      -7.668  11.698  64.805  1.00  0.00     0.000 HD 
ENDROOT
BRANCH   2   4
HETATM    4  C   UNL     1      -9.718  10.221  64.531  1.00  0.00    -0.329 C  
BRANCH   4   5
HETATM    5  O   UNL     1      -9.886  11.289  65.472  1.00  0.00    -0.210 OA 
BRANCH   5   6
HETATM    6  C   UNL     1     -10.603  12.387  65.083  1.00  0.00    -0.292 A  
HETATM    7  O   UNL     1      -8.570  17.847  67.961  1.00  0.00    -0.243 OA 
HETATM    8  O   UNL     1     -10.421  18.431  66.801  1.00  0.00    -0.380 OA 
HETATM    9  C   UNL     1     -11.622  12.332  64.119  1.00  0.00    -0.463 A  
HETATM   10  C   UNL     1     -12.363  13.466  63.787  1.00  0.00    -0.418 A  
HETATM   11  C   UNL     1      -9.508  17.538  67.250  1.00  0.00    -0.253 C  
HETATM   12  C   UNL     1     -12.097  14.675  64.416  1.00  0.00    -0.481 A  
HETATM   13  O   UNL     1     -10.866  15.997  65.908  1.00  0.00    -0.294 OA 
HETATM   14  C   UNL     1      -9.792  16.164  66.757  1.00  0.00    -0.245 C  
HETATM   15  C   UNL     1     -11.076  14.753  65.363  1.00  0.00    -0.357 A  
HETATM   16  C   UNL     1      -8.986  15.176  67.163  1.00  0.00    -0.231 C  
HETATM   17  C   UNL     1     -10.324  13.620  65.705  1.00  0.00    -0.304 A  
HETATM   18  O   UNL     1      -8.508  12.906  67.109  1.00  0.00    -0.189 OA 
HETATM   19  C   UNL     1      -9.227  13.801  66.692  1.00  0.00    -0.223 C  
ENDBRANCH   5   6
ENDBRANCH   4   5
ENDBRANCH   2   4
BRANCH   2  20
HETATM   20  C   UNL     1      -7.924   8.487  65.019  1.00  0.00    -0.131 C  
BRANCH  20  21
HETATM   21  O   UNL     1      -8.911   7.994  65.901  1.00  0.00    -0.170 OA 
BRANCH  21  22
HETATM   22  C   UNL     1      -8.569   7.699  67.201  1.00  0.00    -0.121 A  
HETATM   23  C   UNL     1     -11.428   6.627  69.594  1.00  0.00    -0.358 C  
HETATM   24  C   UNL     1     -10.740   6.764  68.308  1.00  0.00    -0.235 C  
HETATM   25  C   UNL     1      -9.331   7.261  68.311  1.00  0.00    -0.135 A  
HETATM   26  C   UNL     1      -8.709   7.226  69.581  1.00  0.00    -0.141 A  
HETATM   27  C   UNL     1     -10.715   6.676  70.717  1.00  0.00    -0.238 C  
HETATM   28  C   UNL     1      -7.349   7.518  69.740  1.00  0.00    -0.082 A  
HETATM   29  O   UNL     1      -9.357   6.909  70.760  1.00  0.00    -0.161 OA 
HETATM   30  C   UNL     1      -6.586   7.869  68.638  1.00  0.00    -0.057 A  
HETATM   31  C   UNL     1     -11.439   6.392  71.983  1.00  0.00    -0.305 C  
HETATM   32  O   UNL     1     -10.627   6.452  73.060  1.00  0.00    -0.216 OA 
HETATM   33  C   UNL     1      -7.199   7.981  67.392  1.00  0.00    -0.088 A  
HETATM   34  O   UNL     1     -11.356   6.367  67.330  1.00  0.00    -0.283 OA 
HETATM   35  O   UNL     1     -12.627   6.123  72.057  1.00  0.00    -0.199 OA 
ENDBRANCH  21  22
ENDBRANCH  20  21
ENDBRANCH   2  20
TORSDOF 6
ENDMDL
MODEL      140
REMARK 921   NORMALIZED FREE ENERGY PREDICTED BY IDOCK:   -6.08 KCAL/MOL
REMARK 922        TOTAL FREE ENERGY PREDICTED BY IDOCK:   -9.51 KCAL/MOL
REMARK 923 INTER-LIGAND FREE ENERGY PREDICTED BY IDOCK:   -8.75 KCAL/MOL
REMARK 924 INTRA-LIGAND FREE ENERGY PREDICTED BY IDOCK:   -0.76 KCAL/MOL
REMARK 927      BINDING AFFINITY PREDICTED BY RF-SCORE:    0.00 PKD
ROOT
HETATM    1  O   UNL     1     -13.361  11.282  72.211  1.00  0.00    -0.625 OA 
HETATM    2  C   UNL     1     -12.551  10.177  71.763  1.00  0.00    -0.403 C  
HETATM    3  H   UNL     1     -13.004  12.076  71.831  1.00  0.00     0.000 HD 
ENDROOT
BRANCH   2   4
HETATM    4  C   UNL     1     -12.567  10.147  70.235  1.00  0.00    -0.073 C  
BRANCH   4   5
HETATM    5  O   UNL     1     -11.342  10.700  69.738  1.00  0.00    -0.255 OA 
BRANCH   5   6
HETATM    6  C   UNL     1     -11.409  11.590  68.701  1.00  0.00    -0.269 A  
HETATM    7  O   UNL     1      -8.900   9.205  63.200  1.00  0.00    -0.196 OA 
HETATM    8  O   UNL     1      -9.386  11.367  62.753  1.00  0.00    -0.369 OA 
HETATM    9  C   UNL     1     -12.013  12.852  68.813  1.00  0.00    -0.290 A  
HETATM   10  C   UNL     1     -12.014  13.749  67.745  1.00  0.00    -0.391 A  
HETATM   11  C   UNL     1      -9.308  10.291  63.569  1.00  0.00    -0.301 C  
HETATM   12  C   UNL     1     -11.410  13.398  66.546  1.00  0.00    -0.346 A  
HETATM   13  O   UNL     1     -10.277  11.872  65.176  1.00  0.00    -0.259 OA 
HETATM   14  C   UNL     1      -9.790  10.603  64.941  1.00  0.00    -0.302 C  
HETATM   15  C   UNL     1     -10.821  12.141  66.409  1.00  0.00    -0.271 A  
HETATM   16  C   UNL     1      -9.727   9.633  65.861  1.00  0.00    -0.343 C  
HETATM   17  C   UNL     1     -10.813  11.231  67.476  1.00  0.00    -0.292 A  
HETATM   18  O   UNL     1     -10.094   9.014  68.066  1.00  0.00    -0.172 OA 
HETATM   19  C   UNL     1     -10.202   9.898  67.230  1.00  0.00    -0.222 C  
ENDBRANCH   5   6
ENDBRANCH   4   5
ENDBRANCH   2   4
BRANCH   2  20
HETATM   20  C   UNL     1     -13.128   8.896  72.375  1.00  0.00    -0.418 C  
BRANCH  20  21
HETATM   21  O   UNL     1     -12.752   7.709  71.708  1.00  0.00    -0.318 OA 
BRANCH  21  22
HETATM   22  C   UNL     1     -11.460   7.249  71.824  1.00  0.00    -0.267 A  
HETATM   23  C   UNL     1     -10.167   4.857  69.058  1.00  0.00    -0.164 C  
HETATM   24  C   UNL     1     -10.974   5.945  69.617  1.00  0.00    -0.377 C  
HETATM   25  C   UNL     1     -10.671   6.404  71.005  1.00  0.00    -0.301 A  
HETATM   26  C   UNL     1      -9.423   5.962  71.503  1.00  0.00    -0.152 A  
HETATM   27  C   UNL     1      -9.040   4.507  69.673  1.00  0.00    -0.109 C  
HETATM   28  C   UNL     1      -8.919   6.416  72.727  1.00  0.00    -0.124 A  
HETATM   29  O   UNL     1      -8.597   5.066  70.853  1.00  0.00    -0.116 OA 
HETATM   30  C   UNL     1      -9.658   7.307  73.490  1.00  0.00    -0.293 A  
HETATM   31  C   UNL     1      -8.190   3.495  68.990  1.00  0.00    -0.060 C  
HETATM   32  O   UNL     1      -7.066   3.219  69.685  1.00  0.00    -0.041 OA 
HETATM   33  C   UNL     1     -10.921   7.695  73.051  1.00  0.00    -0.457 A  
HETATM   34  O   UNL     1     -11.779   6.456  68.854  1.00  0.00    -0.096 OA 
HETATM   35  O   UNL     1      -8.458   2.974  67.919  1.00  0.00    -0.078 OA 
ENDBRANCH  21  22
ENDBRANCH  20  21
ENDBRANCH   2  20
TORSDOF 6
ENDMDL
MODEL      141
REMARK 921   NORMALIZED FREE ENERGY PREDICTED BY IDOCK:   -6.06 KCAL/MOL
REMARK 922        TOTAL FREE ENERGY PREDICTED BY IDOCK:   -9.48 KCAL/MOL
REMARK 923 INTER-LIGAND FREE ENERGY PREDICTED BY IDOCK:   -6.97 KCAL/MOL
REMARK 924 INTRA-LIGAND FREE ENERGY PREDICTED BY IDOCK:   -2.51 KCAL/MOL
REMARK 927      BINDING AFFINITY PREDICTED BY RF-SCORE:    0.00 PKD
ROOT
HETATM    1  O   UNL     1     -10.524   7.084  74.450  1.00  0.00    -0.494 OA 
HETATM    2  C   UNL     1      -9.121   6.823  74.249  1.00  0.00    -0.200 C  
HETATM    3  H   UNL     1     -10.599   7.853  75.004  1.00  0.00     0.000 HD 
ENDROOT
BRANCH   2   4
HETATM    4  C   UNL     1      -8.479   8.058  73.618  1.00  0.00    -0.256 C  
BRANCH   4   5
HETATM    5  O   UNL     1      -9.259   8.473  72.490  1.00  0.00    -0.259 OA 
BRANCH   5   6
HETATM    6  C   UNL     1      -8.649   8.531  71.267  1.00  0.00    -0.176 A  
HETATM    7  O   UNL     1     -11.922  12.196  67.014  1.00  0.00    -0.593 OA 
HETATM    8  O   UNL     1     -10.236  11.261  65.832  1.00  0.00    -0.233 OA 
HETATM    9  C   UNL     1      -7.418   7.913  70.997  1.00  0.00    -0.073 A  
HETATM   10  C   UNL     1      -6.855   7.955  69.721  1.00  0.00    -0.042 A  
HETATM   11  C   UNL     1     -10.960  11.451  66.959  1.00  0.00    -0.292 C  
HETATM   12  C   UNL     1      -7.514   8.616  68.695  1.00  0.00    -0.096 A  
HETATM   13  O   UNL     1      -9.291   9.907  67.879  1.00  0.00    -0.137 OA 
HETATM   14  C   UNL     1     -10.428  10.657  68.098  1.00  0.00    -0.185 C  
HETATM   15  C   UNL     1      -8.729   9.252  68.949  1.00  0.00    -0.131 A  
HETATM   16  C   UNL     1     -11.080  10.723  69.265  1.00  0.00    -0.312 C  
HETATM   17  C   UNL     1      -9.306   9.217  70.226  1.00  0.00    -0.277 A  
HETATM   18  O   UNL     1     -11.215   9.995  71.463  1.00  0.00    -0.248 OA 
HETATM   19  C   UNL     1     -10.580   9.957  70.420  1.00  0.00    -0.302 C  
ENDBRANCH   5   6
ENDBRANCH   4   5
ENDBRANCH   2   4
BRANCH   2  20
HETATM   20  C   UNL     1      -9.000   5.584  73.355  1.00  0.00    -0.129 C  
BRANCH  20  21
HETATM   21  O   UNL     1     -10.225   5.134  72.812  1.00  0.00    -0.167 OA 
BRANCH  21  22
HETATM   22  C   UNL     1     -10.512   5.387  71.490  1.00  0.00    -0.223 A  
HETATM   23  C   UNL     1      -8.102   3.914  68.833  1.00  0.00    -0.075 C  
HETATM   24  C   UNL     1      -8.809   3.967  70.114  1.00  0.00    -0.083 C  
HETATM   25  C   UNL     1      -9.880   4.995  70.286  1.00  0.00    -0.304 A  
HETATM   26  C   UNL     1     -10.317   5.584  69.076  1.00  0.00    -0.233 A  
HETATM   27  C   UNL     1      -8.603   4.573  67.790  1.00  0.00    -0.103 C  
HETATM   28  C   UNL     1     -11.410   6.457  69.038  1.00  0.00    -0.332 A  
HETATM   29  O   UNL     1      -9.731   5.363  67.845  1.00  0.00    -0.124 OA 
HETATM   30  C   UNL     1     -12.078   6.777  70.209  1.00  0.00    -0.211 A  
HETATM   31  C   UNL     1      -7.924   4.373  66.482  1.00  0.00    -0.099 C  
HETATM   32  O   UNL     1      -8.514   5.071  65.488  1.00  0.00    -0.124 OA 
HETATM   33  C   UNL     1     -11.615   6.266  71.419  1.00  0.00    -0.338 A  
HETATM   34  O   UNL     1      -8.524   3.091  70.916  1.00  0.00    -0.062 OA 
HETATM   35  O   UNL     1      -6.951   3.657  66.308  1.00  0.00    -0.059 OA 
ENDBRANCH  21  22
ENDBRANCH  20  21
ENDBRANCH   2  20
TORSDOF 6
ENDMDL
MODEL      142
REMARK 921   NORMALIZED FREE ENERGY PREDICTED BY IDOCK:   -6.06 KCAL/MOL
REMARK 922        TOTAL FREE ENERGY PREDICTED BY IDOCK:   -9.48 KCAL/MOL
REMARK 923 INTER-LIGAND FREE ENERGY PREDICTED BY IDOCK:   -7.58 KCAL/MOL
REMARK 924 INTRA-LIGAND FREE ENERGY PREDICTED BY IDOCK:   -1.90 KCAL/MOL
REMARK 927      BINDING AFFINITY PREDICTED BY RF-SCORE:    0.00 PKD
ROOT
HETATM    1  O   UNL     1     -11.693   6.252  72.924  1.00  0.00    -0.487 OA 
HETATM    2  C   UNL     1     -10.948   6.714  71.780  1.00  0.00    -0.240 C  
HETATM    3  H   UNL     1     -12.250   6.965  73.214  1.00  0.00     0.000 HD 
ENDROOT
BRANCH   2   4
HETATM    4  C   UNL     1     -11.935   7.154  70.699  1.00  0.00    -0.269 C  
BRANCH   4   5
HETATM    5  O   UNL     1     -11.408   8.298  70.015  1.00  0.00    -0.154 OA 
BRANCH   5   6
HETATM    6  C   UNL     1     -11.877   9.534  70.366  1.00  0.00    -0.124 A  
HETATM    7  O   UNL     1     -11.042  13.951  65.673  1.00  0.00    -0.294 OA 
HETATM    8  O   UNL     1     -11.832  15.103  67.451  1.00  0.00    -0.264 OA 
HETATM    9  C   UNL     1     -12.523   9.788  71.587  1.00  0.00    -0.500 A  
HETATM   10  C   UNL     1     -12.940  11.075  71.928  1.00  0.00    -0.485 A  
HETATM   11  C   UNL     1     -11.406  13.977  66.835  1.00  0.00    -0.329 C  
HETATM   12  C   UNL     1     -12.719  12.129  71.053  1.00  0.00    -0.322 A  
HETATM   13  O   UNL     1     -11.950  12.991  69.014  1.00  0.00    -0.303 OA 
HETATM   14  C   UNL     1     -11.453  12.799  67.742  1.00  0.00    -0.326 C  
HETATM   15  C   UNL     1     -12.096  11.892  69.827  1.00  0.00    -0.252 A  
HETATM   16  C   UNL     1     -11.018  11.626  67.267  1.00  0.00    -0.318 C  
HETATM   17  C   UNL     1     -11.671  10.604  69.473  1.00  0.00    -0.356 A  
HETATM   18  O   UNL     1     -10.612   9.383  67.694  1.00  0.00    -0.260 OA 
HETATM   19  C   UNL     1     -11.055  10.433  68.131  1.00  0.00    -0.285 C  
ENDBRANCH   5   6
ENDBRANCH   4   5
ENDBRANCH   2   4
BRANCH   2  20
HETATM   20  C   UNL     1     -10.050   5.563  71.312  1.00  0.00    -0.207 C  
BRANCH  20  21
HETATM   21  O   UNL     1      -8.667   5.854  71.336  1.00  0.00    -0.131 OA 
BRANCH  21  22
HETATM   22  C   UNL     1      -8.057   6.334  70.199  1.00  0.00    -0.116 A  
HETATM   23  C   UNL     1      -7.824  10.185  69.796  1.00  0.00    -0.175 C  
HETATM   24  C   UNL     1      -7.885   8.917  70.528  1.00  0.00    -0.112 C  
HETATM   25  C   UNL     1      -7.781   7.648  69.748  1.00  0.00    -0.098 A  
HETATM   26  C   UNL     1      -7.303   7.817  68.427  1.00  0.00    -0.095 A  
HETATM   27  C   UNL     1      -7.409  10.182  68.531  1.00  0.00    -0.081 C  
HETATM   28  C   UNL     1      -7.009   6.721  67.608  1.00  0.00    -0.083 A  
HETATM   29  O   UNL     1      -7.081   9.042  67.829  1.00  0.00    -0.077 OA 
HETATM   30  C   UNL     1      -7.204   5.433  68.082  1.00  0.00    -0.071 A  
HETATM   31  C   UNL     1      -7.233  11.507  67.881  1.00  0.00    -0.085 C  
HETATM   32  O   UNL     1      -6.797  11.397  66.608  1.00  0.00    -0.140 OA 
HETATM   33  C   UNL     1      -7.745   5.249  69.352  1.00  0.00    -0.080 A  
HETATM   34  O   UNL     1      -7.923   9.008  71.745  1.00  0.00    -0.343 OA 
HETATM   35  O   UNL     1      -7.443  12.579  68.424  1.00  0.00    -0.114 OA 
ENDBRANCH  21  22
ENDBRANCH  20  21
ENDBRANCH   2  20
TORSDOF 6
ENDMDL
MODEL      143
REMARK 921   NORMALIZED FREE ENERGY PREDICTED BY IDOCK:   -6.04 KCAL/MOL
REMARK 922        TOTAL FREE ENERGY PREDICTED BY IDOCK:   -9.45 KCAL/MOL
REMARK 923 INTER-LIGAND FREE ENERGY PREDICTED BY IDOCK:   -6.26 KCAL/MOL
REMARK 924 INTRA-LIGAND FREE ENERGY PREDICTED BY IDOCK:   -3.19 KCAL/MOL
REMARK 927      BINDING AFFINITY PREDICTED BY RF-SCORE:    0.00 PKD
ROOT
HETATM    1  O   UNL     1      -7.410   2.824  69.251  1.00  0.00    -0.044 OA 
HETATM    2  C   UNL     1      -6.416   3.658  68.623  1.00  0.00    -0.037 C  
HETATM    3  H   UNL     1      -7.049   2.512  70.073  1.00  0.00     0.000 HD 
ENDROOT
BRANCH   2   4
HETATM    4  C   UNL     1      -6.066   4.803  69.573  1.00  0.00    -0.018 C  
BRANCH   4   5
HETATM    5  O   UNL     1      -7.181   5.059  70.437  1.00  0.00    -0.051 OA 
BRANCH   5   6
HETATM    6  C   UNL     1      -7.528   6.360  70.676  1.00  0.00    -0.087 A  
HETATM    7  O   UNL     1     -13.932   7.133  71.471  1.00  0.00    -0.382 OA 
HETATM    8  O   UNL     1     -13.068   9.222  71.469  1.00  0.00    -0.337 OA 
HETATM    9  C   UNL     1      -6.585   7.393  70.796  1.00  0.00    -0.043 A  
HETATM   10  C   UNL     1      -6.985   8.715  70.990  1.00  0.00    -0.069 A  
HETATM   11  C   UNL     1     -12.974   7.877  71.364  1.00  0.00    -0.271 C  
HETATM   12  C   UNL     1      -8.335   9.026  71.066  1.00  0.00    -0.237 A  
HETATM   13  O   UNL     1     -10.595   8.411  71.087  1.00  0.00    -0.204 OA 
HETATM   14  C   UNL     1     -11.573   7.439  71.121  1.00  0.00    -0.286 C  
HETATM   15  C   UNL     1      -9.286   8.011  70.968  1.00  0.00    -0.149 A  
HETATM   16  C   UNL     1     -11.348   6.130  70.957  1.00  0.00    -0.348 C  
HETATM   17  C   UNL     1      -8.897   6.678  70.773  1.00  0.00    -0.147 A  
HETATM   18  O   UNL     1      -9.794   4.461  70.529  1.00  0.00    -0.202 OA 
HETATM   19  C   UNL     1      -9.974   5.654  70.722  1.00  0.00    -0.195 C  
ENDBRANCH   5   6
ENDBRANCH   4   5
ENDBRANCH   2   4
BRANCH   2  20
HETATM   20  C   UNL     1      -6.998   4.161  67.298  1.00  0.00    -0.059 C  
BRANCH  20  21
HETATM   21  O   UNL     1      -7.117   5.567  67.208  1.00  0.00    -0.070 OA 
BRANCH  21  22
HETATM   22  C   UNL     1      -8.368   6.134  67.118  1.00  0.00    -0.105 A  
HETATM   23  C   UNL     1      -8.641   9.947  67.776  1.00  0.00    -0.121 C  
HETATM   24  C   UNL     1      -7.992   8.707  67.345  1.00  0.00    -0.102 C  
HETATM   25  C   UNL     1      -8.822   7.468  67.266  1.00  0.00    -0.124 A  
HETATM   26  C   UNL     1     -10.217   7.701  67.299  1.00  0.00    -0.272 A  
HETATM   27  C   UNL     1      -9.971  10.001  67.815  1.00  0.00    -0.170 C  
HETATM   28  C   UNL     1     -11.138   6.669  67.091  1.00  0.00    -0.427 A  
HETATM   29  O   UNL     1     -10.796   8.934  67.529  1.00  0.00    -0.218 OA 
HETATM   30  C   UNL     1     -10.689   5.378  66.866  1.00  0.00    -0.264 A  
HETATM   31  C   UNL     1     -10.579  11.322  68.125  1.00  0.00    -0.192 C  
HETATM   32  O   UNL     1     -11.929  11.274  68.127  1.00  0.00    -0.610 OA 
HETATM   33  C   UNL     1      -9.322   5.115  66.905  1.00  0.00    -0.129 A  
HETATM   34  O   UNL     1      -6.828   8.812  66.990  1.00  0.00    -0.068 OA 
HETATM   35  O   UNL     1      -9.947  12.342  68.343  1.00  0.00    -0.220 OA 
ENDBRANCH  21  22
ENDBRANCH  20  21
ENDBRANCH   2  20
TORSDOF 6
ENDMDL
MODEL      144
REMARK 921   NORMALIZED FREE ENERGY PREDICTED BY IDOCK:   -6.03 KCAL/MOL
REMARK 922        TOTAL FREE ENERGY PREDICTED BY IDOCK:   -9.44 KCAL/MOL
REMARK 923 INTER-LIGAND FREE ENERGY PREDICTED BY IDOCK:   -9.17 KCAL/MOL
REMARK 924 INTRA-LIGAND FREE ENERGY PREDICTED BY IDOCK:   -0.27 KCAL/MOL
REMARK 927      BINDING AFFINITY PREDICTED BY RF-SCORE:    0.00 PKD
ROOT
HETATM    1  O   UNL     1     -10.161  10.087  65.624  1.00  0.00    -0.267 OA 
HETATM    2  C   UNL     1     -10.240  10.972  66.759  1.00  0.00    -0.229 C  
HETATM    3  H   UNL     1      -9.855   9.243  65.936  1.00  0.00     0.000 HD 
ENDROOT
BRANCH   2   4
HETATM    4  C   UNL     1     -11.184  10.359  67.793  1.00  0.00    -0.237 C  
BRANCH   4   5
HETATM    5  O   UNL     1     -10.790  10.783  69.104  1.00  0.00    -0.206 OA 
BRANCH   5   6
HETATM    6  C   UNL     1      -9.611  10.308  69.609  1.00  0.00    -0.162 A  
HETATM    7  O   UNL     1     -10.498   5.961  74.358  1.00  0.00    -0.265 OA 
HETATM    8  O   UNL     1      -8.267   6.325  74.283  1.00  0.00    -0.114 OA 
HETATM    9  C   UNL     1      -8.356  10.682  69.103  1.00  0.00    -0.140 A  
HETATM   10  C   UNL     1      -7.176  10.214  69.681  1.00  0.00    -0.127 A  
HETATM   11  C   UNL     1      -9.541   6.548  73.886  1.00  0.00    -0.202 C  
HETATM   12  C   UNL     1      -7.232   9.363  70.776  1.00  0.00    -0.123 A  
HETATM   13  O   UNL     1      -8.424   8.096  72.345  1.00  0.00    -0.147 OA 
HETATM   14  C   UNL     1      -9.613   7.572  72.809  1.00  0.00    -0.178 C  
HETATM   15  C   UNL     1      -8.470   8.965  71.281  1.00  0.00    -0.182 A  
HETATM   16  C   UNL     1     -10.823   7.917  72.354  1.00  0.00    -0.378 C  
HETATM   17  C   UNL     1      -9.662   9.429  70.709  1.00  0.00    -0.332 A  
HETATM   18  O   UNL     1     -12.051   9.256  70.913  1.00  0.00    -0.286 OA 
HETATM   19  C   UNL     1     -10.937   8.922  71.283  1.00  0.00    -0.293 C  
ENDBRANCH   5   6
ENDBRANCH   4   5
ENDBRANCH   2   4
BRANCH   2  20
HETATM   20  C   UNL     1     -10.734  12.333  66.257  1.00  0.00    -0.259 C  
BRANCH  20  21
HETATM   21  O   UNL     1     -11.851  12.844  66.956  1.00  0.00    -0.371 OA 
BRANCH  21  22
HETATM   22  C   UNL     1     -11.715  13.996  67.697  1.00  0.00    -0.377 A  
HETATM   23  C   UNL     1     -10.257  17.107  65.896  1.00  0.00    -0.290 C  
HETATM   24  C   UNL     1     -10.990  15.843  66.001  1.00  0.00    -0.139 C  
HETATM   25  C   UNL     1     -11.254  15.293  67.365  1.00  0.00    -0.311 A  
HETATM   26  C   UNL     1     -11.056  16.223  68.412  1.00  0.00    -0.362 A  
HETATM   27  C   UNL     1     -10.095  17.853  66.986  1.00  0.00    -0.340 C  
HETATM   28  C   UNL     1     -11.396  15.920  69.736  1.00  0.00    -0.347 A  
HETATM   29  O   UNL     1     -10.526  17.488  68.244  1.00  0.00    -0.361 OA 
HETATM   30  C   UNL     1     -11.922  14.676  70.046  1.00  0.00    -0.376 A  
HETATM   31  C   UNL     1      -9.467  19.188  66.797  1.00  0.00    -0.330 C  
HETATM   32  O   UNL     1      -9.361  19.870  67.957  1.00  0.00    -0.339 OA 
HETATM   33  C   UNL     1     -12.054  13.722  69.040  1.00  0.00    -0.359 A  
HETATM   34  O   UNL     1     -11.412  15.384  64.951  1.00  0.00    -0.365 OA 
HETATM   35  O   UNL     1      -9.095  19.633  65.724  1.00  0.00    -0.377 OA 
ENDBRANCH  21  22
ENDBRANCH  20  21
ENDBRANCH   2  20
TORSDOF 6
ENDMDL
MODEL      145
REMARK 921   NORMALIZED FREE ENERGY PREDICTED BY IDOCK:   -6.03 KCAL/MOL
REMARK 922        TOTAL FREE ENERGY PREDICTED BY IDOCK:   -9.44 KCAL/MOL
REMARK 923 INTER-LIGAND FREE ENERGY PREDICTED BY IDOCK:   -8.95 KCAL/MOL
REMARK 924 INTRA-LIGAND FREE ENERGY PREDICTED BY IDOCK:   -0.49 KCAL/MOL
REMARK 927      BINDING AFFINITY PREDICTED BY RF-SCORE:    0.00 PKD
ROOT
HETATM    1  O   UNL     1     -12.298  14.762  67.039  1.00  0.00    -0.435 OA 
HETATM    2  C   UNL     1     -11.475  14.172  68.065  1.00  0.00    -0.312 C  
HETATM    3  H   UNL     1     -12.365  14.137  66.327  1.00  0.00     0.000 HD 
ENDROOT
BRANCH   2   4
HETATM    4  C   UNL     1     -12.113  12.856  68.507  1.00  0.00    -0.119 C  
BRANCH   4   5
HETATM    5  O   UNL     1     -11.208  12.160  69.374  1.00  0.00    -0.237 OA 
BRANCH   5   6
HETATM    6  C   UNL     1     -11.711  11.168  70.171  1.00  0.00    -0.353 A  
HETATM    7  O   UNL     1      -8.834   5.433  69.137  1.00  0.00    -0.100 OA 
HETATM    8  O   UNL     1     -10.522   5.009  70.581  1.00  0.00    -0.234 OA 
HETATM    9  C   UNL     1     -12.696  11.395  71.145  1.00  0.00    -0.479 A  
HETATM   10  C   UNL     1     -13.218  10.346  71.901  1.00  0.00    -0.535 A  
HETATM   11  C   UNL     1      -9.792   5.820  69.781  1.00  0.00    -0.178 C  
HETATM   12  C   UNL     1     -12.763   9.052  71.696  1.00  0.00    -0.421 A  
HETATM   13  O   UNL     1     -11.361   7.502  70.637  1.00  0.00    -0.279 OA 
HETATM   14  C   UNL     1     -10.298   7.219  69.804  1.00  0.00    -0.220 C  
HETATM   15  C   UNL     1     -11.770   8.809  70.747  1.00  0.00    -0.219 A  
HETATM   16  C   UNL     1      -9.689   8.117  69.021  1.00  0.00    -0.163 C  
HETATM   17  C   UNL     1     -11.238   9.855  69.979  1.00  0.00    -0.327 A  
HETATM   18  O   UNL     1      -9.615  10.309  68.266  1.00  0.00    -0.139 OA 
HETATM   19  C   UNL     1     -10.154   9.515  69.020  1.00  0.00    -0.193 C  
ENDBRANCH   5   6
ENDBRANCH   4   5
ENDBRANCH   2   4
BRANCH   2  20
HETATM   20  C   UNL     1     -11.368  15.180  69.214  1.00  0.00    -0.300 C  
BRANCH  20  21
HETATM   21  O   UNL     1     -10.927  16.465  68.826  1.00  0.00    -0.313 OA 
BRANCH  21  22
HETATM   22  C   UNL     1      -9.581  16.691  68.643  1.00  0.00    -0.248 A  
HETATM   23  C   UNL     1      -8.570  19.521  66.190  1.00  0.00    -0.326 C  
HETATM   24  C   UNL     1      -9.420  18.839  67.168  1.00  0.00    -0.305 C  
HETATM   25  C   UNL     1      -8.871  17.635  67.862  1.00  0.00    -0.246 A  
HETATM   26  C   UNL     1      -7.470  17.486  67.739  1.00  0.00    -0.191 A  
HETATM   27  C   UNL     1      -7.271  19.232  66.150  1.00  0.00    -0.265 C  
HETATM   28  C   UNL     1      -6.773  16.497  68.444  1.00  0.00    -0.143 A  
HETATM   29  O   UNL     1      -6.668  18.276  66.938  1.00  0.00    -0.180 OA 
HETATM   30  C   UNL     1      -7.462  15.625  69.271  1.00  0.00    -0.216 A  
HETATM   31  C   UNL     1      -6.431  20.051  65.237  1.00  0.00    -0.274 C  
HETATM   32  O   UNL     1      -5.130  19.690  65.279  1.00  0.00    -0.156 OA 
HETATM   33  C   UNL     1      -8.850  15.709  69.346  1.00  0.00    -0.257 A  
HETATM   34  O   UNL     1     -10.492  19.374  67.407  1.00  0.00    -0.407 OA 
HETATM   35  O   UNL     1      -6.850  20.956  64.533  1.00  0.00    -0.180 OA 
ENDBRANCH  21  22
ENDBRANCH  20  21
ENDBRANCH   2  20
TORSDOF 6
ENDMDL
MODEL      146
REMARK 921   NORMALIZED FREE ENERGY PREDICTED BY IDOCK:   -6.03 KCAL/MOL
REMARK 922        TOTAL FREE ENERGY PREDICTED BY IDOCK:   -9.44 KCAL/MOL
REMARK 923 INTER-LIGAND FREE ENERGY PREDICTED BY IDOCK:   -8.60 KCAL/MOL
REMARK 924 INTRA-LIGAND FREE ENERGY PREDICTED BY IDOCK:   -0.84 KCAL/MOL
REMARK 927      BINDING AFFINITY PREDICTED BY RF-SCORE:    0.00 PKD
ROOT
HETATM    1  O   UNL     1     -13.731   8.451  70.922  1.00  0.00    -0.518 OA 
HETATM    2  C   UNL     1     -13.110   8.781  72.180  1.00  0.00    -0.406 C  
HETATM    3  H   UNL     1     -14.647   8.694  70.979  1.00  0.00     0.000 HD 
ENDROOT
BRANCH   2   4
HETATM    4  C   UNL     1     -13.296  10.275  72.440  1.00  0.00    -0.037 C  
BRANCH   4   5
HETATM    5  O   UNL     1     -12.901  11.012  71.276  1.00  0.00    -0.388 OA 
BRANCH   5   6
HETATM    6  C   UNL     1     -12.922  12.378  71.337  1.00  0.00    -0.250 A  
HETATM    7  O   UNL     1     -10.490  15.156  65.989  1.00  0.00    -0.290 OA 
HETATM    8  O   UNL     1     -10.878  16.856  67.428  1.00  0.00    -0.278 OA 
HETATM    9  C   UNL     1     -13.471  13.087  72.418  1.00  0.00    -0.615 A  
HETATM   10  C   UNL     1     -13.426  14.480  72.463  1.00  0.00    -0.580 A  
HETATM   11  C   UNL     1     -10.852  15.549  67.083  1.00  0.00    -0.316 C  
HETATM   12  C   UNL     1     -12.831  15.188  71.429  1.00  0.00    -0.457 A  
HETATM   13  O   UNL     1     -11.759  15.289  69.348  1.00  0.00    -0.301 OA 
HETATM   14  C   UNL     1     -11.327  14.676  68.190  1.00  0.00    -0.302 C  
HETATM   15  C   UNL     1     -12.298  14.502  70.338  1.00  0.00    -0.338 A  
HETATM   16  C   UNL     1     -11.313  13.353  67.993  1.00  0.00    -0.320 C  
HETATM   17  C   UNL     1     -12.336  13.102  70.280  1.00  0.00    -0.319 A  
HETATM   18  O   UNL     1     -11.719  11.248  68.880  1.00  0.00    -0.289 OA 
HETATM   19  C   UNL     1     -11.783  12.454  69.062  1.00  0.00    -0.323 C  
ENDBRANCH   5   6
ENDBRANCH   4   5
ENDBRANCH   2   4
BRANCH   2  20
HETATM   20  C   UNL     1     -11.631   8.388  72.088  1.00  0.00    -0.374 C  
BRANCH  20  21
HETATM   21  O   UNL     1     -11.207   8.007  70.794  1.00  0.00    -0.261 OA 
BRANCH  21  22
HETATM   22  C   UNL     1      -9.898   7.630  70.596  1.00  0.00    -0.182 A  
HETATM   23  C   UNL     1      -9.083   5.682  67.342  1.00  0.00    -0.110 C  
HETATM   24  C   UNL     1      -9.809   6.635  68.185  1.00  0.00    -0.132 C  
HETATM   25  C   UNL     1      -9.254   6.947  69.536  1.00  0.00    -0.148 A  
HETATM   26  C   UNL     1      -7.912   6.538  69.719  1.00  0.00    -0.120 A  
HETATM   27  C   UNL     1      -7.840   5.342  67.675  1.00  0.00    -0.096 C  
HETATM   28  C   UNL     1      -7.192   6.878  70.870  1.00  0.00    -0.072 A  
HETATM   29  O   UNL     1      -7.194   5.787  68.809  1.00  0.00    -0.077 OA 
HETATM   30  C   UNL     1      -7.802   7.617  71.871  1.00  0.00    -0.096 A  
HETATM   31  C   UNL     1      -7.100   4.482  66.713  1.00  0.00    -0.074 C  
HETATM   32  O   UNL     1      -5.848   4.206  67.134  1.00  0.00    -0.021 OA 
HETATM   33  C   UNL     1      -9.144   7.964  71.742  1.00  0.00    -0.188 A  
HETATM   34  O   UNL     1     -10.774   7.175  67.666  1.00  0.00    -0.240 OA 
HETATM   35  O   UNL     1      -7.555   4.074  65.657  1.00  0.00    -0.083 OA 
ENDBRANCH  21  22
ENDBRANCH  20  21
ENDBRANCH   2  20
TORSDOF 6
ENDMDL
MODEL      147
REMARK 921   NORMALIZED FREE ENERGY PREDICTED BY IDOCK:   -6.03 KCAL/MOL
REMARK 922        TOTAL FREE ENERGY PREDICTED BY IDOCK:   -9.44 KCAL/MOL
REMARK 923 INTER-LIGAND FREE ENERGY PREDICTED BY IDOCK:   -7.75 KCAL/MOL
REMARK 924 INTRA-LIGAND FREE ENERGY PREDICTED BY IDOCK:   -1.69 KCAL/MOL
REMARK 927      BINDING AFFINITY PREDICTED BY RF-SCORE:    0.00 PKD
ROOT
HETATM    1  O   UNL     1      -9.080   5.741  67.413  1.00  0.00    -0.112 OA 
HETATM    2  C   UNL     1      -9.943   6.877  67.205  1.00  0.00    -0.183 C  
HETATM    3  H   UNL     1      -8.557   5.627  66.628  1.00  0.00     0.000 HD 
ENDROOT
BRANCH   2   4
HETATM    4  C   UNL     1      -9.078   8.100  66.902  1.00  0.00    -0.154 C  
BRANCH   4   5
HETATM    5  O   UNL     1      -7.815   7.962  67.566  1.00  0.00    -0.117 OA 
BRANCH   5   6
HETATM    6  C   UNL     1      -7.346   9.023  68.291  1.00  0.00    -0.082 A  
HETATM    7  O   UNL     1      -5.989   7.438  74.446  1.00  0.00    -0.078 OA 
HETATM    8  O   UNL     1      -5.718   9.679  74.327  1.00  0.00    -0.323 OA 
HETATM    9  C   UNL     1      -7.129  10.294  67.734  1.00  0.00    -0.085 A  
HETATM   10  C   UNL     1      -6.699  11.362  68.521  1.00  0.00    -0.069 A  
HETATM   11  C   UNL     1      -6.043   8.473  73.807  1.00  0.00    -0.120 C  
HETATM   12  C   UNL     1      -6.479  11.177  69.879  1.00  0.00    -0.142 A  
HETATM   13  O   UNL     1      -6.397   9.823  71.790  1.00  0.00    -0.306 OA 
HETATM   14  C   UNL     1      -6.451   8.578  72.381  1.00  0.00    -0.084 C  
HETATM   15  C   UNL     1      -6.671   9.917  70.446  1.00  0.00    -0.136 A  
HETATM   16  C   UNL     1      -6.838   7.459  71.757  1.00  0.00    -0.058 C  
HETATM   17  C   UNL     1      -7.104   8.836  69.666  1.00  0.00    -0.054 A  
HETATM   18  O   UNL     1      -7.635   6.495  69.804  1.00  0.00    -0.092 OA 
HETATM   19  C   UNL     1      -7.242   7.519  70.342  1.00  0.00    -0.064 C  
ENDBRANCH   5   6
ENDBRANCH   4   5
ENDBRANCH   2   4
BRANCH   2  20
HETATM   20  C   UNL     1     -10.786   7.061  68.472  1.00  0.00    -0.179 C  
BRANCH  20  21
HETATM   21  O   UNL     1     -10.479   8.225  69.213  1.00  0.00    -0.217 OA 
BRANCH  21  22
HETATM   22  C   UNL     1     -11.389   8.702  70.129  1.00  0.00    -0.078 A  
HETATM   23  C   UNL     1     -12.124  12.510  70.088  1.00  0.00    -0.368 C  
HETATM   24  C   UNL     1     -11.755  11.213  69.518  1.00  0.00    -0.335 C  
HETATM   25  C   UNL     1     -11.904   9.998  70.374  1.00  0.00    -0.343 A  
HETATM   26  C   UNL     1     -12.697  10.197  71.529  1.00  0.00    -0.436 A  
HETATM   27  C   UNL     1     -12.824  12.543  71.220  1.00  0.00    -0.241 C  
HETATM   28  C   UNL     1     -13.058   9.133  72.363  1.00  0.00    -0.493 A  
HETATM   29  O   UNL     1     -13.185  11.423  71.938  1.00  0.00    -0.484 OA 
HETATM   30  C   UNL     1     -12.618   7.851  72.075  1.00  0.00    -0.327 A  
HETATM   31  C   UNL     1     -13.291  13.878  71.680  1.00  0.00    -0.362 C  
HETATM   32  O   UNL     1     -14.002  13.803  72.826  1.00  0.00    -0.714 OA 
HETATM   33  C   UNL     1     -11.775   7.648  70.985  1.00  0.00    -0.306 A  
HETATM   34  O   UNL     1     -11.439  11.221  68.338  1.00  0.00    -0.257 OA 
HETATM   35  O   UNL     1     -13.074  14.927  71.097  1.00  0.00    -0.348 OA 
ENDBRANCH  21  22
ENDBRANCH  20  21
ENDBRANCH   2  20
TORSDOF 6
ENDMDL
MODEL      148
REMARK 921   NORMALIZED FREE ENERGY PREDICTED BY IDOCK:   -6.03 KCAL/MOL
REMARK 922        TOTAL FREE ENERGY PREDICTED BY IDOCK:   -9.44 KCAL/MOL
REMARK 923 INTER-LIGAND FREE ENERGY PREDICTED BY IDOCK:   -8.52 KCAL/MOL
REMARK 924 INTRA-LIGAND FREE ENERGY PREDICTED BY IDOCK:   -0.92 KCAL/MOL
REMARK 927      BINDING AFFINITY PREDICTED BY RF-SCORE:    0.00 PKD
ROOT
HETATM    1  O   UNL     1     -11.359   9.363  68.638  1.00  0.00    -0.459 OA 
HETATM    2  C   UNL     1     -10.235   9.410  67.737  1.00  0.00    -0.222 C  
HETATM    3  H   UNL     1     -11.339  10.153  69.166  1.00  0.00     0.000 HD 
ENDROOT
BRANCH   2   4
HETATM    4  C   UNL     1     -10.339  10.677  66.888  1.00  0.00    -0.236 C  
BRANCH   4   5
HETATM    5  O   UNL     1     -10.341  11.824  67.748  1.00  0.00    -0.188 OA 
BRANCH   5   6
HETATM    6  C   UNL     1      -9.247  12.645  67.731  1.00  0.00    -0.195 A  
HETATM    7  O   UNL     1     -10.700  18.700  65.871  1.00  0.00    -0.420 OA 
HETATM    8  O   UNL     1      -8.447  18.649  66.051  1.00  0.00    -0.486 OA 
HETATM    9  C   UNL     1      -7.970  12.226  68.135  1.00  0.00    -0.155 A  
HETATM   10  C   UNL     1      -6.871  13.082  68.054  1.00  0.00    -0.113 A  
HETATM   11  C   UNL     1      -9.675  18.083  66.095  1.00  0.00    -0.212 C  
HETATM   12  C   UNL     1      -7.032  14.371  67.567  1.00  0.00    -0.182 A  
HETATM   13  O   UNL     1      -8.364  16.112  66.740  1.00  0.00    -0.208 OA 
HETATM   14  C   UNL     1      -9.606  16.643  66.459  1.00  0.00    -0.273 C  
HETATM   15  C   UNL     1      -8.298  14.811  67.179  1.00  0.00    -0.214 A  
HETATM   16  C   UNL     1     -10.751  15.952  66.497  1.00  0.00    -0.258 C  
HETATM   17  C   UNL     1      -9.409  13.961  67.255  1.00  0.00    -0.231 A  
HETATM   18  O   UNL     1     -11.778  13.901  66.846  1.00  0.00    -0.355 OA 
HETATM   19  C   UNL     1     -10.728  14.525  66.861  1.00  0.00    -0.288 C  
ENDBRANCH   5   6
ENDBRANCH   4   5
ENDBRANCH   2   4
BRANCH   2  20
HETATM   20  C   UNL     1     -10.266   8.136  66.885  1.00  0.00    -0.316 C  
BRANCH  20  21
HETATM   21  O   UNL     1     -11.185   7.159  67.329  1.00  0.00    -0.240 OA 
BRANCH  21  22
HETATM   22  C   UNL     1     -10.719   6.044  67.989  1.00  0.00    -0.282 A  
HETATM   23  C   UNL     1     -11.001   6.019  71.857  1.00  0.00    -0.316 C  
HETATM   24  C   UNL     1     -11.388   6.373  70.490  1.00  0.00    -0.375 C  
HETATM   25  C   UNL     1     -10.688   5.692  69.360  1.00  0.00    -0.365 A  
HETATM   26  C   UNL     1      -9.962   4.539  69.740  1.00  0.00    -0.198 A  
HETATM   27  C   UNL     1     -10.259   4.932  72.058  1.00  0.00    -0.199 C  
HETATM   28  C   UNL     1      -9.367   3.700  68.790  1.00  0.00    -0.231 A  
HETATM   29  O   UNL     1      -9.772   4.132  71.047  1.00  0.00    -0.170 OA 
HETATM   30  C   UNL     1      -9.468   4.005  67.442  1.00  0.00    -0.231 A  
HETATM   31  C   UNL     1     -10.012   4.540  73.471  1.00  0.00    -0.144 C  
HETATM   32  O   UNL     1      -9.264   3.421  73.567  1.00  0.00    -0.095 OA 
HETATM   33  C   UNL     1     -10.115   5.175  67.054  1.00  0.00    -0.252 A  
HETATM   34  O   UNL     1     -12.332   7.142  70.387  1.00  0.00    -0.140 OA 
HETATM   35  O   UNL     1     -10.438   5.144  74.442  1.00  0.00    -0.272 OA 
ENDBRANCH  21  22
ENDBRANCH  20  21
ENDBRANCH   2  20
TORSDOF 6
ENDMDL
MODEL      149
REMARK 921   NORMALIZED FREE ENERGY PREDICTED BY IDOCK:   -6.02 KCAL/MOL
REMARK 922        TOTAL FREE ENERGY PREDICTED BY IDOCK:   -9.43 KCAL/MOL
REMARK 923 INTER-LIGAND FREE ENERGY PREDICTED BY IDOCK:   -6.72 KCAL/MOL
REMARK 924 INTRA-LIGAND FREE ENERGY PREDICTED BY IDOCK:   -2.71 KCAL/MOL
REMARK 927      BINDING AFFINITY PREDICTED BY RF-SCORE:    0.00 PKD
ROOT
HETATM    1  O   UNL     1      -6.401   3.482  67.457  1.00  0.00    -0.035 OA 
HETATM    2  C   UNL     1      -7.232   4.171  68.413  1.00  0.00    -0.056 C  
HETATM    3  H   UNL     1      -5.976   2.762  67.909  1.00  0.00     0.000 HD 
ENDROOT
BRANCH   2   4
HETATM    4  C   UNL     1      -8.238   3.176  68.992  1.00  0.00    -0.059 C  
BRANCH   4   5
HETATM    5  O   UNL     1      -9.451   3.866  69.318  1.00  0.00    -0.166 OA 
BRANCH   5   6
HETATM    6  C   UNL     1      -9.611   4.324  70.597  1.00  0.00    -0.190 A  
HETATM    7  O   UNL     1     -13.977   9.120  71.007  1.00  0.00    -0.181 OA 
HETATM    8  O   UNL     1     -13.072   8.951  73.072  1.00  0.00    -0.309 OA 
HETATM    9  C   UNL     1      -8.944   3.765  71.698  1.00  0.00    -0.155 A  
HETATM   10  C   UNL     1      -9.096   4.295  72.979  1.00  0.00    -0.122 A  
HETATM   11  C   UNL     1     -13.178   8.606  71.768  1.00  0.00    -0.363 C  
HETATM   12  C   UNL     1      -9.919   5.394  73.180  1.00  0.00    -0.189 A  
HETATM   13  O   UNL     1     -11.421   7.016  72.403  1.00  0.00    -0.264 OA 
HETATM   14  C   UNL     1     -12.218   7.530  71.402  1.00  0.00    -0.335 C  
HETATM   15  C   UNL     1     -10.606   5.951  72.101  1.00  0.00    -0.219 A  
HETATM   16  C   UNL     1     -12.191   7.124  70.127  1.00  0.00     0.115 C  
HETATM   17  C   UNL     1     -10.460   5.428  70.809  1.00  0.00    -0.317 A  
HETATM   18  O   UNL     1     -11.219   5.730  68.548  1.00  0.00    -0.122 OA 
HETATM   19  C   UNL     1     -11.261   6.055  69.724  1.00  0.00    -0.369 C  
ENDBRANCH   5   6
ENDBRANCH   4   5
ENDBRANCH   2   4
BRANCH   2  20
HETATM   20  C   UNL     1      -7.918   5.332  67.684  1.00  0.00    -0.100 C  
BRANCH  20  21
HETATM   21  O   UNL     1      -7.363   6.602  67.958  1.00  0.00    -0.091 OA 
BRANCH  21  22
HETATM   22  C   UNL     1      -8.004   7.443  68.840  1.00  0.00    -0.126 A  
HETATM   23  C   UNL     1     -10.539   9.976  67.356  1.00  0.00    -0.330 C  
HETATM   24  C   UNL     1      -9.785   8.723  67.425  1.00  0.00    -0.174 C  
HETATM   25  C   UNL     1      -8.985   8.448  68.656  1.00  0.00    -0.140 A  
HETATM   26  C   UNL     1      -9.310   9.278  69.754  1.00  0.00    -0.188 A  
HETATM   27  C   UNL     1     -10.714  10.688  68.467  1.00  0.00    -0.217 C  
HETATM   28  C   UNL     1      -8.761   9.062  71.024  1.00  0.00    -0.280 A  
HETATM   29  O   UNL     1     -10.177  10.351  69.692  1.00  0.00    -0.232 OA 
HETATM   30  C   UNL     1      -7.861   8.027  71.219  1.00  0.00    -0.094 A  
HETATM   31  C   UNL     1     -11.602  11.876  68.370  1.00  0.00    -0.317 C  
HETATM   32  O   UNL     1     -11.725  12.519  69.551  1.00  0.00    -0.290 OA 
HETATM   33  C   UNL     1      -7.473   7.247  70.133  1.00  0.00    -0.088 A  
HETATM   34  O   UNL     1      -9.951   7.951  66.492  1.00  0.00    -0.243 OA 
HETATM   35  O   UNL     1     -12.169  12.236  67.352  1.00  0.00    -0.478 OA 
ENDBRANCH  21  22
ENDBRANCH  20  21
ENDBRANCH   2  20
TORSDOF 6
ENDMDL
MODEL      150
REMARK 921   NORMALIZED FREE ENERGY PREDICTED BY IDOCK:   -6.00 KCAL/MOL
REMARK 922        TOTAL FREE ENERGY PREDICTED BY IDOCK:   -9.40 KCAL/MOL
REMARK 923 INTER-LIGAND FREE ENERGY PREDICTED BY IDOCK:   -8.43 KCAL/MOL
REMARK 924 INTRA-LIGAND FREE ENERGY PREDICTED BY IDOCK:   -0.97 KCAL/MOL
REMARK 927      BINDING AFFINITY PREDICTED BY RF-SCORE:    0.00 PKD
ROOT
HETATM    1  O   UNL     1     -11.818   9.299  70.234  1.00  0.00    -0.459 OA 
HETATM    2  C   UNL     1     -10.742   9.207  69.280  1.00  0.00    -0.183 C  
HETATM    3  H   UNL     1     -11.752   8.551  70.817  1.00  0.00     0.000 HD 
ENDROOT
BRANCH   2   4
HETATM    4  C   UNL     1      -9.415   9.179  70.039  1.00  0.00    -0.198 C  
BRANCH   4   5
HETATM    5  O   UNL     1      -8.556   8.192  69.454  1.00  0.00    -0.132 OA 
BRANCH   5   6
HETATM    6  C   UNL     1      -8.948   6.883  69.504  1.00  0.00    -0.143 A  
HETATM    7  O   UNL     1      -8.375   3.884  63.766  1.00  0.00    -0.089 OA 
HETATM    8  O   UNL     1      -9.398   2.394  65.126  1.00  0.00    -0.137 OA 
HETATM    9  C   UNL     1      -9.366   6.254  70.687  1.00  0.00    -0.171 A  
HETATM   10  C   UNL     1      -9.806   4.931  70.684  1.00  0.00    -0.289 A  
HETATM   11  C   UNL     1      -8.857   3.603  64.849  1.00  0.00    -0.121 C  
HETATM   12  C   UNL     1      -9.836   4.214  69.497  1.00  0.00    -0.183 A  
HETATM   13  O   UNL     1      -9.442   4.017  67.195  1.00  0.00    -0.171 OA 
HETATM   14  C   UNL     1      -8.916   4.516  66.022  1.00  0.00    -0.122 C  
HETATM   15  C   UNL     1      -9.406   4.815  68.314  1.00  0.00    -0.135 A  
HETATM   16  C   UNL     1      -8.450   5.761  65.869  1.00  0.00    -0.139 C  
HETATM   17  C   UNL     1      -8.962   6.145  68.304  1.00  0.00    -0.114 A  
HETATM   18  O   UNL     1      -8.095   7.839  66.835  1.00  0.00    -0.112 OA 
HETATM   19  C   UNL     1      -8.483   6.694  67.008  1.00  0.00    -0.113 C  
ENDBRANCH   5   6
ENDBRANCH   4   5
ENDBRANCH   2   4
BRANCH   2  20
HETATM   20  C   UNL     1     -10.847  10.414  68.340  1.00  0.00    -0.245 C  
BRANCH  20  21
HETATM   21  O   UNL     1      -9.913  10.412  67.280  1.00  0.00    -0.175 OA 
BRANCH  21  22
HETATM   22  C   UNL     1     -10.080  11.286  66.230  1.00  0.00    -0.230 A  
HETATM   23  C   UNL     1     -10.147  15.074  67.063  1.00  0.00    -0.244 C  
HETATM   24  C   UNL     1      -9.764  13.672  67.241  1.00  0.00    -0.243 C  
HETATM   25  C   UNL     1     -10.126  12.700  66.166  1.00  0.00    -0.268 A  
HETATM   26  C   UNL     1     -10.505  13.304  64.944  1.00  0.00    -0.371 A  
HETATM   27  C   UNL     1     -10.545  15.488  65.862  1.00  0.00    -0.339 C  
HETATM   28  C   UNL     1     -10.735  12.545  63.791  1.00  0.00    -0.483 A  
HETATM   29  O   UNL     1     -10.680  14.663  64.766  1.00  0.00    -0.412 OA 
HETATM   30  C   UNL     1     -10.611  11.166  63.837  1.00  0.00    -0.431 A  
HETATM   31  C   UNL     1     -10.787  16.946  65.703  1.00  0.00    -0.079 C  
HETATM   32  O   UNL     1     -11.172  17.266  64.448  1.00  0.00    -1.082 OA 
HETATM   33  C   UNL     1     -10.312  10.548  65.049  1.00  0.00    -0.310 A  
HETATM   34  O   UNL     1      -9.088  13.427  68.229  1.00  0.00    -0.189 OA 
HETATM   35  O   UNL     1     -10.649  17.773  66.589  1.00  0.00    -0.314 OA 
ENDBRANCH  21  22
ENDBRANCH  20  21
ENDBRANCH   2  20
TORSDOF 6
ENDMDL
MODEL      151
REMARK 921   NORMALIZED FREE ENERGY PREDICTED BY IDOCK:   -5.99 KCAL/MOL
REMARK 922        TOTAL FREE ENERGY PREDICTED BY IDOCK:   -9.39 KCAL/MOL
REMARK 923 INTER-LIGAND FREE ENERGY PREDICTED BY IDOCK:   -8.06 KCAL/MOL
REMARK 924 INTRA-LIGAND FREE ENERGY PREDICTED BY IDOCK:   -1.33 KCAL/MOL
REMARK 927      BINDING AFFINITY PREDICTED BY RF-SCORE:    0.00 PKD
ROOT
HETATM    1  O   UNL     1      -8.446   9.304  64.023  1.00  0.00    -0.175 OA 
HETATM    2  C   UNL     1      -8.442   9.570  65.439  1.00  0.00    -0.148 C  
HETATM    3  H   UNL     1      -9.258   9.645  63.666  1.00  0.00     0.000 HD 
ENDROOT
BRANCH   2   4
HETATM    4  C   UNL     1      -8.582  11.077  65.654  1.00  0.00    -0.130 C  
BRANCH   4   5
HETATM    5  O   UNL     1      -9.959  11.395  65.897  1.00  0.00    -0.216 OA 
BRANCH   5   6
HETATM    6  C   UNL     1     -10.243  12.437  66.735  1.00  0.00    -0.219 A  
HETATM    7  O   UNL     1     -13.186  10.514  72.202  1.00  0.00    -0.458 OA 
HETATM    8  O   UNL     1     -13.201  12.774  72.272  1.00  0.00    -0.475 OA 
HETATM    9  C   UNL     1      -9.877  13.764  66.458  1.00  0.00    -0.294 A  
HETATM   10  C   UNL     1     -10.232  14.804  67.316  1.00  0.00    -0.241 A  
HETATM   11  C   UNL     1     -12.931  11.586  71.684  1.00  0.00    -0.394 C  
HETATM   12  C   UNL     1     -10.961  14.535  68.466  1.00  0.00    -0.261 A  
HETATM   13  O   UNL     1     -12.009  13.049  69.943  1.00  0.00    -0.320 OA 
HETATM   14  C   UNL     1     -12.283  11.762  70.357  1.00  0.00    -0.330 C  
HETATM   15  C   UNL     1     -11.318  13.221  68.768  1.00  0.00    -0.290 A  
HETATM   16  C   UNL     1     -11.999  10.662  69.649  1.00  0.00    -0.340 C  
HETATM   17  C   UNL     1     -10.967  12.166  67.914  1.00  0.00    -0.272 A  
HETATM   18  O   UNL     1     -11.141   9.780  67.683  1.00  0.00    -0.244 OA 
HETATM   19  C   UNL     1     -11.350  10.792  68.333  1.00  0.00    -0.302 C  
ENDBRANCH   5   6
ENDBRANCH   4   5
ENDBRANCH   2   4
BRANCH   2  20
HETATM   20  C   UNL     1      -7.131   9.022  66.014  1.00  0.00    -0.085 C  
BRANCH  20  21
HETATM   21  O   UNL     1      -7.220   7.704  66.518  1.00  0.00    -0.078 OA 
BRANCH  21  22
HETATM   22  C   UNL     1      -8.440   7.222  66.936  1.00  0.00    -0.119 A  
HETATM   23  C   UNL     1      -9.536   8.064  70.560  1.00  0.00    -0.166 C  
HETATM   24  C   UNL     1      -8.848   8.283  69.286  1.00  0.00    -0.143 C  
HETATM   25  C   UNL     1      -9.149   7.355  68.154  1.00  0.00    -0.131 A  
HETATM   26  C   UNL     1     -10.312   6.571  68.342  1.00  0.00    -0.189 A  
HETATM   27  C   UNL     1     -10.585   7.246  70.597  1.00  0.00    -0.226 C  
HETATM   28  C   UNL     1     -10.819   5.756  67.324  1.00  0.00    -0.290 A  
HETATM   29  O   UNL     1     -11.046   6.531  69.512  1.00  0.00    -0.306 OA 
HETATM   30  C   UNL     1     -10.166   5.690  66.103  1.00  0.00    -0.093 A  
HETATM   31  C   UNL     1     -11.330   7.168  71.882  1.00  0.00    -0.260 C  
HETATM   32  O   UNL     1     -12.382   6.325  71.812  1.00  0.00    -0.283 OA 
HETATM   33  C   UNL     1      -8.979   6.396  65.926  1.00  0.00    -0.111 A  
HETATM   34  O   UNL     1      -8.144   9.279  69.225  1.00  0.00    -0.099 OA 
HETATM   35  O   UNL     1     -11.042   7.794  72.889  1.00  0.00    -0.368 OA 
ENDBRANCH  21  22
ENDBRANCH  20  21
ENDBRANCH   2  20
TORSDOF 6
ENDMDL
MODEL      152
REMARK 921   NORMALIZED FREE ENERGY PREDICTED BY IDOCK:   -5.96 KCAL/MOL
REMARK 922        TOTAL FREE ENERGY PREDICTED BY IDOCK:   -9.34 KCAL/MOL
REMARK 923 INTER-LIGAND FREE ENERGY PREDICTED BY IDOCK:   -8.98 KCAL/MOL
REMARK 924 INTRA-LIGAND FREE ENERGY PREDICTED BY IDOCK:   -0.36 KCAL/MOL
REMARK 927      BINDING AFFINITY PREDICTED BY RF-SCORE:    0.00 PKD
ROOT
HETATM    1  O   UNL     1     -13.111  12.340  63.357  1.00  0.00    -0.727 OA 
HETATM    2  C   UNL     1     -12.131  13.322  63.745  1.00  0.00    -0.482 C  
HETATM    3  H   UNL     1     -12.867  12.010  62.500  1.00  0.00     0.000 HD 
ENDROOT
BRANCH   2   4
HETATM    4  C   UNL     1     -10.752  12.662  63.750  1.00  0.00    -0.417 C  
BRANCH   4   5
HETATM    5  O   UNL     1     -10.907  11.243  63.880  1.00  0.00    -0.375 OA 
BRANCH   5   6
HETATM    6  C   UNL     1     -10.338  10.627  64.961  1.00  0.00    -0.271 A  
HETATM    7  O   UNL     1      -5.348   6.802  63.315  1.00  0.00    -0.029 OA 
HETATM    8  O   UNL     1      -5.674   6.450  65.525  1.00  0.00    -0.021 OA 
HETATM    9  C   UNL     1     -10.759  10.856  66.280  1.00  0.00    -0.241 A  
HETATM   10  C   UNL     1     -10.185  10.168  67.349  1.00  0.00    -0.267 A  
HETATM   11  C   UNL     1      -5.980   7.015  64.334  1.00  0.00    -0.036 C  
HETATM   12  C   UNL     1      -9.182   9.238  67.116  1.00  0.00    -0.157 A  
HETATM   13  O   UNL     1      -7.719   8.098  65.684  1.00  0.00    -0.083 OA 
HETATM   14  C   UNL     1      -7.155   7.922  64.438  1.00  0.00    -0.074 C  
HETATM   15  C   UNL     1      -8.738   9.011  65.813  1.00  0.00    -0.169 A  
HETATM   16  C   UNL     1      -7.588   8.514  63.319  1.00  0.00    -0.119 C  
HETATM   17  C   UNL     1      -9.306   9.696  64.730  1.00  0.00    -0.286 A  
HETATM   18  O   UNL     1      -9.152   9.921  62.342  1.00  0.00    -0.253 OA 
HETATM   19  C   UNL     1      -8.744   9.425  63.380  1.00  0.00    -0.204 C  
ENDBRANCH   5   6
ENDBRANCH   4   5
ENDBRANCH   2   4
BRANCH   2  20
HETATM   20  C   UNL     1     -12.525  13.853  65.128  1.00  0.00    -0.453 C  
BRANCH  20  21
HETATM   21  O   UNL     1     -11.550  13.651  66.131  1.00  0.00    -0.324 OA 
BRANCH  21  22
HETATM   22  C   UNL     1     -11.469  14.535  67.183  1.00  0.00    -0.368 A  
HETATM   23  C   UNL     1     -12.774  13.324  70.629  1.00  0.00    -0.227 C  
HETATM   24  C   UNL     1     -12.178  13.181  69.298  1.00  0.00    -0.116 C  
HETATM   25  C   UNL     1     -11.818  14.423  68.551  1.00  0.00    -0.369 A  
HETATM   26  C   UNL     1     -11.787  15.591  69.348  1.00  0.00    -0.374 A  
HETATM   27  C   UNL     1     -12.722  14.507  71.237  1.00  0.00    -0.342 C  
HETATM   28  C   UNL     1     -11.331  16.814  68.842  1.00  0.00    -0.016 A  
HETATM   29  O   UNL     1     -12.190  15.645  70.669  1.00  0.00    -0.366 OA 
HETATM   30  C   UNL     1     -10.913  16.901  67.524  1.00  0.00    -0.120 A  
HETATM   31  C   UNL     1     -13.216  14.562  72.638  1.00  0.00    -0.481 C  
HETATM   32  O   UNL     1     -13.109  15.799  73.168  1.00  0.00    -0.472 OA 
HETATM   33  C   UNL     1     -11.007  15.780  66.703  1.00  0.00    -0.179 A  
HETATM   34  O   UNL     1     -11.936  12.038  68.944  1.00  0.00    -0.297 OA 
HETATM   35  O   UNL     1     -13.659  13.608  73.255  1.00  0.00    -0.265 OA 
ENDBRANCH  21  22
ENDBRANCH  20  21
ENDBRANCH   2  20
TORSDOF 6
ENDMDL
MODEL      153
REMARK 921   NORMALIZED FREE ENERGY PREDICTED BY IDOCK:   -5.95 KCAL/MOL
REMARK 922        TOTAL FREE ENERGY PREDICTED BY IDOCK:   -9.33 KCAL/MOL
REMARK 923 INTER-LIGAND FREE ENERGY PREDICTED BY IDOCK:   -7.95 KCAL/MOL
REMARK 924 INTRA-LIGAND FREE ENERGY PREDICTED BY IDOCK:   -1.38 KCAL/MOL
REMARK 927      BINDING AFFINITY PREDICTED BY RF-SCORE:    0.00 PKD
ROOT
HETATM    1  O   UNL     1      -9.153   9.769  63.063  1.00  0.00    -0.250 OA 
HETATM    2  C   UNL     1      -9.337   9.616  64.484  1.00  0.00    -0.182 C  
HETATM    3  H   UNL     1      -9.703  10.489  62.776  1.00  0.00     0.000 HD 
ENDROOT
BRANCH   2   4
HETATM    4  C   UNL     1      -8.973  10.932  65.170  1.00  0.00    -0.180 C  
BRANCH   4   5
HETATM    5  O   UNL     1     -10.164  11.700  65.383  1.00  0.00    -0.241 OA 
BRANCH   5   6
HETATM    6  C   UNL     1     -10.693  11.735  66.644  1.00  0.00    -0.263 A  
HETATM    7  O   UNL     1     -10.621  17.704  69.216  1.00  0.00    -0.220 OA 
HETATM    8  O   UNL     1     -11.334  16.341  70.874  1.00  0.00    -0.389 OA 
HETATM    9  C   UNL     1     -11.244  10.609  67.274  1.00  0.00    -0.237 A  
HETATM   10  C   UNL     1     -11.726  10.677  68.581  1.00  0.00    -0.228 A  
HETATM   11  C   UNL     1     -10.880  16.585  69.623  1.00  0.00    -0.322 C  
HETATM   12  C   UNL     1     -11.665  11.874  69.280  1.00  0.00    -0.389 A  
HETATM   13  O   UNL     1     -11.150  14.155  69.422  1.00  0.00    -0.251 OA 
HETATM   14  C   UNL     1     -10.756  15.335  68.827  1.00  0.00    -0.241 C  
HETATM   15  C   UNL     1     -11.139  13.009  68.664  1.00  0.00    -0.269 A  
HETATM   16  C   UNL     1     -10.277  15.433  67.581  1.00  0.00    -0.246 C  
HETATM   17  C   UNL     1     -10.650  12.953  67.351  1.00  0.00    -0.242 A  
HETATM   18  O   UNL     1      -9.664  14.323  65.639  1.00  0.00    -0.288 OA 
HETATM   19  C   UNL     1     -10.145  14.219  66.756  1.00  0.00    -0.264 C  
ENDBRANCH   5   6
ENDBRANCH   4   5
ENDBRANCH   2   4
BRANCH   2  20
HETATM   20  C   UNL     1      -8.448   8.455  64.947  1.00  0.00    -0.122 C  
BRANCH  20  21
HETATM   21  O   UNL     1      -8.179   8.443  66.334  1.00  0.00    -0.104 OA 
BRANCH  21  22
HETATM   22  C   UNL     1      -9.096   7.886  67.196  1.00  0.00    -0.137 A  
HETATM   23  C   UNL     1      -8.671   8.640  70.977  1.00  0.00    -0.227 C  
HETATM   24  C   UNL     1      -8.572   8.907  69.540  1.00  0.00    -0.134 C  
HETATM   25  C   UNL     1      -9.256   7.968  68.600  1.00  0.00    -0.143 A  
HETATM   26  C   UNL     1     -10.200   7.115  69.219  1.00  0.00    -0.190 A  
HETATM   27  C   UNL     1      -9.570   7.760  71.411  1.00  0.00    -0.155 C  
HETATM   28  C   UNL     1     -11.032   6.276  68.469  1.00  0.00    -0.421 A  
HETATM   29  O   UNL     1     -10.393   7.024  70.584  1.00  0.00    -0.205 OA 
HETATM   30  C   UNL     1     -10.928   6.257  67.088  1.00  0.00    -0.453 A  
HETATM   31  C   UNL     1      -9.724   7.629  72.884  1.00  0.00    -0.226 C  
HETATM   32  O   UNL     1     -10.667   6.725  73.220  1.00  0.00    -0.273 OA 
HETATM   33  C   UNL     1      -9.955   7.034  66.466  1.00  0.00    -0.163 A  
HETATM   34  O   UNL     1      -8.007   9.944  69.229  1.00  0.00    -0.099 OA 
HETATM   35  O   UNL     1      -9.086   8.267  73.706  1.00  0.00    -0.197 OA 
ENDBRANCH  21  22
ENDBRANCH  20  21
ENDBRANCH   2  20
TORSDOF 6
ENDMDL
MODEL      154
REMARK 921   NORMALIZED FREE ENERGY PREDICTED BY IDOCK:   -5.95 KCAL/MOL
REMARK 922        TOTAL FREE ENERGY PREDICTED BY IDOCK:   -9.33 KCAL/MOL
REMARK 923 INTER-LIGAND FREE ENERGY PREDICTED BY IDOCK:   -7.97 KCAL/MOL
REMARK 924 INTRA-LIGAND FREE ENERGY PREDICTED BY IDOCK:   -1.36 KCAL/MOL
REMARK 927      BINDING AFFINITY PREDICTED BY RF-SCORE:    0.00 PKD
ROOT
HETATM    1  O   UNL     1     -11.495   7.783  73.486  1.00  0.00    -0.548 OA 
HETATM    2  C   UNL     1     -11.843   7.102  72.264  1.00  0.00    -0.239 C  
HETATM    3  H   UNL     1     -11.495   7.140  74.186  1.00  0.00     0.000 HD 
ENDROOT
BRANCH   2   4
HETATM    4  C   UNL     1     -10.830   5.983  72.023  1.00  0.00    -0.252 C  
BRANCH   4   5
HETATM    5  O   UNL     1     -10.721   5.740  70.615  1.00  0.00    -0.261 OA 
BRANCH   5   6
HETATM    6  C   UNL     1     -10.045   4.624  70.202  1.00  0.00    -0.213 A  
HETATM    7  O   UNL     1      -9.695   4.168  63.728  1.00  0.00    -0.158 OA 
HETATM    8  O   UNL     1      -8.817   2.239  64.517  1.00  0.00    -0.099 OA 
HETATM    9  C   UNL     1      -9.445   3.720  71.093  1.00  0.00    -0.236 A  
HETATM   10  C   UNL     1      -8.809   2.568  70.632  1.00  0.00    -0.142 A  
HETATM   11  C   UNL     1      -9.412   3.445  64.667  1.00  0.00    -0.154 C  
HETATM   12  C   UNL     1      -8.764   2.300  69.271  1.00  0.00    -0.130 A  
HETATM   13  O   UNL     1      -9.215   2.862  67.042  1.00  0.00    -0.170 OA 
HETATM   14  C   UNL     1      -9.654   3.768  66.098  1.00  0.00    -0.160 C  
HETATM   15  C   UNL     1      -9.338   3.196  68.369  1.00  0.00    -0.184 A  
HETATM   16  C   UNL     1     -10.275   4.918  66.383  1.00  0.00    -0.313 C  
HETATM   17  C   UNL     1      -9.980   4.357  68.820  1.00  0.00    -0.081 A  
HETATM   18  O   UNL     1     -11.136   6.310  68.027  1.00  0.00    -0.333 OA 
HETATM   19  C   UNL     1     -10.527   5.279  67.789  1.00  0.00    -0.095 C  
ENDBRANCH   5   6
ENDBRANCH   4   5
ENDBRANCH   2   4
BRANCH   2  20
HETATM   20  C   UNL     1     -11.842   8.139  71.135  1.00  0.00    -0.279 C  
BRANCH  20  21
HETATM   21  O   UNL     1     -10.735   9.017  71.149  1.00  0.00    -0.239 OA 
BRANCH  21  22
HETATM   22  C   UNL     1     -10.195   9.442  69.957  1.00  0.00    -0.229 A  
HETATM   23  C   UNL     1     -11.906  12.448  68.201  1.00  0.00    -0.372 C  
HETATM   24  C   UNL     1     -11.485  11.625  69.337  1.00  0.00    -0.307 C  
HETATM   25  C   UNL     1     -10.538  10.499  69.079  1.00  0.00    -0.250 A  
HETATM   26  C   UNL     1      -9.895  10.560  67.820  1.00  0.00    -0.165 A  
HETATM   27  C   UNL     1     -11.240  12.354  67.052  1.00  0.00    -0.303 C  
HETATM   28  C   UNL     1      -8.873   9.668  67.474  1.00  0.00    -0.129 A  
HETATM   29  O   UNL     1     -10.198  11.478  66.833  1.00  0.00    -0.208 OA 
HETATM   30  C   UNL     1      -8.484   8.685  68.369  1.00  0.00    -0.131 A  
HETATM   31  C   UNL     1     -11.619  13.309  65.978  1.00  0.00    -0.349 C  
HETATM   32  O   UNL     1     -10.878  13.142  64.862  1.00  0.00    -0.302 OA 
HETATM   33  C   UNL     1      -9.156   8.562  69.582  1.00  0.00    -0.149 A  
HETATM   34  O   UNL     1     -11.878  11.991  70.434  1.00  0.00    -0.322 OA 
HETATM   35  O   UNL     1     -12.489  14.159  66.081  1.00  0.00    -0.466 OA 
ENDBRANCH  21  22
ENDBRANCH  20  21
ENDBRANCH   2  20
TORSDOF 6
ENDMDL
MODEL      155
REMARK 921   NORMALIZED FREE ENERGY PREDICTED BY IDOCK:   -5.93 KCAL/MOL
REMARK 922        TOTAL FREE ENERGY PREDICTED BY IDOCK:   -9.31 KCAL/MOL
REMARK 923 INTER-LIGAND FREE ENERGY PREDICTED BY IDOCK:   -5.99 KCAL/MOL
REMARK 924 INTRA-LIGAND FREE ENERGY PREDICTED BY IDOCK:   -3.32 KCAL/MOL
REMARK 927      BINDING AFFINITY PREDICTED BY RF-SCORE:    0.00 PKD
ROOT
HETATM    1  O   UNL     1      -8.457  14.317  66.500  1.00  0.00    -0.420 OA 
HETATM    2  C   UNL     1      -7.889  13.785  67.713  1.00  0.00    -0.172 C  
HETATM    3  H   UNL     1      -7.770  14.788  66.041  1.00  0.00     0.000 HD 
ENDROOT
BRANCH   2   4
HETATM    4  C   UNL     1      -6.712  12.882  67.347  1.00  0.00    -0.124 C  
BRANCH   4   5
HETATM    5  O   UNL     1      -6.750  11.701  68.159  1.00  0.00    -0.059 OA 
BRANCH   5   6
HETATM    6  C   UNL     1      -6.603  10.488  67.545  1.00  0.00    -0.066 A  
HETATM    7  O   UNL     1      -7.955   5.508  71.495  1.00  0.00    -0.111 OA 
HETATM    8  O   UNL     1      -7.166   4.572  69.593  1.00  0.00    -0.049 OA 
HETATM    9  C   UNL     1      -6.258  10.354  66.191  1.00  0.00    -0.101 A  
HETATM   10  C   UNL     1      -6.069   9.097  65.616  1.00  0.00    -0.055 A  
HETATM   11  C   UNL     1      -7.488   5.627  70.376  1.00  0.00    -0.080 C  
HETATM   12  C   UNL     1      -6.220   7.953  66.388  1.00  0.00    -0.046 A  
HETATM   13  O   UNL     1      -6.739   6.879  68.404  1.00  0.00    -0.062 OA 
HETATM   14  C   UNL     1      -7.214   6.922  69.698  1.00  0.00    -0.080 C  
HETATM   15  C   UNL     1      -6.581   8.066  67.730  1.00  0.00    -0.057 A  
HETATM   16  C   UNL     1      -7.450   8.048  70.382  1.00  0.00    -0.075 C  
HETATM   17  C   UNL     1      -6.774   9.324  68.319  1.00  0.00    -0.060 A  
HETATM   18  O   UNL     1      -7.377  10.366  70.400  1.00  0.00    -0.245 OA 
HETATM   19  C   UNL     1      -7.199   9.352  69.744  1.00  0.00    -0.076 C  
ENDBRANCH   5   6
ENDBRANCH   4   5
ENDBRANCH   2   4
BRANCH   2  20
HETATM   20  C   UNL     1      -8.996  13.025  68.452  1.00  0.00    -0.126 C  
BRANCH  20  21
HETATM   21  O   UNL     1     -10.038  12.557  67.621  1.00  0.00    -0.210 OA 
BRANCH  21  22
HETATM   22  C   UNL     1     -10.193  11.203  67.428  1.00  0.00    -0.190 A  
HETATM   23  C   UNL     1     -11.207   9.072  70.506  1.00  0.00    -0.301 C  
HETATM   24  C   UNL     1     -11.147  10.275  69.672  1.00  0.00    -0.274 C  
HETATM   25  C   UNL     1     -10.571  10.153  68.300  1.00  0.00    -0.262 A  
HETATM   26  C   UNL     1     -10.453   8.821  67.837  1.00  0.00    -0.216 A  
HETATM   27  C   UNL     1     -11.014   7.883  69.939  1.00  0.00    -0.178 C  
HETATM   28  C   UNL     1     -10.068   8.533  66.523  1.00  0.00    -0.328 A  
HETATM   29  O   UNL     1     -10.698   7.703  68.610  1.00  0.00    -0.163 OA 
HETATM   30  C   UNL     1      -9.776   9.566  65.647  1.00  0.00    -0.361 A  
HETATM   31  C   UNL     1     -11.222   6.688  70.800  1.00  0.00    -0.315 C  
HETATM   32  O   UNL     1     -11.016   5.534  70.131  1.00  0.00    -0.286 OA 
HETATM   33  C   UNL     1      -9.814  10.881  66.106  1.00  0.00    -0.268 A  
HETATM   34  O   UNL     1     -11.668  11.274  70.144  1.00  0.00    -0.309 OA 
HETATM   35  O   UNL     1     -11.552   6.729  71.974  1.00  0.00    -0.267 OA 
ENDBRANCH  21  22
ENDBRANCH  20  21
ENDBRANCH   2  20
TORSDOF 6
ENDMDL
MODEL      156
REMARK 921   NORMALIZED FREE ENERGY PREDICTED BY IDOCK:   -5.93 KCAL/MOL
REMARK 922        TOTAL FREE ENERGY PREDICTED BY IDOCK:   -9.31 KCAL/MOL
REMARK 923 INTER-LIGAND FREE ENERGY PREDICTED BY IDOCK:   -8.45 KCAL/MOL
REMARK 924 INTRA-LIGAND FREE ENERGY PREDICTED BY IDOCK:   -0.85 KCAL/MOL
REMARK 927      BINDING AFFINITY PREDICTED BY RF-SCORE:    0.00 PKD
ROOT
HETATM    1  O   UNL     1      -9.068   8.507  64.337  1.00  0.00    -0.365 OA 
HETATM    2  C   UNL     1      -8.721   9.041  65.630  1.00  0.00    -0.175 C  
HETATM    3  H   UNL     1      -9.430   7.639  64.470  1.00  0.00     0.000 HD 
ENDROOT
BRANCH   2   4
HETATM    4  C   UNL     1      -9.975   9.065  66.503  1.00  0.00    -0.285 C  
BRANCH   4   5
HETATM    5  O   UNL     1      -9.868   8.052  67.512  1.00  0.00    -0.151 OA 
BRANCH   5   6
HETATM    6  C   UNL     1     -10.223   8.376  68.793  1.00  0.00    -0.207 A  
HETATM    7  O   UNL     1     -10.269   3.220  72.750  1.00  0.00    -0.150 OA 
HETATM    8  O   UNL     1     -11.091   4.931  73.979  1.00  0.00    -0.287 OA 
HETATM    9  C   UNL     1     -10.484   9.692  69.205  1.00  0.00    -0.230 A  
HETATM   10  C   UNL     1     -10.893   9.972  70.508  1.00  0.00    -0.380 A  
HETATM   11  C   UNL     1     -10.613   4.385  72.837  1.00  0.00    -0.193 C  
HETATM   12  C   UNL     1     -11.048   8.939  71.422  1.00  0.00    -0.376 A  
HETATM   13  O   UNL     1     -10.925   6.677  72.018  1.00  0.00    -0.228 OA 
HETATM   14  C   UNL     1     -10.552   5.380  71.733  1.00  0.00    -0.222 C  
HETATM   15  C   UNL     1     -10.775   7.627  71.037  1.00  0.00    -0.228 A  
HETATM   16  C   UNL     1     -10.135   4.958  70.534  1.00  0.00    -0.312 C  
HETATM   17  C   UNL     1     -10.364   7.332  69.729  1.00  0.00    -0.227 A  
HETATM   18  O   UNL     1      -9.712   5.498  68.318  1.00  0.00    -0.121 OA 
HETATM   19  C   UNL     1     -10.053   5.913  69.415  1.00  0.00    -0.202 C  
ENDBRANCH   5   6
ENDBRANCH   4   5
ENDBRANCH   2   4
BRANCH   2  20
HETATM   20  C   UNL     1      -8.137  10.442  65.415  1.00  0.00    -0.152 C  
BRANCH  20  21
HETATM   21  O   UNL     1      -9.090  11.485  65.457  1.00  0.00    -0.187 OA 
BRANCH  21  22
HETATM   22  C   UNL     1      -8.946  12.496  66.380  1.00  0.00    -0.073 A  
HETATM   23  C   UNL     1     -10.320  15.993  65.417  1.00  0.00    -0.386 C  
HETATM   24  C   UNL     1     -10.264  14.529  65.411  1.00  0.00    -0.389 C  
HETATM   25  C   UNL     1      -9.342  13.855  66.374  1.00  0.00    -0.226 A  
HETATM   26  C   UNL     1      -8.873  14.695  67.411  1.00  0.00    -0.195 A  
HETATM   27  C   UNL     1      -9.778  16.656  66.436  1.00  0.00    -0.286 C  
HETATM   28  C   UNL     1      -8.119  14.193  68.478  1.00  0.00    -0.143 A  
HETATM   29  O   UNL     1      -9.105  16.055  67.478  1.00  0.00    -0.196 OA 
HETATM   30  C   UNL     1      -7.801  12.845  68.522  1.00  0.00    -0.099 A  
HETATM   31  C   UNL     1      -9.985  18.128  66.463  1.00  0.00    -0.374 C  
HETATM   32  O   UNL     1      -9.411  18.705  67.540  1.00  0.00    -0.280 OA 
HETATM   33  C   UNL     1      -8.190  12.017  67.472  1.00  0.00    -0.159 A  
HETATM   34  O   UNL     1     -11.057  13.970  64.670  1.00  0.00    -0.370 OA 
HETATM   35  O   UNL     1     -10.607  18.756  65.622  1.00  0.00    -0.596 OA 
ENDBRANCH  21  22
ENDBRANCH  20  21
ENDBRANCH   2  20
TORSDOF 6
ENDMDL
MODEL      157
REMARK 921   NORMALIZED FREE ENERGY PREDICTED BY IDOCK:   -5.91 KCAL/MOL
REMARK 922        TOTAL FREE ENERGY PREDICTED BY IDOCK:   -9.28 KCAL/MOL
REMARK 923 INTER-LIGAND FREE ENERGY PREDICTED BY IDOCK:   -7.61 KCAL/MOL
REMARK 924 INTRA-LIGAND FREE ENERGY PREDICTED BY IDOCK:   -1.67 KCAL/MOL
REMARK 927      BINDING AFFINITY PREDICTED BY RF-SCORE:    0.00 PKD
ROOT
HETATM    1  O   UNL     1      -9.999  13.073  63.811  1.00  0.00    -0.744 OA 
HETATM    2  C   UNL     1     -10.314  12.279  64.972  1.00  0.00    -0.291 C  
HETATM    3  H   UNL     1     -10.151  13.985  64.034  1.00  0.00     0.000 HD 
ENDROOT
BRANCH   2   4
HETATM    4  C   UNL     1      -9.439  12.745  66.136  1.00  0.00    -0.164 C  
BRANCH   4   5
HETATM    5  O   UNL     1     -10.053  12.364  67.373  1.00  0.00    -0.200 OA 
BRANCH   5   6
HETATM    6  C   UNL     1      -9.392  11.477  68.177  1.00  0.00    -0.185 A  
HETATM    7  O   UNL     1     -13.343   8.508  72.398  1.00  0.00    -0.336 OA 
HETATM    8  O   UNL     1     -11.256   7.843  72.956  1.00  0.00    -0.411 OA 
HETATM    9  C   UNL     1      -8.022  11.203  68.049  1.00  0.00    -0.117 A  
HETATM   10  C   UNL     1      -7.376  10.329  68.923  1.00  0.00    -0.090 A  
HETATM   11  C   UNL     1     -12.139   8.559  72.224  1.00  0.00    -0.387 C  
HETATM   12  C   UNL     1      -8.091   9.715  69.941  1.00  0.00    -0.180 A  
HETATM   13  O   UNL     1     -10.087   9.281  71.089  1.00  0.00    -0.288 OA 
HETATM   14  C   UNL     1     -11.459   9.386  71.192  1.00  0.00    -0.352 C  
HETATM   15  C   UNL     1      -9.458   9.959  70.072  1.00  0.00    -0.202 A  
HETATM   16  C   UNL     1     -12.218  10.177  70.424  1.00  0.00    -0.300 C  
HETATM   17  C   UNL     1     -10.118  10.836  69.200  1.00  0.00    -0.224 A  
HETATM   18  O   UNL     1     -12.288  11.754  68.725  1.00  0.00    -0.314 OA 
HETATM   19  C   UNL     1     -11.584  11.006  69.385  1.00  0.00    -0.312 C  
ENDBRANCH   5   6
ENDBRANCH   4   5
ENDBRANCH   2   4
BRANCH   2  20
HETATM   20  C   UNL     1     -10.068  10.810  64.613  1.00  0.00    -0.344 C  
BRANCH  20  21
HETATM   21  O   UNL     1      -8.789  10.327  64.971  1.00  0.00    -0.166 OA 
BRANCH  21  22
HETATM   22  C   UNL     1      -8.501   8.991  64.809  1.00  0.00    -0.180 A  
HETATM   23  C   UNL     1      -9.652   6.570  67.612  1.00  0.00    -0.131 C  
HETATM   24  C   UNL     1      -9.714   7.765  66.767  1.00  0.00    -0.227 C  
HETATM   25  C   UNL     1      -8.786   7.852  65.600  1.00  0.00    -0.121 A  
HETATM   26  C   UNL     1      -8.181   6.622  65.248  1.00  0.00    -0.133 A  
HETATM   27  C   UNL     1      -8.991   5.502  67.173  1.00  0.00    -0.112 C  
HETATM   28  C   UNL     1      -7.399   6.493  64.095  1.00  0.00    -0.077 A  
HETATM   29  O   UNL     1      -8.298   5.457  65.982  1.00  0.00    -0.114 OA 
HETATM   30  C   UNL     1      -7.187   7.592  63.279  1.00  0.00    -0.083 A  
HETATM   31  C   UNL     1      -9.076   4.272  68.005  1.00  0.00    -0.131 C  
HETATM   32  O   UNL     1      -8.386   3.244  67.468  1.00  0.00    -0.084 OA 
HETATM   33  C   UNL     1      -7.712   8.828  63.649  1.00  0.00    -0.133 A  
HETATM   34  O   UNL     1     -10.599   8.562  67.038  1.00  0.00    -0.306 OA 
HETATM   35  O   UNL     1      -9.702   4.184  69.048  1.00  0.00    -0.173 OA 
ENDBRANCH  21  22
ENDBRANCH  20  21
ENDBRANCH   2  20
TORSDOF 6
ENDMDL
MODEL      158
REMARK 921   NORMALIZED FREE ENERGY PREDICTED BY IDOCK:   -5.91 KCAL/MOL
REMARK 922        TOTAL FREE ENERGY PREDICTED BY IDOCK:   -9.27 KCAL/MOL
REMARK 923 INTER-LIGAND FREE ENERGY PREDICTED BY IDOCK:   -9.57 KCAL/MOL
REMARK 924 INTRA-LIGAND FREE ENERGY PREDICTED BY IDOCK:    0.29 KCAL/MOL
REMARK 927      BINDING AFFINITY PREDICTED BY RF-SCORE:    0.00 PKD
ROOT
HETATM    1  O   UNL     1     -13.193  13.578  64.894  1.00  0.00    -0.661 OA 
HETATM    2  C   UNL     1     -11.925  13.432  65.564  1.00  0.00    -0.398 C  
HETATM    3  H   UNL     1     -13.806  13.954  65.515  1.00  0.00     0.000 HD 
ENDROOT
BRANCH   2   4
HETATM    4  C   UNL     1     -11.474  14.804  66.063  1.00  0.00    -0.316 C  
BRANCH   4   5
HETATM    5  O   UNL     1     -10.734  14.645  67.280  1.00  0.00    -0.281 OA 
BRANCH   5   6
HETATM    6  C   UNL     1     -11.229  13.797  68.232  1.00  0.00    -0.273 A  
HETATM    7  O   UNL     1     -12.515  16.816  73.842  1.00  0.00    -0.462 OA 
HETATM    8  O   UNL     1     -12.850  14.617  74.250  1.00  0.00    -0.241 OA 
HETATM    9  C   UNL     1     -11.485  12.439  67.988  1.00  0.00    -0.377 A  
HETATM   10  C   UNL     1     -11.942  11.597  69.001  1.00  0.00    -0.368 A  
HETATM   11  C   UNL     1     -12.493  15.658  73.464  1.00  0.00    -0.551 C  
HETATM   12  C   UNL     1     -12.150  12.100  70.278  1.00  0.00    -0.385 A  
HETATM   13  O   UNL     1     -12.185  13.864  71.819  1.00  0.00    -0.204 OA 
HETATM   14  C   UNL     1     -12.094  15.211  72.102  1.00  0.00    -0.393 C  
HETATM   15  C   UNL     1     -11.920  13.452  70.535  1.00  0.00    -0.255 A  
HETATM   16  C   UNL     1     -11.678  16.142  71.236  1.00  0.00    -0.480 C  
HETATM   17  C   UNL     1     -11.460  14.308  69.525  1.00  0.00    -0.336 A  
HETATM   18  O   UNL     1     -10.862  16.600  69.113  1.00  0.00    -0.320 OA 
HETATM   19  C   UNL     1     -11.282  15.742  69.874  1.00  0.00    -0.334 C  
ENDBRANCH   5   6
ENDBRANCH   4   5
ENDBRANCH   2   4
BRANCH   2  20
HETATM   20  C   UNL     1     -10.935  12.825  64.563  1.00  0.00    -0.341 C  
BRANCH  20  21
HETATM   21  O   UNL     1     -11.197  11.478  64.226  1.00  0.00    -0.338 OA 
BRANCH  21  22
HETATM   22  C   UNL     1     -10.147  10.599  64.089  1.00  0.00    -0.334 A  
HETATM   23  C   UNL     1      -8.974   8.720  67.273  1.00  0.00    -0.144 C  
HETATM   24  C   UNL     1      -9.932   9.391  66.393  1.00  0.00    -0.276 C  
HETATM   25  C   UNL     1      -9.492   9.746  65.011  1.00  0.00    -0.337 A  
HETATM   26  C   UNL     1      -8.305   9.096  64.597  1.00  0.00    -0.172 A  
HETATM   27  C   UNL     1      -7.864   8.206  66.748  1.00  0.00    -0.095 C  
HETATM   28  C   UNL     1      -7.831   9.202  63.284  1.00  0.00    -0.130 A  
HETATM   29  O   UNL     1      -7.517   8.313  65.418  1.00  0.00    -0.080 OA 
HETATM   30  C   UNL     1      -8.519   9.973  62.362  1.00  0.00    -0.180 A  
HETATM   31  C   UNL     1      -6.995   7.415  67.659  1.00  0.00    -0.079 C  
HETATM   32  O   UNL     1      -5.905   6.927  67.029  1.00  0.00    -0.017 OA 
HETATM   33  C   UNL     1      -9.647  10.681  62.771  1.00  0.00    -0.333 A  
HETATM   34  O   UNL     1     -11.061   9.524  66.840  1.00  0.00     0.009 OA 
HETATM   35  O   UNL     1      -7.230   7.213  68.839  1.00  0.00    -0.085 OA 
ENDBRANCH  21  22
ENDBRANCH  20  21
ENDBRANCH   2  20
TORSDOF 6
ENDMDL
MODEL      159
REMARK 921   NORMALIZED FREE ENERGY PREDICTED BY IDOCK:   -5.90 KCAL/MOL
REMARK 922        TOTAL FREE ENERGY PREDICTED BY IDOCK:   -9.27 KCAL/MOL
REMARK 923 INTER-LIGAND FREE ENERGY PREDICTED BY IDOCK:   -7.91 KCAL/MOL
REMARK 924 INTRA-LIGAND FREE ENERGY PREDICTED BY IDOCK:   -1.35 KCAL/MOL
REMARK 927      BINDING AFFINITY PREDICTED BY RF-SCORE:    0.00 PKD
ROOT
HETATM    1  O   UNL     1      -9.610  10.167  65.959  1.00  0.00    -0.183 OA 
HETATM    2  C   UNL     1      -9.705  10.011  64.529  1.00  0.00    -0.239 C  
HETATM    3  H   UNL     1      -9.174   9.397  66.305  1.00  0.00     0.000 HD 
ENDROOT
BRANCH   2   4
HETATM    4  C   UNL     1      -8.297   9.838  63.961  1.00  0.00    -0.169 C  
BRANCH   4   5
HETATM    5  O   UNL     1      -7.620   8.801  64.681  1.00  0.00    -0.101 OA 
BRANCH   5   6
HETATM    6  C   UNL     1      -7.906   7.501  64.366  1.00  0.00    -0.128 A  
HETATM    7  O   UNL     1      -9.758   4.025  69.535  1.00  0.00    -0.202 OA 
HETATM    8  O   UNL     1      -9.599   2.541  67.836  1.00  0.00    -0.186 OA 
HETATM    9  C   UNL     1      -7.860   7.005  63.053  1.00  0.00    -0.107 A  
HETATM   10  C   UNL     1      -8.110   5.660  62.781  1.00  0.00    -0.105 A  
HETATM   11  C   UNL     1      -9.488   3.777  68.373  1.00  0.00    -0.148 C  
HETATM   12  C   UNL     1      -8.409   4.788  63.819  1.00  0.00    -0.124 A  
HETATM   13  O   UNL     1      -8.813   4.336  66.082  1.00  0.00    -0.113 OA 
HETATM   14  C   UNL     1      -9.016   4.773  67.375  1.00  0.00    -0.109 C  
HETATM   15  C   UNL     1      -8.478   5.267  65.127  1.00  0.00    -0.149 A  
HETATM   16  C   UNL     1      -8.824   6.031  67.789  1.00  0.00    -0.106 C  
HETATM   17  C   UNL     1      -8.229   6.616  65.413  1.00  0.00    -0.138 A  
HETATM   18  O   UNL     1      -8.152   8.181  67.236  1.00  0.00    -0.117 OA 
HETATM   19  C   UNL     1      -8.365   7.050  66.829  1.00  0.00    -0.116 C  
ENDBRANCH   5   6
ENDBRANCH   4   5
ENDBRANCH   2   4
BRANCH   2  20
HETATM   20  C   UNL     1     -10.407  11.254  63.970  1.00  0.00    -0.371 C  
BRANCH  20  21
HETATM   21  O   UNL     1     -11.464  11.738  64.773  1.00  0.00    -0.293 OA 
BRANCH  21  22
HETATM   22  C   UNL     1     -11.287  12.896  65.497  1.00  0.00    -0.307 A  
HETATM   23  C   UNL     1     -12.195  12.794  69.266  1.00  0.00    -0.104 C  
HETATM   24  C   UNL     1     -11.742  12.250  67.984  1.00  0.00    -0.356 C  
HETATM   25  C   UNL     1     -11.486  13.205  66.864  1.00  0.00    -0.384 A  
HETATM   26  C   UNL     1     -11.391  14.557  67.267  1.00  0.00    -0.350 A  
HETATM   27  C   UNL     1     -12.100  14.104  69.482  1.00  0.00    -0.340 C  
HETATM   28  C   UNL     1     -11.012  15.565  66.372  1.00  0.00    -0.238 A  
HETATM   29  O   UNL     1     -11.651  15.011  68.546  1.00  0.00    -0.302 OA 
HETATM   30  C   UNL     1     -10.739  15.247  65.051  1.00  0.00    -0.461 A  
HETATM   31  C   UNL     1     -12.442  14.585  70.847  1.00  0.00    -0.345 C  
HETATM   32  O   UNL     1     -12.301  15.922  70.968  1.00  0.00    -0.421 OA 
HETATM   33  C   UNL     1     -10.901  13.932  64.619  1.00  0.00    -0.420 A  
HETATM   34  O   UNL     1     -11.519  11.049  67.965  1.00  0.00    -0.353 OA 
HETATM   35  O   UNL     1     -12.801  13.866  71.766  1.00  0.00    -0.328 OA 
ENDBRANCH  21  22
ENDBRANCH  20  21
ENDBRANCH   2  20
TORSDOF 6
ENDMDL
MODEL      160
REMARK 921   NORMALIZED FREE ENERGY PREDICTED BY IDOCK:   -5.88 KCAL/MOL
REMARK 922        TOTAL FREE ENERGY PREDICTED BY IDOCK:   -9.23 KCAL/MOL
REMARK 923 INTER-LIGAND FREE ENERGY PREDICTED BY IDOCK:   -8.50 KCAL/MOL
REMARK 924 INTRA-LIGAND FREE ENERGY PREDICTED BY IDOCK:   -0.74 KCAL/MOL
REMARK 927      BINDING AFFINITY PREDICTED BY RF-SCORE:    0.00 PKD
ROOT
HETATM    1  O   UNL     1      -9.168  11.882  65.065  1.00  0.00    -0.424 OA 
HETATM    2  C   UNL     1      -9.303  11.511  66.451  1.00  0.00    -0.209 C  
HETATM    3  H   UNL     1      -8.240  11.938  64.870  1.00  0.00     0.000 HD 
ENDROOT
BRANCH   2   4
HETATM    4  C   UNL     1      -8.583  10.182  66.675  1.00  0.00    -0.126 C  
BRANCH   4   5
HETATM    5  O   UNL     1      -9.184   9.173  65.853  1.00  0.00    -0.193 OA 
BRANCH   5   6
HETATM    6  C   UNL     1      -9.561   7.999  66.444  1.00  0.00    -0.197 A  
HETATM    7  O   UNL     1      -6.471   2.850  63.957  1.00  0.00    -0.028 OA 
HETATM    8  O   UNL     1      -8.002   2.001  65.387  1.00  0.00    -0.072 OA 
HETATM    9  C   UNL     1     -10.470   7.936  67.511  1.00  0.00    -0.332 A  
HETATM   10  C   UNL     1     -10.866   6.713  68.051  1.00  0.00    -0.345 A  
HETATM   11  C   UNL     1      -7.390   3.018  64.737  1.00  0.00    -0.070 C  
HETATM   12  C   UNL     1     -10.360   5.530  67.530  1.00  0.00    -0.268 A  
HETATM   13  O   UNL     1      -8.970   4.354  66.056  1.00  0.00    -0.117 OA 
HETATM   14  C   UNL     1      -7.969   4.337  65.107  1.00  0.00    -0.097 C  
HETATM   15  C   UNL     1      -9.440   5.573  66.482  1.00  0.00    -0.151 A  
HETATM   16  C   UNL     1      -7.479   5.426  64.502  1.00  0.00    -0.067 C  
HETATM   17  C   UNL     1      -9.035   6.796  65.931  1.00  0.00    -0.095 A  
HETATM   18  O   UNL     1      -7.591   7.729  64.250  1.00  0.00    -0.096 OA 
HETATM   19  C   UNL     1      -8.020   6.753  64.845  1.00  0.00    -0.124 C  
ENDBRANCH   5   6
ENDBRANCH   4   5
ENDBRANCH   2   4
BRANCH   2  20
HETATM   20  C   UNL     1     -10.800  11.420  66.767  1.00  0.00    -0.286 C  
BRANCH  20  21
HETATM   21  O   UNL     1     -11.551  12.550  66.371  1.00  0.00    -0.349 OA 
BRANCH  21  22
HETATM   22  C   UNL     1     -11.599  13.652  67.195  1.00  0.00    -0.361 A  
HETATM   23  C   UNL     1     -10.348  17.021  65.735  1.00  0.00    -0.275 C  
HETATM   24  C   UNL     1     -10.947  15.685  65.694  1.00  0.00    -0.272 C  
HETATM   25  C   UNL     1     -11.256  15.011  66.990  1.00  0.00    -0.328 A  
HETATM   26  C   UNL     1     -11.243  15.875  68.110  1.00  0.00    -0.339 A  
HETATM   27  C   UNL     1     -10.354  17.696  66.882  1.00  0.00    -0.329 C  
HETATM   28  C   UNL     1     -11.650  15.441  69.377  1.00  0.00    -0.354 A  
HETATM   29  O   UNL     1     -10.840  17.196  68.071  1.00  0.00    -0.378 OA 
HETATM   30  C   UNL     1     -12.062  14.130  69.557  1.00  0.00    -0.388 A  
HETATM   31  C   UNL     1      -9.861  19.098  66.836  1.00  0.00    -0.335 C  
HETATM   32  O   UNL     1      -9.920  19.700  68.044  1.00  0.00    -0.376 OA 
HETATM   33  C   UNL     1     -12.011  13.245  68.483  1.00  0.00    -0.340 A  
HETATM   34  O   UNL     1     -11.233  15.264  64.583  1.00  0.00    -0.396 OA 
HETATM   35  O   UNL     1      -9.456  19.658  65.831  1.00  0.00    -0.378 OA 
ENDBRANCH  21  22
ENDBRANCH  20  21
ENDBRANCH   2  20
TORSDOF 6
ENDMDL
MODEL      161
REMARK 921   NORMALIZED FREE ENERGY PREDICTED BY IDOCK:   -5.86 KCAL/MOL
REMARK 922        TOTAL FREE ENERGY PREDICTED BY IDOCK:   -9.22 KCAL/MOL
REMARK 923 INTER-LIGAND FREE ENERGY PREDICTED BY IDOCK:   -6.39 KCAL/MOL
REMARK 924 INTRA-LIGAND FREE ENERGY PREDICTED BY IDOCK:   -2.83 KCAL/MOL
REMARK 927      BINDING AFFINITY PREDICTED BY RF-SCORE:    0.00 PKD
ROOT
HETATM    1  O   UNL     1     -11.166   4.401  64.852  1.00  0.00    -0.888 OA 
HETATM    2  C   UNL     1      -9.760   4.088  64.807  1.00  0.00    -0.187 C  
HETATM    3  H   UNL     1     -11.625   3.627  65.159  1.00  0.00     0.000 HD 
ENDROOT
BRANCH   2   4
HETATM    4  C   UNL     1      -9.308   3.662  66.203  1.00  0.00    -0.174 C  
BRANCH   4   5
HETATM    5  O   UNL     1     -10.184   4.238  67.181  1.00  0.00    -0.099 OA 
BRANCH   5   6
HETATM    6  C   UNL     1      -9.899   4.036  68.503  1.00  0.00     0.026 A  
HETATM    7  O   UNL     1     -12.195   8.780  72.306  1.00  0.00    -0.364 OA 
HETATM    8  O   UNL     1     -10.975   7.452  73.669  1.00  0.00    -0.306 OA 
HETATM    9  C   UNL     1      -9.237   2.893  68.977  1.00  0.00    -0.222 A  
HETATM   10  C   UNL     1      -8.921   2.750  70.328  1.00  0.00    -0.165 A  
HETATM   11  C   UNL     1     -11.470   7.814  72.464  1.00  0.00    -0.373 C  
HETATM   12  C   UNL     1      -9.261   3.750  71.228  1.00  0.00    -0.197 A  
HETATM   13  O   UNL     1     -10.259   5.805  71.747  1.00  0.00    -0.186 OA 
HETATM   14  C   UNL     1     -11.033   6.888  71.386  1.00  0.00    -0.240 C  
HETATM   15  C   UNL     1      -9.936   4.885  70.779  1.00  0.00    -0.222 A  
HETATM   16  C   UNL     1     -11.421   7.158  70.134  1.00  0.00    -0.245 C  
HETATM   17  C   UNL     1     -10.259   5.040  69.423  1.00  0.00    -0.268 A  
HETATM   18  O   UNL     1     -11.343   6.549  67.897  1.00  0.00    -0.245 OA 
HETATM   19  C   UNL     1     -11.016   6.261  69.038  1.00  0.00    -0.372 C  
ENDBRANCH   5   6
ENDBRANCH   4   5
ENDBRANCH   2   4
BRANCH   2  20
HETATM   20  C   UNL     1      -9.020   5.336  64.312  1.00  0.00     0.105 C  
BRANCH  20  21
HETATM   21  O   UNL     1      -7.943   5.740  65.133  1.00  0.00    -0.105 OA 
BRANCH  21  22
HETATM   22  C   UNL     1      -8.099   6.825  65.966  1.00  0.00    -0.119 A  
HETATM   23  C   UNL     1      -6.952   6.418  69.649  1.00  0.00    -0.071 C  
HETATM   24  C   UNL     1      -6.932   6.167  68.206  1.00  0.00    -0.080 C  
HETATM   25  C   UNL     1      -7.774   7.034  67.328  1.00  0.00    -0.109 A  
HETATM   26  C   UNL     1      -8.239   8.214  67.955  1.00  0.00    -0.129 A  
HETATM   27  C   UNL     1      -7.481   7.553  70.101  1.00  0.00    -0.086 C  
HETATM   28  C   UNL     1      -8.918   9.207  67.239  1.00  0.00    -0.136 A  
HETATM   29  O   UNL     1      -8.075   8.502  69.297  1.00  0.00    -0.109 OA 
HETATM   30  C   UNL     1      -9.164   9.034  65.886  1.00  0.00    -0.290 A  
HETATM   31  C   UNL     1      -7.350   7.820  71.557  1.00  0.00    -0.069 C  
HETATM   32  O   UNL     1      -7.905   8.999  71.912  1.00  0.00    -0.345 OA 
HETATM   33  C   UNL     1      -8.780   7.847  65.269  1.00  0.00    -0.032 A  
HETATM   34  O   UNL     1      -6.145   5.314  67.826  1.00  0.00    -0.024 OA 
HETATM   35  O   UNL     1      -6.799   7.076  72.352  1.00  0.00    -0.061 OA 
ENDBRANCH  21  22
ENDBRANCH  20  21
ENDBRANCH   2  20
TORSDOF 6
ENDMDL
MODEL      162
REMARK 921   NORMALIZED FREE ENERGY PREDICTED BY IDOCK:   -5.84 KCAL/MOL
REMARK 922        TOTAL FREE ENERGY PREDICTED BY IDOCK:   -9.19 KCAL/MOL
REMARK 923 INTER-LIGAND FREE ENERGY PREDICTED BY IDOCK:   -8.49 KCAL/MOL
REMARK 924 INTRA-LIGAND FREE ENERGY PREDICTED BY IDOCK:   -0.70 KCAL/MOL
REMARK 927      BINDING AFFINITY PREDICTED BY RF-SCORE:    0.00 PKD
ROOT
HETATM    1  O   UNL     1      -9.071  11.725  65.191  1.00  0.00    -0.418 OA 
HETATM    2  C   UNL     1      -8.729  11.624  66.588  1.00  0.00    -0.187 C  
HETATM    3  H   UNL     1      -8.260  11.737  64.695  1.00  0.00     0.000 HD 
ENDROOT
BRANCH   2   4
HETATM    4  C   UNL     1      -7.901  10.357  66.799  1.00  0.00    -0.117 C  
BRANCH   4   5
HETATM    5  O   UNL     1      -8.740   9.328  67.340  1.00  0.00    -0.118 OA 
BRANCH   5   6
HETATM    6  C   UNL     1      -8.147   8.186  67.801  1.00  0.00    -0.127 A  
HETATM    7  O   UNL     1     -11.523   5.375  72.590  1.00  0.00    -0.283 OA 
HETATM    8  O   UNL     1      -9.604   4.190  72.430  1.00  0.00    -0.128 OA 
HETATM    9  C   UNL     1      -6.970   7.658  67.247  1.00  0.00    -0.084 A  
HETATM   10  C   UNL     1      -6.369   6.518  67.781  1.00  0.00    -0.043 A  
HETATM   11  C   UNL     1     -10.431   5.202  72.080  1.00  0.00    -0.220 C  
HETATM   12  C   UNL     1      -6.936   5.887  68.879  1.00  0.00    -0.068 A  
HETATM   13  O   UNL     1      -8.619   5.675  70.495  1.00  0.00    -0.125 OA 
HETATM   14  C   UNL     1      -9.846   6.047  71.005  1.00  0.00    -0.183 C  
HETATM   15  C   UNL     1      -8.116   6.386  69.432  1.00  0.00    -0.118 A  
HETATM   16  C   UNL     1     -10.547   7.111  70.595  1.00  0.00    -0.243 C  
HETATM   17  C   UNL     1      -8.729   7.531  68.904  1.00  0.00    -0.132 A  
HETATM   18  O   UNL     1     -10.639   8.960  69.198  1.00  0.00    -0.227 OA 
HETATM   19  C   UNL     1     -10.006   7.969  69.527  1.00  0.00    -0.186 C  
ENDBRANCH   5   6
ENDBRANCH   4   5
ENDBRANCH   2   4
BRANCH   2  20
HETATM   20  C   UNL     1     -10.037  11.604  67.388  1.00  0.00    -0.198 C  
BRANCH  20  21
HETATM   21  O   UNL     1     -11.021  12.505  66.922  1.00  0.00    -0.242 OA 
BRANCH  21  22
HETATM   22  C   UNL     1     -11.291  13.643  67.646  1.00  0.00    -0.300 A  
HETATM   23  C   UNL     1     -10.205  17.032  66.104  1.00  0.00    -0.346 C  
HETATM   24  C   UNL     1     -10.653  15.638  66.089  1.00  0.00    -0.320 C  
HETATM   25  C   UNL     1     -11.065  15.016  67.383  1.00  0.00    -0.324 A  
HETATM   26  C   UNL     1     -11.290  15.945  68.426  1.00  0.00    -0.361 A  
HETATM   27  C   UNL     1     -10.434  17.774  67.185  1.00  0.00    -0.335 C  
HETATM   28  C   UNL     1     -11.818  15.549  69.660  1.00  0.00    -0.384 A  
HETATM   29  O   UNL     1     -11.023  17.298  68.338  1.00  0.00    -0.312 OA 
HETATM   30  C   UNL     1     -12.115  14.214  69.887  1.00  0.00    -0.405 A  
HETATM   31  C   UNL     1     -10.084  19.216  67.096  1.00  0.00    -0.373 C  
HETATM   32  O   UNL     1     -10.367  19.882  68.236  1.00  0.00    -0.441 OA 
HETATM   33  C   UNL     1     -11.830  13.275  68.899  1.00  0.00    -0.367 A  
HETATM   34  O   UNL     1     -10.743  15.120  64.986  1.00  0.00    -0.386 OA 
HETATM   35  O   UNL     1      -9.607  19.754  66.110  1.00  0.00    -0.391 OA 
ENDBRANCH  21  22
ENDBRANCH  20  21
ENDBRANCH   2  20
TORSDOF 6
ENDMDL
MODEL      163
REMARK 921   NORMALIZED FREE ENERGY PREDICTED BY IDOCK:   -5.84 KCAL/MOL
REMARK 922        TOTAL FREE ENERGY PREDICTED BY IDOCK:   -9.19 KCAL/MOL
REMARK 923 INTER-LIGAND FREE ENERGY PREDICTED BY IDOCK:   -8.18 KCAL/MOL
REMARK 924 INTRA-LIGAND FREE ENERGY PREDICTED BY IDOCK:   -1.00 KCAL/MOL
REMARK 927      BINDING AFFINITY PREDICTED BY RF-SCORE:    0.00 PKD
ROOT
HETATM    1  O   UNL     1     -11.991  12.649  67.269  1.00  0.00    -0.424 OA 
HETATM    2  C   UNL     1     -10.942  11.667  67.385  1.00  0.00    -0.261 C  
HETATM    3  H   UNL     1     -12.677  12.276  66.727  1.00  0.00     0.000 HD 
ENDROOT
BRANCH   2   4
HETATM    4  C   UNL     1     -11.530  10.392  67.989  1.00  0.00    -0.082 C  
BRANCH   4   5
HETATM    5  O   UNL     1     -10.463   9.516  68.375  1.00  0.00    -0.208 OA 
BRANCH   5   6
HETATM    6  C   UNL     1     -10.556   8.874  69.579  1.00  0.00    -0.228 A  
HETATM    7  O   UNL     1      -8.860   2.611  69.211  1.00  0.00    -0.075 OA 
HETATM    8  O   UNL     1      -9.634   2.903  71.315  1.00  0.00    -0.144 OA 
HETATM    9  C   UNL     1     -10.920   9.527  70.767  1.00  0.00    -0.389 A  
HETATM   10  C   UNL     1     -11.053   8.825  71.965  1.00  0.00    -0.441 A  
HETATM   11  C   UNL     1      -9.355   3.329  70.062  1.00  0.00    -0.168 C  
HETATM   12  C   UNL     1     -10.825   7.456  71.993  1.00  0.00    -0.263 A  
HETATM   13  O   UNL     1     -10.209   5.446  70.960  1.00  0.00    -0.206 OA 
HETATM   14  C   UNL     1      -9.711   4.760  69.871  1.00  0.00    -0.204 C  
HETATM   15  C   UNL     1     -10.444   6.793  70.827  1.00  0.00    -0.214 A  
HETATM   16  C   UNL     1      -9.523   5.295  68.660  1.00  0.00    -0.169 C  
HETATM   17  C   UNL     1     -10.307   7.488  69.617  1.00  0.00    -0.225 A  
HETATM   18  O   UNL     1      -9.720   7.170  67.308  1.00  0.00    -0.140 OA 
HETATM   19  C   UNL     1      -9.856   6.712  68.431  1.00  0.00    -0.138 C  
ENDBRANCH   5   6
ENDBRANCH   4   5
ENDBRANCH   2   4
BRANCH   2  20
HETATM   20  C   UNL     1      -9.836  12.267  68.259  1.00  0.00    -0.217 C  
BRANCH  20  21
HETATM   21  O   UNL     1      -8.885  13.037  67.552  1.00  0.00    -0.174 OA 
BRANCH  21  22
HETATM   22  C   UNL     1      -8.582  14.306  67.990  1.00  0.00    -0.169 A  
HETATM   23  C   UNL     1     -10.424  17.263  66.284  1.00  0.00    -0.268 C  
HETATM   24  C   UNL     1     -10.259  15.892  66.771  1.00  0.00    -0.282 C  
HETATM   25  C   UNL     1      -9.069  15.584  67.620  1.00  0.00    -0.183 A  
HETATM   26  C   UNL     1      -8.411  16.726  68.132  1.00  0.00    -0.213 A  
HETATM   27  C   UNL     1      -9.687  18.233  66.822  1.00  0.00    -0.322 C  
HETATM   28  C   UNL     1      -7.368  16.619  69.059  1.00  0.00    -0.228 A  
HETATM   29  O   UNL     1      -8.721  18.027  67.783  1.00  0.00    -0.245 OA 
HETATM   30  C   UNL     1      -6.947  15.368  69.481  1.00  0.00    -0.188 A  
HETATM   31  C   UNL     1      -9.991  19.623  66.390  1.00  0.00    -0.455 C  
HETATM   32  O   UNL     1      -9.202  20.532  67.001  1.00  0.00    -0.361 OA 
HETATM   33  C   UNL     1      -7.532  14.230  68.931  1.00  0.00    -0.123 A  
HETATM   34  O   UNL     1     -11.174  15.124  66.516  1.00  0.00    -0.341 OA 
HETATM   35  O   UNL     1     -10.858  19.925  65.586  1.00  0.00    -0.437 OA 
ENDBRANCH  21  22
ENDBRANCH  20  21
ENDBRANCH   2  20
TORSDOF 6
ENDMDL
MODEL      164
REMARK 921   NORMALIZED FREE ENERGY PREDICTED BY IDOCK:   -5.83 KCAL/MOL
REMARK 922        TOTAL FREE ENERGY PREDICTED BY IDOCK:   -9.16 KCAL/MOL
REMARK 923 INTER-LIGAND FREE ENERGY PREDICTED BY IDOCK:   -8.35 KCAL/MOL
REMARK 924 INTRA-LIGAND FREE ENERGY PREDICTED BY IDOCK:   -0.81 KCAL/MOL
REMARK 927      BINDING AFFINITY PREDICTED BY RF-SCORE:    0.00 PKD
ROOT
HETATM    1  O   UNL     1     -13.642   9.951  70.182  1.00  0.00    -0.305 OA 
HETATM    2  C   UNL     1     -12.857  10.517  71.249  1.00  0.00    -0.431 C  
HETATM    3  H   UNL     1     -14.059  10.667  69.717  1.00  0.00     0.000 HD 
ENDROOT
BRANCH   2   4
HETATM    4  C   UNL     1     -11.841  11.488  70.648  1.00  0.00    -0.178 C  
BRANCH   4   5
HETATM    5  O   UNL     1     -12.498  12.330  69.693  1.00  0.00    -0.033 OA 
BRANCH   5   6
HETATM    6  C   UNL     1     -11.854  12.600  68.517  1.00  0.00    -0.300 A  
HETATM    7  O   UNL     1     -10.301  18.881  67.904  1.00  0.00    -0.374 OA 
HETATM    8  O   UNL     1      -9.759  17.930  65.925  1.00  0.00    -0.530 OA 
HETATM    9  C   UNL     1     -11.517  11.606  67.584  1.00  0.00    -0.373 A  
HETATM   10  C   UNL     1     -10.905  11.931  66.374  1.00  0.00    -0.318 A  
HETATM   11  C   UNL     1     -10.266  17.903  67.179  1.00  0.00    -0.353 C  
HETATM   12  C   UNL     1     -10.621  13.256  66.076  1.00  0.00    -0.292 A  
HETATM   13  O   UNL     1     -10.582  15.533  66.629  1.00  0.00    -0.299 OA 
HETATM   14  C   UNL     1     -10.752  16.546  67.549  1.00  0.00    -0.283 C  
HETATM   15  C   UNL     1     -10.931  14.256  66.998  1.00  0.00    -0.303 A  
HETATM   16  C   UNL     1     -11.316  16.392  68.752  1.00  0.00    -0.277 C  
HETATM   17  C   UNL     1     -11.546  13.942  68.218  1.00  0.00    -0.372 A  
HETATM   18  O   UNL     1     -12.356  14.951  70.244  1.00  0.00    -0.312 OA 
HETATM   19  C   UNL     1     -11.803  15.063  69.161  1.00  0.00    -0.308 C  
ENDBRANCH   5   6
ENDBRANCH   4   5
ENDBRANCH   2   4
BRANCH   2  20
HETATM   20  C   UNL     1     -12.184   9.362  71.998  1.00  0.00    -0.326 C  
BRANCH  20  21
HETATM   21  O   UNL     1     -10.875   9.064  71.557  1.00  0.00    -0.292 OA 
BRANCH  21  22
HETATM   22  C   UNL     1     -10.639   7.884  70.889  1.00  0.00    -0.213 A  
HETATM   23  C   UNL     1     -10.634   4.623  72.989  1.00  0.00    -0.278 C  
HETATM   24  C   UNL     1     -11.026   5.991  72.644  1.00  0.00    -0.264 C  
HETATM   25  C   UNL     1     -10.592   6.537  71.323  1.00  0.00    -0.268 A  
HETATM   26  C   UNL     1     -10.133   5.555  70.414  1.00  0.00    -0.230 A  
HETATM   27  C   UNL     1     -10.158   3.827  72.035  1.00  0.00    -0.139 C  
HETATM   28  C   UNL     1      -9.824   5.872  69.086  1.00  0.00    -0.199 A  
HETATM   29  O   UNL     1      -9.948   4.223  70.731  1.00  0.00    -0.200 OA 
HETATM   30  C   UNL     1      -9.949   7.179  68.642  1.00  0.00    -0.161 A  
HETATM   31  C   UNL     1      -9.907   2.409  72.408  1.00  0.00    -0.141 C  
HETATM   32  O   UNL     1      -9.440   1.683  71.370  1.00  0.00    -0.099 OA 
HETATM   33  C   UNL     1     -10.327   8.171  69.542  1.00  0.00    -0.222 A  
HETATM   34  O   UNL     1     -11.766   6.549  73.440  1.00  0.00     0.407 OA 
HETATM   35  O   UNL     1     -10.105   1.939  73.516  1.00  0.00    -0.089 OA 
ENDBRANCH  21  22
ENDBRANCH  20  21
ENDBRANCH   2  20
TORSDOF 6
ENDMDL
MODEL      165
REMARK 921   NORMALIZED FREE ENERGY PREDICTED BY IDOCK:   -5.82 KCAL/MOL
REMARK 922        TOTAL FREE ENERGY PREDICTED BY IDOCK:   -9.16 KCAL/MOL
REMARK 923 INTER-LIGAND FREE ENERGY PREDICTED BY IDOCK:   -8.25 KCAL/MOL
REMARK 924 INTRA-LIGAND FREE ENERGY PREDICTED BY IDOCK:   -0.91 KCAL/MOL
REMARK 927      BINDING AFFINITY PREDICTED BY RF-SCORE:    0.00 PKD
ROOT
HETATM    1  O   UNL     1      -9.796   8.751  65.892  1.00  0.00    -0.432 OA 
HETATM    2  C   UNL     1      -9.469  10.039  66.450  1.00  0.00    -0.186 C  
HETATM    3  H   UNL     1      -9.287   8.096  66.357  1.00  0.00     0.000 HD 
ENDROOT
BRANCH   2   4
HETATM    4  C   UNL     1      -9.781  10.017  67.946  1.00  0.00    -0.146 C  
BRANCH   4   5
HETATM    5  O   UNL     1      -9.006   8.990  68.577  1.00  0.00    -0.133 OA 
BRANCH   5   6
HETATM    6  C   UNL     1      -9.669   8.002  69.252  1.00  0.00    -0.167 A  
HETATM    7  O   UNL     1      -7.905   2.048  67.332  1.00  0.00    -0.063 OA 
HETATM    8  O   UNL     1      -9.619   1.734  68.773  1.00  0.00    -0.156 OA 
HETATM    9  C   UNL     1     -10.581   8.262  70.287  1.00  0.00    -0.230 A  
HETATM   10  C   UNL     1     -11.274   7.227  70.914  1.00  0.00    -0.298 A  
HETATM   11  C   UNL     1      -8.767   2.506  68.061  1.00  0.00    -0.106 C  
HETATM   12  C   UNL     1     -11.066   5.914  70.517  1.00  0.00    -0.347 A  
HETATM   13  O   UNL     1      -9.988   4.303  69.201  1.00  0.00    -0.145 OA 
HETATM   14  C   UNL     1      -9.008   3.955  68.295  1.00  0.00    -0.121 C  
HETATM   15  C   UNL     1     -10.150   5.634  69.503  1.00  0.00    -0.225 A  
HETATM   16  C   UNL     1      -8.257   4.831  67.617  1.00  0.00    -0.104 C  
HETATM   17  C   UNL     1      -9.447   6.665  68.864  1.00  0.00    -0.130 A  
HETATM   18  O   UNL     1      -7.795   7.059  67.163  1.00  0.00    -0.106 OA 
HETATM   19  C   UNL     1      -8.459   6.275  67.824  1.00  0.00    -0.116 C  
ENDBRANCH   5   6
ENDBRANCH   4   5
ENDBRANCH   2   4
BRANCH   2  20
HETATM   20  C   UNL     1     -10.291  11.094  65.701  1.00  0.00    -0.254 C  
BRANCH  20  21
HETATM   21  O   UNL     1     -10.317  12.363  66.323  1.00  0.00    -0.237 OA 
BRANCH  21  22
HETATM   22  C   UNL     1     -10.748  13.457  65.608  1.00  0.00    -0.277 A  
HETATM   23  C   UNL     1      -9.454  16.937  66.729  1.00  0.00    -0.269 C  
HETATM   24  C   UNL     1      -9.397  15.486  66.540  1.00  0.00    -0.283 C  
HETATM   25  C   UNL     1     -10.464  14.840  65.719  1.00  0.00    -0.348 A  
HETATM   26  C   UNL     1     -11.223  15.745  64.940  1.00  0.00    -0.350 A  
HETATM   27  C   UNL     1     -10.266  17.658  65.959  1.00  0.00    -0.297 C  
HETATM   28  C   UNL     1     -12.165  15.298  64.007  1.00  0.00    -0.018 A  
HETATM   29  O   UNL     1     -11.116  17.120  65.017  1.00  0.00    -0.565 OA 
HETATM   30  C   UNL     1     -12.383  13.940  63.843  1.00  0.00    -0.323 A  
HETATM   31  C   UNL     1     -10.182  19.136  66.097  1.00  0.00    -0.463 C  
HETATM   32  O   UNL     1     -11.033  19.775  65.266  1.00  0.00    -0.410 OA 
HETATM   33  C   UNL     1     -11.699  13.037  64.653  1.00  0.00    -0.408 A  
HETATM   34  O   UNL     1      -8.413  14.928  67.001  1.00  0.00    -0.211 OA 
HETATM   35  O   UNL     1      -9.430  19.720  66.860  1.00  0.00    -0.330 OA 
ENDBRANCH  21  22
ENDBRANCH  20  21
ENDBRANCH   2  20
TORSDOF 6
ENDMDL
MODEL      166
REMARK 921   NORMALIZED FREE ENERGY PREDICTED BY IDOCK:   -5.81 KCAL/MOL
REMARK 922        TOTAL FREE ENERGY PREDICTED BY IDOCK:   -9.14 KCAL/MOL
REMARK 923 INTER-LIGAND FREE ENERGY PREDICTED BY IDOCK:   -7.51 KCAL/MOL
REMARK 924 INTRA-LIGAND FREE ENERGY PREDICTED BY IDOCK:   -1.63 KCAL/MOL
REMARK 927      BINDING AFFINITY PREDICTED BY RF-SCORE:    0.00 PKD
ROOT
HETATM    1  O   UNL     1      -8.601  17.662  67.521  1.00  0.00    -0.220 OA 
HETATM    2  C   UNL     1      -8.210  16.978  66.315  1.00  0.00    -0.287 C  
HETATM    3  H   UNL     1      -9.210  18.350  67.279  1.00  0.00     0.000 HD 
ENDROOT
BRANCH   2   4
HETATM    4  C   UNL     1      -9.464  16.429  65.635  1.00  0.00    -0.016 C  
BRANCH   4   5
HETATM    5  O   UNL     1     -10.514  16.310  66.603  1.00  0.00    -0.300 OA 
BRANCH   5   6
HETATM    6  C   UNL     1     -10.991  15.060  66.890  1.00  0.00    -0.324 A  
HETATM    7  O   UNL     1     -13.703  14.713  72.786  1.00  0.00    -0.476 OA 
HETATM    8  O   UNL     1     -13.687  12.592  72.003  1.00  0.00    -0.361 OA 
HETATM    9  C   UNL     1     -10.948  13.997  65.975  1.00  0.00    -0.298 A  
HETATM   10  C   UNL     1     -11.399  12.725  66.325  1.00  0.00    -0.365 A  
HETATM   11  C   UNL     1     -13.407  13.912  71.917  1.00  0.00    -0.412 C  
HETATM   12  C   UNL     1     -11.900  12.495  67.598  1.00  0.00    -0.381 A  
HETATM   13  O   UNL     1     -12.510  13.228  69.739  1.00  0.00    -0.173 OA 
HETATM   14  C   UNL     1     -12.717  14.249  70.643  1.00  0.00    -0.343 C  
HETATM   15  C   UNL     1     -11.969  13.544  68.515  1.00  0.00    -0.344 A  
HETATM   16  C   UNL     1     -12.346  15.520  70.450  1.00  0.00    -0.451 C  
HETATM   17  C   UNL     1     -11.518  14.827  68.175  1.00  0.00    -0.343 A  
HETATM   18  O   UNL     1     -11.296  17.051  69.060  1.00  0.00     0.003 OA 
HETATM   19  C   UNL     1     -11.667  15.896  69.198  1.00  0.00    -0.363 C  
ENDBRANCH   5   6
ENDBRANCH   4   5
ENDBRANCH   2   4
BRANCH   2  20
HETATM   20  C   UNL     1      -7.228  15.867  66.705  1.00  0.00    -0.047 C  
BRANCH  20  21
HETATM   21  O   UNL     1      -7.831  14.737  67.302  1.00  0.00    -0.188 OA 
BRANCH  21  22
HETATM   22  C   UNL     1      -7.133  14.017  68.244  1.00  0.00    -0.110 A  
HETATM   23  C   UNL     1      -8.359  10.415  68.996  1.00  0.00    -0.150 C  
HETATM   24  C   UNL     1      -8.138  11.609  68.178  1.00  0.00    -0.148 C  
HETATM   25  C   UNL     1      -7.281  12.698  68.737  1.00  0.00    -0.083 A  
HETATM   26  C   UNL     1      -6.510  12.310  69.858  1.00  0.00     0.009 A  
HETATM   27  C   UNL     1      -7.591  10.211  70.064  1.00  0.00    -0.152 C  
HETATM   28  C   UNL     1      -5.548  13.159  70.416  1.00  0.00    -0.158 A  
HETATM   29  O   UNL     1      -6.620  11.090  70.496  1.00  0.00    -0.299 OA 
HETATM   30  C   UNL     1      -5.349  14.422  69.880  1.00  0.00    -0.095 A  
HETATM   31  C   UNL     1      -7.764   8.918  70.777  1.00  0.00    -0.115 C  
HETATM   32  O   UNL     1      -6.931   8.802  71.834  1.00  0.00    -0.160 OA 
HETATM   33  C   UNL     1      -6.151  14.849  68.825  1.00  0.00    -0.083 A  
HETATM   34  O   UNL     1      -8.604  11.575  67.050  1.00  0.00    -0.149 OA 
HETATM   35  O   UNL     1      -8.554   8.047  70.452  1.00  0.00    -0.128 OA 
ENDBRANCH  21  22
ENDBRANCH  20  21
ENDBRANCH   2  20
TORSDOF 6
ENDMDL
MODEL      167
REMARK 921   NORMALIZED FREE ENERGY PREDICTED BY IDOCK:   -5.81 KCAL/MOL
REMARK 922        TOTAL FREE ENERGY PREDICTED BY IDOCK:   -9.14 KCAL/MOL
REMARK 923 INTER-LIGAND FREE ENERGY PREDICTED BY IDOCK:   -8.21 KCAL/MOL
REMARK 924 INTRA-LIGAND FREE ENERGY PREDICTED BY IDOCK:   -0.92 KCAL/MOL
REMARK 927      BINDING AFFINITY PREDICTED BY RF-SCORE:    0.00 PKD
ROOT
HETATM    1  O   UNL     1      -7.282  11.445  70.069  1.00  0.00    -0.385 OA 
HETATM    2  C   UNL     1      -7.280  10.087  69.587  1.00  0.00    -0.119 C  
HETATM    3  H   UNL     1      -6.744  11.962  69.481  1.00  0.00     0.000 HD 
ENDROOT
BRANCH   2   4
HETATM    4  C   UNL     1      -7.813  10.076  68.155  1.00  0.00    -0.089 C  
BRANCH   4   5
HETATM    5  O   UNL     1      -8.865  11.041  68.033  1.00  0.00    -0.130 OA 
BRANCH   5   6
HETATM    6  C   UNL     1      -9.320  11.348  66.780  1.00  0.00    -0.180 A  
HETATM    7  O   UNL     1     -10.701  17.662  66.099  1.00  0.00    -0.256 OA 
HETATM    8  O   UNL     1     -11.381  16.685  64.176  1.00  0.00    -1.141 OA 
HETATM    9  C   UNL     1      -9.412  10.401  65.748  1.00  0.00    -0.247 A  
HETATM   10  C   UNL     1      -9.930  10.745  64.499  1.00  0.00    -0.395 A  
HETATM   11  C   UNL     1     -10.858  16.660  65.424  1.00  0.00    -0.173 C  
HETATM   12  C   UNL     1     -10.365  12.041  64.262  1.00  0.00    -0.357 A  
HETATM   13  O   UNL     1     -10.688  14.263  64.933  1.00  0.00    -0.389 OA 
HETATM   14  C   UNL     1     -10.499  15.280  65.845  1.00  0.00    -0.331 C  
HETATM   15  C   UNL     1     -10.263  13.000  65.270  1.00  0.00    -0.279 A  
HETATM   16  C   UNL     1     -10.008  15.111  67.078  1.00  0.00    -0.242 C  
HETATM   17  C   UNL     1      -9.745  12.667  66.530  1.00  0.00    -0.256 A  
HETATM   18  O   UNL     1      -9.229  13.620  68.676  1.00  0.00    -0.154 OA 
HETATM   19  C   UNL     1      -9.632  13.760  67.532  1.00  0.00    -0.219 C  
ENDBRANCH   5   6
ENDBRANCH   4   5
ENDBRANCH   2   4
BRANCH   2  20
HETATM   20  C   UNL     1      -8.147   9.253  70.536  1.00  0.00    -0.174 C  
BRANCH  20  21
HETATM   21  O   UNL     1      -9.020   8.350  69.887  1.00  0.00    -0.139 OA 
BRANCH  21  22
HETATM   22  C   UNL     1      -9.948   7.656  70.630  1.00  0.00    -0.183 A  
HETATM   23  C   UNL     1      -8.891   4.186  72.004  1.00  0.00    -0.135 C  
HETATM   24  C   UNL     1      -8.689   5.566  71.558  1.00  0.00    -0.136 C  
HETATM   25  C   UNL     1      -9.896   6.404  71.291  1.00  0.00    -0.200 A  
HETATM   26  C   UNL     1     -11.097   5.874  71.818  1.00  0.00    -0.265 A  
HETATM   27  C   UNL     1     -10.099   3.811  72.419  1.00  0.00    -0.167 C  
HETATM   28  C   UNL     1     -12.295   6.598  71.786  1.00  0.00    -0.385 A  
HETATM   29  O   UNL     1     -11.209   4.628  72.404  1.00  0.00    -0.018 OA 
HETATM   30  C   UNL     1     -12.324   7.857  71.209  1.00  0.00    -0.300 A  
HETATM   31  C   UNL     1     -10.216   2.444  72.992  1.00  0.00    -0.136 C  
HETATM   32  O   UNL     1     -11.474   2.165  73.395  1.00  0.00    -0.199 OA 
HETATM   33  C   UNL     1     -11.169   8.364  70.618  1.00  0.00    -0.275 A  
HETATM   34  O   UNL     1      -7.530   5.952  71.529  1.00  0.00    -0.089 OA 
HETATM   35  O   UNL     1      -9.290   1.656  73.101  1.00  0.00    -0.068 OA 
ENDBRANCH  21  22
ENDBRANCH  20  21
ENDBRANCH   2  20
TORSDOF 6
ENDMDL
MODEL      168
REMARK 921   NORMALIZED FREE ENERGY PREDICTED BY IDOCK:   -5.80 KCAL/MOL
REMARK 922        TOTAL FREE ENERGY PREDICTED BY IDOCK:   -9.14 KCAL/MOL
REMARK 923 INTER-LIGAND FREE ENERGY PREDICTED BY IDOCK:   -7.99 KCAL/MOL
REMARK 924 INTRA-LIGAND FREE ENERGY PREDICTED BY IDOCK:   -1.14 KCAL/MOL
REMARK 927      BINDING AFFINITY PREDICTED BY RF-SCORE:    0.00 PKD
ROOT
HETATM    1  O   UNL     1      -9.315   9.214  71.720  1.00  0.00    -0.328 OA 
HETATM    2  C   UNL     1      -9.893   9.771  70.523  1.00  0.00    -0.163 C  
HETATM    3  H   UNL     1     -10.005   9.147  72.370  1.00  0.00     0.000 HD 
ENDROOT
BRANCH   2   4
HETATM    4  C   UNL     1     -11.035   8.865  70.063  1.00  0.00    -0.206 C  
BRANCH   4   5
HETATM    5  O   UNL     1     -10.823   7.542  70.571  1.00  0.00    -0.231 OA 
BRANCH   5   6
HETATM    6  C   UNL     1     -10.493   6.554  69.684  1.00  0.00    -0.216 A  
HETATM    7  O   UNL     1      -6.492   2.124  72.255  1.00  0.00    -0.014 OA 
HETATM    8  O   UNL     1      -6.668   1.580  70.067  1.00  0.00    -0.028 OA 
HETATM    9  C   UNL     1     -11.019   6.486  68.385  1.00  0.00    -0.358 A  
HETATM   10  C   UNL     1     -10.617   5.490  67.495  1.00  0.00    -0.252 A  
HETATM   11  C   UNL     1      -6.928   2.359  71.142  1.00  0.00    -0.032 C  
HETATM   12  C   UNL     1      -9.679   4.546  67.890  1.00  0.00    -0.195 A  
HETATM   13  O   UNL     1      -8.263   3.592  69.494  1.00  0.00    -0.053 OA 
HETATM   14  C   UNL     1      -7.808   3.506  70.793  1.00  0.00    -0.050 C  
HETATM   15  C   UNL     1      -9.159   4.586  69.184  1.00  0.00    -0.121 A  
HETATM   16  C   UNL     1      -8.109   4.380  71.761  1.00  0.00    -0.097 C  
HETATM   17  C   UNL     1      -9.556   5.582  70.087  1.00  0.00    -0.223 A  
HETATM   18  O   UNL     1      -9.210   6.337  72.343  1.00  0.00    -0.140 OA 
HETATM   19  C   UNL     1      -8.984   5.526  71.459  1.00  0.00    -0.136 C  
ENDBRANCH   5   6
ENDBRANCH   4   5
ENDBRANCH   2   4
BRANCH   2  20
HETATM   20  C   UNL     1      -8.780   9.880  69.475  1.00  0.00    -0.190 C  
BRANCH  20  21
HETATM   21  O   UNL     1      -9.209  10.354  68.214  1.00  0.00    -0.142 OA 
BRANCH  21  22
HETATM   22  C   UNL     1      -9.076  11.691  67.915  1.00  0.00    -0.171 A  
HETATM   23  C   UNL     1     -11.727  13.255  65.554  1.00  0.00    -0.376 C  
HETATM   24  C   UNL     1     -11.219  12.327  66.567  1.00  0.00    -0.324 C  
HETATM   25  C   UNL     1      -9.856  12.572  67.127  1.00  0.00    -0.210 A  
HETATM   26  C   UNL     1      -9.344  13.863  66.859  1.00  0.00    -0.258 A  
HETATM   27  C   UNL     1     -11.102  14.415  65.369  1.00  0.00    -0.331 C  
HETATM   28  C   UNL     1      -8.147  14.311  67.429  1.00  0.00    -0.213 A  
HETATM   29  O   UNL     1      -9.953  14.788  66.033  1.00  0.00    -0.279 OA 
HETATM   30  C   UNL     1      -7.426  13.473  68.265  1.00  0.00    -0.122 A  
HETATM   31  C   UNL     1     -11.738  15.377  64.430  1.00  0.00    -0.258 C  
HETATM   32  O   UNL     1     -11.036  16.525  64.322  1.00  0.00    -0.915 OA 
HETATM   33  C   UNL     1      -7.876  12.173  68.481  1.00  0.00    -0.122 A  
HETATM   34  O   UNL     1     -12.002  11.468  66.942  1.00  0.00    -0.516 OA 
HETATM   35  O   UNL     1     -12.780  15.172  63.828  1.00  0.00    -0.722 OA 
ENDBRANCH  21  22
ENDBRANCH  20  21
ENDBRANCH   2  20
TORSDOF 6
ENDMDL
MODEL      169
REMARK 921   NORMALIZED FREE ENERGY PREDICTED BY IDOCK:   -5.79 KCAL/MOL
REMARK 922        TOTAL FREE ENERGY PREDICTED BY IDOCK:   -9.11 KCAL/MOL
REMARK 923 INTER-LIGAND FREE ENERGY PREDICTED BY IDOCK:   -6.33 KCAL/MOL
REMARK 924 INTRA-LIGAND FREE ENERGY PREDICTED BY IDOCK:   -2.78 KCAL/MOL
REMARK 927      BINDING AFFINITY PREDICTED BY RF-SCORE:    0.00 PKD
ROOT
HETATM    1  O   UNL     1      -6.558   5.184  73.059  1.00  0.00    -0.061 OA 
HETATM    2  C   UNL     1      -7.869   5.759  73.226  1.00  0.00    -0.106 C  
HETATM    3  H   UNL     1      -6.562   4.330  73.475  1.00  0.00     0.000 HD 
ENDROOT
BRANCH   2   4
HETATM    4  C   UNL     1      -8.899   4.817  72.603  1.00  0.00    -0.114 C  
BRANCH   4   5
HETATM    5  O   UNL     1      -8.556   4.578  71.233  1.00  0.00    -0.107 OA 
BRANCH   5   6
HETATM    6  C   UNL     1      -9.273   5.224  70.264  1.00  0.00    -0.143 A  
HETATM    7  O   UNL     1      -5.494   7.714  65.600  1.00  0.00    -0.028 OA 
HETATM    8  O   UNL     1      -7.583   8.446  65.138  1.00  0.00    -0.081 OA 
HETATM    9  C   UNL     1     -10.676   5.280  70.260  1.00  0.00    -0.221 A  
HETATM   10  C   UNL     1     -11.367   5.993  69.281  1.00  0.00    -0.245 A  
HETATM   11  C   UNL     1      -6.675   7.782  65.889  1.00  0.00    -0.046 C  
HETATM   12  C   UNL     1     -10.665   6.664  68.289  1.00  0.00    -0.317 A  
HETATM   13  O   UNL     1      -8.667   7.272  67.227  1.00  0.00    -0.120 OA 
HETATM   14  C   UNL     1      -7.301   7.148  67.080  1.00  0.00    -0.089 C  
HETATM   15  C   UNL     1      -9.272   6.604  68.265  1.00  0.00    -0.121 A  
HETATM   16  C   UNL     1      -6.503   6.493  67.931  1.00  0.00    -0.052 C  
HETATM   17  C   UNL     1      -8.566   5.891  69.244  1.00  0.00    -0.112 A  
HETATM   18  O   UNL     1      -6.335   5.290  69.908  1.00  0.00    -0.024 OA 
HETATM   19  C   UNL     1      -7.085   5.844  69.119  1.00  0.00    -0.069 C  
ENDBRANCH   5   6
ENDBRANCH   4   5
ENDBRANCH   2   4
BRANCH   2  20
HETATM   20  C   UNL     1      -7.863   7.137  72.554  1.00  0.00    -0.092 C  
BRANCH  20  21
HETATM   21  O   UNL     1      -8.833   8.035  73.054  1.00  0.00    -0.189 OA 
BRANCH  21  22
HETATM   22  C   UNL     1      -9.903   8.383  72.261  1.00  0.00    -0.313 A  
HETATM   23  C   UNL     1      -9.185  10.665  69.208  1.00  0.00    -0.121 C  
HETATM   24  C   UNL     1      -8.884   9.649  70.218  1.00  0.00    -0.211 C  
HETATM   25  C   UNL     1     -10.002   9.160  71.081  1.00  0.00    -0.377 A  
HETATM   26  C   UNL     1     -11.291   9.494  70.603  1.00  0.00    -0.301 A  
HETATM   27  C   UNL     1     -10.456  10.917  68.902  1.00  0.00    -0.203 C  
HETATM   28  C   UNL     1     -12.449   8.995  71.209  1.00  0.00    -0.346 A  
HETATM   29  O   UNL     1     -11.533  10.319  69.522  1.00  0.00    -0.242 OA 
HETATM   30  C   UNL     1     -12.347   8.168  72.316  1.00  0.00    -0.371 A  
HETATM   31  C   UNL     1     -10.701  11.855  67.775  1.00  0.00    -0.207 C  
HETATM   32  O   UNL     1     -12.018  12.033  67.536  1.00  0.00    -0.572 OA 
HETATM   33  C   UNL     1     -11.090   7.890  72.846  1.00  0.00    -0.442 A  
HETATM   34  O   UNL     1      -7.745   9.210  70.208  1.00  0.00    -0.083 OA 
HETATM   35  O   UNL     1      -9.825  12.401  67.124  1.00  0.00    -0.201 OA 
ENDBRANCH  21  22
ENDBRANCH  20  21
ENDBRANCH   2  20
TORSDOF 6
ENDMDL
MODEL      170
REMARK 921   NORMALIZED FREE ENERGY PREDICTED BY IDOCK:   -5.78 KCAL/MOL
REMARK 922        TOTAL FREE ENERGY PREDICTED BY IDOCK:   -9.10 KCAL/MOL
REMARK 923 INTER-LIGAND FREE ENERGY PREDICTED BY IDOCK:   -8.18 KCAL/MOL
REMARK 924 INTRA-LIGAND FREE ENERGY PREDICTED BY IDOCK:   -0.92 KCAL/MOL
REMARK 927      BINDING AFFINITY PREDICTED BY RF-SCORE:    0.00 PKD
ROOT
HETATM    1  O   UNL     1     -13.354  13.950  65.102  1.00  0.00    -0.698 OA 
HETATM    2  C   UNL     1     -12.036  13.645  65.599  1.00  0.00    -0.425 C  
HETATM    3  H   UNL     1     -13.365  13.753  64.172  1.00  0.00     0.000 HD 
ENDROOT
BRANCH   2   4
HETATM    4  C   UNL     1     -11.734  12.174  65.316  1.00  0.00    -0.308 C  
BRANCH   4   5
HETATM    5  O   UNL     1     -10.424  11.857  65.805  1.00  0.00    -0.240 OA 
BRANCH   5   6
HETATM    6  C   UNL     1     -10.254  10.680  66.481  1.00  0.00    -0.233 A  
HETATM    7  O   UNL     1      -6.510   6.464  63.249  1.00  0.00    -0.032 OA 
HETATM    8  O   UNL     1      -7.274   5.333  65.052  1.00  0.00    -0.064 OA 
HETATM    9  C   UNL     1     -10.786  10.448  67.759  1.00  0.00    -0.327 A  
HETATM   10  C   UNL     1     -10.632   9.215  68.391  1.00  0.00    -0.217 A  
HETATM   11  C   UNL     1      -7.196   6.423  64.254  1.00  0.00    -0.065 C  
HETATM   12  C   UNL     1      -9.944   8.191  67.754  1.00  0.00    -0.230 A  
HETATM   13  O   UNL     1      -8.702   7.349  65.955  1.00  0.00    -0.149 OA 
HETATM   14  C   UNL     1      -8.031   7.542  64.766  1.00  0.00    -0.132 C  
HETATM   15  C   UNL     1      -9.392   8.409  66.492  1.00  0.00    -0.201 A  
HETATM   16  C   UNL     1      -8.076   8.669  64.045  1.00  0.00    -0.163 C  
HETATM   17  C   UNL     1      -9.541   9.644  65.846  1.00  0.00    -0.321 A  
HETATM   18  O   UNL     1      -8.949  10.807  63.827  1.00  0.00    -0.184 OA 
HETATM   19  C   UNL     1      -8.885   9.804  64.521  1.00  0.00    -0.216 C  
ENDBRANCH   5   6
ENDBRANCH   4   5
ENDBRANCH   2   4
BRANCH   2  20
HETATM   20  C   UNL     1     -12.018  13.963  67.099  1.00  0.00    -0.420 C  
BRANCH  20  21
HETATM   21  O   UNL     1     -11.494  15.235  67.420  1.00  0.00    -0.324 OA 
BRANCH  21  22
HETATM   22  C   UNL     1     -10.130  15.404  67.496  1.00  0.00    -0.233 A  
HETATM   23  C   UNL     1      -8.695  18.824  66.361  1.00  0.00    -0.294 C  
HETATM   24  C   UNL     1      -9.696  17.912  66.918  1.00  0.00    -0.309 C  
HETATM   25  C   UNL     1      -9.288  16.502  67.197  1.00  0.00    -0.242 A  
HETATM   26  C   UNL     1      -7.888  16.296  67.202  1.00  0.00    -0.191 A  
HETATM   27  C   UNL     1      -7.413  18.466  66.379  1.00  0.00    -0.247 C  
HETATM   28  C   UNL     1      -7.329  15.072  67.587  1.00  0.00    -0.209 A  
HETATM   29  O   UNL     1      -6.957  17.250  66.841  1.00  0.00    -0.158 OA 
HETATM   30  C   UNL     1      -8.154  14.022  67.956  1.00  0.00    -0.152 A  
HETATM   31  C   UNL     1      -6.427  19.484  65.930  1.00  0.00    -0.215 C  
HETATM   32  O   UNL     1      -5.158  19.030  65.999  1.00  0.00    -0.137 OA 
HETATM   33  C   UNL     1      -9.536  14.183  67.886  1.00  0.00    -0.211 A  
HETATM   34  O   UNL     1     -10.774  18.413  67.199  1.00  0.00    -0.399 OA 
HETATM   35  O   UNL     1      -6.715  20.608  65.550  1.00  0.00    -0.230 OA 
ENDBRANCH  21  22
ENDBRANCH  20  21
ENDBRANCH   2  20
TORSDOF 6
ENDMDL
MODEL      171
REMARK 921   NORMALIZED FREE ENERGY PREDICTED BY IDOCK:   -5.77 KCAL/MOL
REMARK 922        TOTAL FREE ENERGY PREDICTED BY IDOCK:   -9.10 KCAL/MOL
REMARK 923 INTER-LIGAND FREE ENERGY PREDICTED BY IDOCK:   -7.94 KCAL/MOL
REMARK 924 INTRA-LIGAND FREE ENERGY PREDICTED BY IDOCK:   -1.16 KCAL/MOL
REMARK 927      BINDING AFFINITY PREDICTED BY RF-SCORE:    0.00 PKD
ROOT
HETATM    1  O   UNL     1     -12.577   8.476  73.268  1.00  0.00    -0.474 OA 
HETATM    2  C   UNL     1     -11.242   8.051  72.929  1.00  0.00    -0.322 C  
HETATM    3  H   UNL     1     -12.711   9.337  72.889  1.00  0.00     0.000 HD 
ENDROOT
BRANCH   2   4
HETATM    4  C   UNL     1     -11.104   8.041  71.407  1.00  0.00    -0.241 C  
BRANCH   4   5
HETATM    5  O   UNL     1     -12.011   8.996  70.842  1.00  0.00    -0.282 OA 
BRANCH   5   6
HETATM    6  C   UNL     1     -11.491  10.033  70.118  1.00  0.00    -0.277 A  
HETATM    7  O   UNL     1     -13.834  15.802  71.978  1.00  0.00    -0.448 OA 
HETATM    8  O   UNL     1     -12.572  16.225  70.150  1.00  0.00     0.004 OA 
HETATM    9  C   UNL     1     -10.512   9.858  69.127  1.00  0.00    -0.235 A  
HETATM   10  C   UNL     1     -10.045  10.937  68.377  1.00  0.00    -0.196 A  
HETATM   11  C   UNL     1     -13.135  15.403  71.065  1.00  0.00    -0.501 C  
HETATM   12  C   UNL     1     -10.551  12.209  68.604  1.00  0.00    -0.248 A  
HETATM   13  O   UNL     1     -11.927  13.703  69.772  1.00  0.00    -0.305 OA 
HETATM   14  C   UNL     1     -12.782  13.979  70.818  1.00  0.00    -0.326 C  
HETATM   15  C   UNL     1     -11.510  12.405  69.597  1.00  0.00    -0.194 A  
HETATM   16  C   UNL     1     -13.309  13.055  71.630  1.00  0.00    -0.379 C  
HETATM   17  C   UNL     1     -11.988  11.329  70.358  1.00  0.00    -0.471 A  
HETATM   18  O   UNL     1     -13.505  10.802  72.147  1.00  0.00    -0.379 OA 
HETATM   19  C   UNL     1     -12.978  11.634  71.425  1.00  0.00    -0.324 C  
ENDBRANCH   5   6
ENDBRANCH   4   5
ENDBRANCH   2   4
BRANCH   2  20
HETATM   20  C   UNL     1     -11.025   6.662  73.540  1.00  0.00    -0.086 C  
BRANCH  20  21
HETATM   21  O   UNL     1      -9.751   6.105  73.287  1.00  0.00    -0.153 OA 
BRANCH  21  22
HETATM   22  C   UNL     1      -9.655   4.938  72.564  1.00  0.00    -0.144 A  
HETATM   23  C   UNL     1      -8.705   5.243  68.815  1.00  0.00    -0.093 C  
HETATM   24  C   UNL     1      -8.721   5.631  70.227  1.00  0.00    -0.131 C  
HETATM   25  C   UNL     1      -9.313   4.679  71.214  1.00  0.00    -0.205 A  
HETATM   26  C   UNL     1      -9.491   3.367  70.717  1.00  0.00    -0.170 A  
HETATM   27  C   UNL     1      -8.952   3.976  68.491  1.00  0.00    -0.117 C  
HETATM   28  C   UNL     1      -9.899   2.317  71.547  1.00  0.00    -0.201 A  
HETATM   29  O   UNL     1      -9.287   2.996  69.402  1.00  0.00    -0.139 OA 
HETATM   30  C   UNL     1     -10.156   2.557  72.888  1.00  0.00    -0.213 A  
HETATM   31  C   UNL     1      -8.786   3.605  67.061  1.00  0.00    -0.127 C  
HETATM   32  O   UNL     1      -9.047   2.300  66.838  1.00  0.00    -0.134 OA 
HETATM   33  C   UNL     1     -10.058   3.857  73.378  1.00  0.00    -0.200 A  
HETATM   34  O   UNL     1      -8.155   6.680  70.497  1.00  0.00    -0.113 OA 
HETATM   35  O   UNL     1      -8.445   4.378  66.180  1.00  0.00    -0.112 OA 
ENDBRANCH  21  22
ENDBRANCH  20  21
ENDBRANCH   2  20
TORSDOF 6
ENDMDL
MODEL      172
REMARK 921   NORMALIZED FREE ENERGY PREDICTED BY IDOCK:   -5.74 KCAL/MOL
REMARK 922        TOTAL FREE ENERGY PREDICTED BY IDOCK:   -9.05 KCAL/MOL
REMARK 923 INTER-LIGAND FREE ENERGY PREDICTED BY IDOCK:   -8.17 KCAL/MOL
REMARK 924 INTRA-LIGAND FREE ENERGY PREDICTED BY IDOCK:   -0.87 KCAL/MOL
REMARK 927      BINDING AFFINITY PREDICTED BY RF-SCORE:    0.00 PKD
ROOT
HETATM    1  O   UNL     1     -10.521   9.816  66.094  1.00  0.00    -0.179 OA 
HETATM    2  C   UNL     1      -9.966   8.985  67.133  1.00  0.00    -0.224 C  
HETATM    3  H   UNL     1     -10.259   9.448  65.258  1.00  0.00     0.000 HD 
ENDROOT
BRANCH   2   4
HETATM    4  C   UNL     1     -10.476   7.557  66.943  1.00  0.00    -0.315 C  
BRANCH   4   5
HETATM    5  O   UNL     1     -10.652   6.943  68.226  1.00  0.00    -0.196 OA 
BRANCH   5   6
HETATM    6  C   UNL     1     -10.194   5.666  68.401  1.00  0.00    -0.191 A  
HETATM    7  O   UNL     1     -10.695   3.651  74.559  1.00  0.00    -0.182 OA 
HETATM    8  O   UNL     1      -9.579   2.009  73.477  1.00  0.00    -0.077 OA 
HETATM    9  C   UNL     1      -9.729   4.870  67.343  1.00  0.00    -0.195 A  
HETATM   10  C   UNL     1      -9.222   3.591  67.571  1.00  0.00    -0.224 A  
HETATM   11  C   UNL     1     -10.184   3.217  73.542  1.00  0.00    -0.133 C  
HETATM   12  C   UNL     1      -9.173   3.087  68.864  1.00  0.00    -0.227 A  
HETATM   13  O   UNL     1      -9.588   3.261  71.163  1.00  0.00    -0.146 OA 
HETATM   14  C   UNL     1     -10.155   3.922  72.232  1.00  0.00    -0.164 C  
HETATM   15  C   UNL     1      -9.649   3.856  69.925  1.00  0.00    -0.200 A  
HETATM   16  C   UNL     1     -10.686   5.149  72.170  1.00  0.00    -0.252 C  
HETATM   17  C   UNL     1     -10.159   5.143  69.708  1.00  0.00    -0.336 A  
HETATM   18  O   UNL     1     -11.132   7.013  70.865  1.00  0.00    -0.248 OA 
HETATM   19  C   UNL     1     -10.684   5.877  70.890  1.00  0.00    -0.273 C  
ENDBRANCH   5   6
ENDBRANCH   4   5
ENDBRANCH   2   4
BRANCH   2  20
HETATM   20  C   UNL     1     -10.390   9.579  68.481  1.00  0.00    -0.207 C  
BRANCH  20  21
HETATM   21  O   UNL     1     -11.781   9.785  68.617  1.00  0.00     0.205 OA 
BRANCH  21  22
HETATM   22  C   UNL     1     -12.246  10.635  69.595  1.00  0.00    -0.206 A  
HETATM   23  C   UNL     1     -11.308  14.386  69.286  1.00  0.00    -0.319 C  
HETATM   24  C   UNL     1     -11.616  13.039  68.799  1.00  0.00    -0.309 C  
HETATM   25  C   UNL     1     -12.121  12.033  69.781  1.00  0.00    -0.317 A  
HETATM   26  C   UNL     1     -12.560  12.589  71.006  1.00  0.00    -0.256 A  
HETATM   27  C   UNL     1     -11.737  14.751  70.492  1.00  0.00    -0.293 C  
HETATM   28  C   UNL     1     -13.195  11.809  71.979  1.00  0.00    -0.460 A  
HETATM   29  O   UNL     1     -12.415  13.917  71.356  1.00  0.00    -0.351 OA 
HETATM   30  C   UNL     1     -13.388  10.455  71.760  1.00  0.00    -0.456 A  
HETATM   31  C   UNL     1     -11.519  16.170  70.880  1.00  0.00    -0.386 C  
HETATM   32  O   UNL     1     -12.001  16.442  72.111  1.00  0.00    -0.509 OA 
HETATM   33  C   UNL     1     -12.896   9.876  70.593  1.00  0.00    -0.205 A  
HETATM   34  O   UNL     1     -11.520  12.875  67.593  1.00  0.00    -0.293 OA 
HETATM   35  O   UNL     1     -10.978  17.006  70.174  1.00  0.00    -0.047 OA 
ENDBRANCH  21  22
ENDBRANCH  20  21
ENDBRANCH   2  20
TORSDOF 6
ENDMDL
MODEL      173
REMARK 921   NORMALIZED FREE ENERGY PREDICTED BY IDOCK:   -5.74 KCAL/MOL
REMARK 922        TOTAL FREE ENERGY PREDICTED BY IDOCK:   -9.04 KCAL/MOL
REMARK 923 INTER-LIGAND FREE ENERGY PREDICTED BY IDOCK:   -7.23 KCAL/MOL
REMARK 924 INTRA-LIGAND FREE ENERGY PREDICTED BY IDOCK:   -1.81 KCAL/MOL
REMARK 927      BINDING AFFINITY PREDICTED BY RF-SCORE:    0.00 PKD
ROOT
HETATM    1  O   UNL     1      -7.637   5.581  72.131  1.00  0.00    -0.096 OA 
HETATM    2  C   UNL     1      -8.623   6.631  72.166  1.00  0.00    -0.118 C  
HETATM    3  H   UNL     1      -7.791   5.014  72.878  1.00  0.00     0.000 HD 
ENDROOT
BRANCH   2   4
HETATM    4  C   UNL     1     -10.014   5.998  72.133  1.00  0.00    -0.165 C  
BRANCH   4   5
HETATM    5  O   UNL     1     -10.051   4.988  71.116  1.00  0.00    -0.204 OA 
BRANCH   5   6
HETATM    6  C   UNL     1     -10.302   5.376  69.829  1.00  0.00    -0.305 A  
HETATM    7  O   UNL     1      -6.586   2.251  65.508  1.00  0.00    -0.030 OA 
HETATM    8  O   UNL     1      -7.716   3.807  64.318  1.00  0.00    -0.081 OA 
HETATM    9  C   UNL     1     -11.300   6.303  69.490  1.00  0.00    -0.475 A  
HETATM   10  C   UNL     1     -11.489   6.710  68.170  1.00  0.00     0.131 A  
HETATM   11  C   UNL     1      -7.369   3.183  65.468  1.00  0.00    -0.072 C  
HETATM   12  C   UNL     1     -10.682   6.196  67.165  1.00  0.00    -0.422 A  
HETATM   13  O   UNL     1      -8.970   4.783  66.415  1.00  0.00    -0.112 OA 
HETATM   14  C   UNL     1      -8.066   3.766  66.645  1.00  0.00    -0.096 C  
HETATM   15  C   UNL     1      -9.697   5.259  67.479  1.00  0.00    -0.146 A  
HETATM   16  C   UNL     1      -7.780   3.266  67.852  1.00  0.00    -0.064 C  
HETATM   17  C   UNL     1      -9.497   4.843  68.803  1.00  0.00    -0.202 A  
HETATM   18  O   UNL     1      -8.146   3.371  70.140  1.00  0.00    -0.046 OA 
HETATM   19  C   UNL     1      -8.455   3.810  69.043  1.00  0.00    -0.073 C  
ENDBRANCH   5   6
ENDBRANCH   4   5
ENDBRANCH   2   4
BRANCH   2  20
HETATM   20  C   UNL     1      -8.374   7.546  70.961  1.00  0.00    -0.113 C  
BRANCH  20  21
HETATM   21  O   UNL     1      -8.740   8.895  71.166  1.00  0.00    -0.189 OA 
BRANCH  21  22
HETATM   22  C   UNL     1      -9.881   9.383  70.572  1.00  0.00    -0.270 A  
HETATM   23  C   UNL     1      -9.615  10.520  66.873  1.00  0.00    -0.206 C  
HETATM   24  C   UNL     1      -9.276   9.726  68.057  1.00  0.00    -0.124 C  
HETATM   25  C   UNL     1     -10.148   9.852  69.263  1.00  0.00    -0.214 A  
HETATM   26  C   UNL     1     -11.395  10.473  69.014  1.00  0.00    -0.257 A  
HETATM   27  C   UNL     1     -10.811  11.100  66.805  1.00  0.00    -0.268 C  
HETATM   28  C   UNL     1     -12.389  10.542  69.997  1.00  0.00    -0.290 A  
HETATM   29  O   UNL     1     -11.750  11.055  67.813  1.00  0.00    -0.573 OA 
HETATM   30  C   UNL     1     -12.154  10.011  71.254  1.00  0.00    -0.487 A  
HETATM   31  C   UNL     1     -11.155  11.776  65.526  1.00  0.00    -0.280 C  
HETATM   32  O   UNL     1     -12.391  12.320  65.553  1.00  0.00    -0.602 OA 
HETATM   33  C   UNL     1     -10.906   9.462  71.541  1.00  0.00    -0.398 A  
HETATM   34  O   UNL     1      -8.347   8.944  67.925  1.00  0.00    -0.116 OA 
HETATM   35  O   UNL     1     -10.422  11.833  64.552  1.00  0.00    -0.269 OA 
ENDBRANCH  21  22
ENDBRANCH  20  21
ENDBRANCH   2  20
TORSDOF 6
ENDMDL
MODEL      174
REMARK 921   NORMALIZED FREE ENERGY PREDICTED BY IDOCK:   -5.74 KCAL/MOL
REMARK 922        TOTAL FREE ENERGY PREDICTED BY IDOCK:   -9.04 KCAL/MOL
REMARK 923 INTER-LIGAND FREE ENERGY PREDICTED BY IDOCK:   -8.27 KCAL/MOL
REMARK 924 INTRA-LIGAND FREE ENERGY PREDICTED BY IDOCK:   -0.77 KCAL/MOL
REMARK 927      BINDING AFFINITY PREDICTED BY RF-SCORE:    0.00 PKD
ROOT
HETATM    1  O   UNL     1     -13.144  14.197  65.225  1.00  0.00    -0.763 OA 
HETATM    2  C   UNL     1     -11.914  14.690  64.658  1.00  0.00    -0.462 C  
HETATM    3  H   UNL     1     -13.630  13.764  64.532  1.00  0.00     0.000 HD 
ENDROOT
BRANCH   2   4
HETATM    4  C   UNL     1     -11.145  13.512  64.060  1.00  0.00    -0.183 C  
BRANCH   4   5
HETATM    5  O   UNL     1     -11.013  12.482  65.048  1.00  0.00    -0.280 OA 
BRANCH   5   6
HETATM    6  C   UNL     1      -9.901  11.686  65.009  1.00  0.00    -0.248 A  
HETATM    7  O   UNL     1      -6.328  12.115  70.420  1.00  0.00    -0.146 OA 
HETATM    8  O   UNL     1      -5.126  10.825  69.005  1.00  0.00    -0.042 OA 
HETATM    9  C   UNL     1      -9.612  10.829  63.935  1.00  0.00    -0.339 A  
HETATM   10  C   UNL     1      -8.441  10.073  63.911  1.00  0.00    -0.179 A  
HETATM   11  C   UNL     1      -6.192  11.591  69.329  1.00  0.00    -0.079 C  
HETATM   12  C   UNL     1      -7.538  10.161  64.962  1.00  0.00    -0.141 A  
HETATM   13  O   UNL     1      -6.882  10.989  67.053  1.00  0.00    -0.093 OA 
HETATM   14  C   UNL     1      -7.160  11.695  68.204  1.00  0.00    -0.078 C  
HETATM   15  C   UNL     1      -7.818  10.992  66.047  1.00  0.00    -0.077 A  
HETATM   16  C   UNL     1      -8.243  12.461  68.381  1.00  0.00    -0.144 C  
HETATM   17  C   UNL     1      -8.991  11.758  66.082  1.00  0.00    -0.145 A  
HETATM   18  O   UNL     1     -10.189  13.324  67.458  1.00  0.00    -0.220 OA 
HETATM   19  C   UNL     1      -9.231  12.585  67.294  1.00  0.00    -0.190 C  
ENDBRANCH   5   6
ENDBRANCH   4   5
ENDBRANCH   2   4
BRANCH   2  20
HETATM   20  C   UNL     1     -11.131  15.387  65.776  1.00  0.00    -0.260 C  
BRANCH  20  21
HETATM   21  O   UNL     1      -9.981  16.081  65.337  1.00  0.00    -0.445 OA 
BRANCH  21  22
HETATM   22  C   UNL     1      -9.665  17.294  65.907  1.00  0.00    -0.086 A  
HETATM   23  C   UNL     1      -6.713  17.364  68.422  1.00  0.00    -0.187 C  
HETATM   24  C   UNL     1      -7.474  16.887  67.265  1.00  0.00    -0.166 C  
HETATM   25  C   UNL     1      -8.658  17.683  66.823  1.00  0.00    -0.276 A  
HETATM   26  C   UNL     1      -8.715  18.987  67.368  1.00  0.00    -0.278 A  
HETATM   27  C   UNL     1      -6.918  18.602  68.864  1.00  0.00    -0.291 C  
HETATM   28  C   UNL     1      -9.675  19.916  66.950  1.00  0.00    -0.532 A  
HETATM   29  O   UNL     1      -7.855  19.466  68.337  1.00  0.00    -0.317 OA 
HETATM   30  C   UNL     1     -10.611  19.557  65.994  1.00  0.00    -0.589 A  
HETATM   31  C   UNL     1      -6.023  19.082  69.950  1.00  0.00    -0.249 C  
HETATM   32  O   UNL     1      -6.302  20.351  70.318  1.00  0.00    -0.408 OA 
HETATM   33  C   UNL     1     -10.617  18.254  65.501  1.00  0.00     0.031 A  
HETATM   34  O   UNL     1      -7.014  15.912  66.691  1.00  0.00    -0.203 OA 
HETATM   35  O   UNL     1      -5.129  18.423  70.455  1.00  0.00    -0.206 OA 
ENDBRANCH  21  22
ENDBRANCH  20  21
ENDBRANCH   2  20
TORSDOF 6
ENDMDL
MODEL      175
REMARK 921   NORMALIZED FREE ENERGY PREDICTED BY IDOCK:   -5.73 KCAL/MOL
REMARK 922        TOTAL FREE ENERGY PREDICTED BY IDOCK:   -9.03 KCAL/MOL
REMARK 923 INTER-LIGAND FREE ENERGY PREDICTED BY IDOCK:   -7.76 KCAL/MOL
REMARK 924 INTRA-LIGAND FREE ENERGY PREDICTED BY IDOCK:   -1.28 KCAL/MOL
REMARK 927      BINDING AFFINITY PREDICTED BY RF-SCORE:    0.00 PKD
ROOT
HETATM    1  O   UNL     1     -12.305  13.762  63.232  1.00  0.00    -1.069 OA 
HETATM    2  C   UNL     1     -11.649  13.524  64.492  1.00  0.00    -0.381 C  
HETATM    3  H   UNL     1     -12.605  14.664  63.227  1.00  0.00     0.000 HD 
ENDROOT
BRANCH   2   4
HETATM    4  C   UNL     1     -10.497  14.518  64.640  1.00  0.00    -0.210 C  
BRANCH   4   5
HETATM    5  O   UNL     1     -10.880  15.554  65.553  1.00  0.00    -0.337 OA 
BRANCH   5   6
HETATM    6  C   UNL     1     -10.115  15.745  66.671  1.00  0.00    -0.279 A  
HETATM    7  O   UNL     1     -13.311  14.332  72.151  1.00  0.00    -0.350 OA 
HETATM    8  O   UNL     1     -11.334  15.208  72.814  1.00  0.00    -0.344 OA 
HETATM    9  C   UNL     1      -8.770  16.142  66.619  1.00  0.00    -0.300 A  
HETATM   10  C   UNL     1      -8.042  16.375  67.785  1.00  0.00    -0.167 A  
HETATM   11  C   UNL     1     -12.238  14.839  71.878  1.00  0.00    -0.342 C  
HETATM   12  C   UNL     1      -8.647  16.215  69.024  1.00  0.00    -0.251 A  
HETATM   13  O   UNL     1     -10.480  15.639  70.364  1.00  0.00    -0.315 OA 
HETATM   14  C   UNL     1     -11.749  15.116  70.500  1.00  0.00    -0.302 C  
HETATM   15  C   UNL     1      -9.977  15.802  69.096  1.00  0.00    -0.241 A  
HETATM   16  C   UNL     1     -12.567  14.835  69.479  1.00  0.00    -0.034 C  
HETATM   17  C   UNL     1     -10.721  15.565  67.931  1.00  0.00    -0.294 A  
HETATM   18  O   UNL     1     -12.896  14.866  67.183  1.00  0.00     0.809 OA 
HETATM   19  C   UNL     1     -12.118  15.087  68.098  1.00  0.00    -0.037 C  
ENDBRANCH   5   6
ENDBRANCH   4   5
ENDBRANCH   2   4
BRANCH   2  20
HETATM   20  C   UNL     1     -11.164  12.069  64.499  1.00  0.00    -0.332 C  
BRANCH  20  21
HETATM   21  O   UNL     1     -10.046  11.830  65.329  1.00  0.00    -0.246 OA 
BRANCH  21  22
HETATM   22  C   UNL     1     -10.195  11.060  66.459  1.00  0.00    -0.234 A  
HETATM   23  C   UNL     1      -8.899   7.407  66.306  1.00  0.00    -0.182 C  
HETATM   24  C   UNL     1      -8.929   8.831  65.967  1.00  0.00    -0.192 C  
HETATM   25  C   UNL     1      -9.824   9.727  66.760  1.00  0.00    -0.265 A  
HETATM   26  C   UNL     1     -10.293   9.155  67.966  1.00  0.00    -0.222 A  
HETATM   27  C   UNL     1      -9.438   7.005  67.455  1.00  0.00    -0.126 C  
HETATM   28  C   UNL     1     -11.023   9.903  68.897  1.00  0.00    -0.214 A  
HETATM   29  O   UNL     1     -10.086   7.841  68.339  1.00  0.00    -0.180 OA 
HETATM   30  C   UNL     1     -11.316  11.232  68.636  1.00  0.00    -0.336 A  
HETATM   31  C   UNL     1      -9.258   5.574  67.815  1.00  0.00    -0.107 C  
HETATM   32  O   UNL     1      -9.827   5.270  69.001  1.00  0.00    -0.140 OA 
HETATM   33  C   UNL     1     -10.927  11.790  67.421  1.00  0.00    -0.314 A  
HETATM   34  O   UNL     1      -8.136   9.191  65.110  1.00  0.00    -0.118 OA 
HETATM   35  O   UNL     1      -8.659   4.758  67.133  1.00  0.00    -0.106 OA 
ENDBRANCH  21  22
ENDBRANCH  20  21
ENDBRANCH   2  20
TORSDOF 6
ENDMDL
MODEL      176
REMARK 921   NORMALIZED FREE ENERGY PREDICTED BY IDOCK:   -5.72 KCAL/MOL
REMARK 922        TOTAL FREE ENERGY PREDICTED BY IDOCK:   -9.02 KCAL/MOL
REMARK 923 INTER-LIGAND FREE ENERGY PREDICTED BY IDOCK:   -8.43 KCAL/MOL
REMARK 924 INTRA-LIGAND FREE ENERGY PREDICTED BY IDOCK:   -0.59 KCAL/MOL
REMARK 927      BINDING AFFINITY PREDICTED BY RF-SCORE:    0.00 PKD
ROOT
HETATM    1  O   UNL     1      -9.275   9.855  70.495  1.00  0.00    -0.345 OA 
HETATM    2  C   UNL     1     -10.285   9.870  69.467  1.00  0.00    -0.225 C  
HETATM    3  H   UNL     1      -9.211   8.967  70.826  1.00  0.00     0.000 HD 
ENDROOT
BRANCH   2   4
HETATM    4  C   UNL     1      -9.889   8.873  68.378  1.00  0.00    -0.174 C  
BRANCH   4   5
HETATM    5  O   UNL     1     -10.164   7.542  68.832  1.00  0.00    -0.197 OA 
BRANCH   5   6
HETATM    6  C   UNL     1      -9.165   6.611  68.748  1.00  0.00    -0.129 A  
HETATM    7  O   UNL     1     -10.004   2.486  63.796  1.00  0.00    -0.138 OA 
HETATM    8  O   UNL     1      -8.217   1.702  64.938  1.00  0.00    -0.073 OA 
HETATM    9  C   UNL     1      -8.055   6.601  69.607  1.00  0.00    -0.126 A  
HETATM   10  C   UNL     1      -7.084   5.604  69.519  1.00  0.00    -0.064 A  
HETATM   11  C   UNL     1      -9.240   2.564  64.742  1.00  0.00    -0.137 C  
HETATM   12  C   UNL     1      -7.208   4.598  68.571  1.00  0.00    -0.057 A  
HETATM   13  O   UNL     1      -8.315   3.585  66.771  1.00  0.00    -0.097 OA 
HETATM   14  C   UNL     1      -9.297   3.605  65.803  1.00  0.00    -0.164 C  
HETATM   15  C   UNL     1      -8.295   4.602  67.696  1.00  0.00    -0.103 A  
HETATM   16  C   UNL     1     -10.291   4.499  65.749  1.00  0.00    -0.287 C  
HETATM   17  C   UNL     1      -9.277   5.599  67.774  1.00  0.00    -0.106 A  
HETATM   18  O   UNL     1     -11.318   6.330  66.735  1.00  0.00    -0.229 OA 
HETATM   19  C   UNL     1     -10.378   5.552  66.776  1.00  0.00    -0.269 C  
ENDBRANCH   5   6
ENDBRANCH   4   5
ENDBRANCH   2   4
BRANCH   2  20
HETATM   20  C   UNL     1     -10.388  11.303  68.933  1.00  0.00    -0.195 C  
BRANCH  20  21
HETATM   21  O   UNL     1     -11.689  11.853  68.983  1.00  0.00    -0.284 OA 
BRANCH  21  22
HETATM   22  C   UNL     1     -11.851  13.174  69.335  1.00  0.00    -0.326 A  
HETATM   23  C   UNL     1     -10.708  15.849  66.769  1.00  0.00    -0.281 C  
HETATM   24  C   UNL     1     -11.225  14.551  67.208  1.00  0.00    -0.332 C  
HETATM   25  C   UNL     1     -11.575  14.382  68.650  1.00  0.00    -0.347 A  
HETATM   26  C   UNL     1     -11.680  15.598  69.366  1.00  0.00    -0.383 A  
HETATM   27  C   UNL     1     -10.823  16.898  67.580  1.00  0.00    -0.244 C  
HETATM   28  C   UNL     1     -12.139  15.633  70.688  1.00  0.00    -0.443 A  
HETATM   29  O   UNL     1     -11.353  16.838  68.852  1.00  0.00    -0.203 OA 
HETATM   30  C   UNL     1     -12.485  14.455  71.330  1.00  0.00    -0.423 A  
HETATM   31  C   UNL     1     -10.410  18.217  67.033  1.00  0.00    -0.389 C  
HETATM   32  O   UNL     1     -10.578  19.216  67.925  1.00  0.00    -0.404 OA 
HETATM   33  C   UNL     1     -12.317  13.242  70.666  1.00  0.00    -0.416 A  
HETATM   34  O   UNL     1     -11.418  13.730  66.325  1.00  0.00    -0.317 OA 
HETATM   35  O   UNL     1      -9.977  18.395  65.906  1.00  0.00    -0.526 OA 
ENDBRANCH  21  22
ENDBRANCH  20  21
ENDBRANCH   2  20
TORSDOF 6
ENDMDL
MODEL      177
REMARK 921   NORMALIZED FREE ENERGY PREDICTED BY IDOCK:   -5.70 KCAL/MOL
REMARK 922        TOTAL FREE ENERGY PREDICTED BY IDOCK:   -9.00 KCAL/MOL
REMARK 923 INTER-LIGAND FREE ENERGY PREDICTED BY IDOCK:   -8.28 KCAL/MOL
REMARK 924 INTRA-LIGAND FREE ENERGY PREDICTED BY IDOCK:   -0.72 KCAL/MOL
REMARK 927      BINDING AFFINITY PREDICTED BY RF-SCORE:    0.00 PKD
ROOT
HETATM    1  O   UNL     1     -12.545  10.603  69.043  1.00  0.00    -0.746 OA 
HETATM    2  C   UNL     1     -11.303  11.299  68.819  1.00  0.00    -0.270 C  
HETATM    3  H   UNL     1     -12.975  11.010  69.786  1.00  0.00     0.000 HD 
ENDROOT
BRANCH   2   4
HETATM    4  C   UNL     1     -11.607  12.776  68.573  1.00  0.00    -0.321 C  
BRANCH   4   5
HETATM    5  O   UNL     1     -10.523  13.369  67.847  1.00  0.00    -0.230 OA 
BRANCH   5   6
HETATM    6  C   UNL     1     -10.818  14.121  66.744  1.00  0.00    -0.296 A  
HETATM    7  O   UNL     1      -9.027  20.333  67.401  1.00  0.00    -0.337 OA 
HETATM    8  O   UNL     1     -10.156  20.236  65.445  1.00  0.00    -0.218 OA 
HETATM    9  C   UNL     1     -11.387  13.580  65.580  1.00  0.00    -0.312 A  
HETATM   10  C   UNL     1     -11.719  14.392  64.496  1.00  0.00    -0.430 A  
HETATM   11  C   UNL     1      -9.668  19.696  66.585  1.00  0.00    -0.390 C  
HETATM   12  C   UNL     1     -11.487  15.759  64.557  1.00  0.00    -0.292 A  
HETATM   13  O   UNL     1     -10.683  17.667  65.653  1.00  0.00    -0.495 OA 
HETATM   14  C   UNL     1      -9.999  18.251  66.699  1.00  0.00    -0.364 C  
HETATM   15  C   UNL     1     -10.904  16.311  65.697  1.00  0.00    -0.208 A  
HETATM   16  C   UNL     1      -9.608  17.605  67.803  1.00  0.00    -0.267 C  
HETATM   17  C   UNL     1     -10.566  15.506  66.794  1.00  0.00    -0.307 A  
HETATM   18  O   UNL     1      -9.585  15.609  68.986  1.00  0.00    -0.209 OA 
HETATM   19  C   UNL     1      -9.910  16.170  67.951  1.00  0.00    -0.235 C  
ENDBRANCH   5   6
ENDBRANCH   4   5
ENDBRANCH   2   4
BRANCH   2  20
HETATM   20  C   UNL     1     -10.610  10.642  67.619  1.00  0.00    -0.246 C  
BRANCH  20  21
HETATM   21  O   UNL     1      -9.690   9.625  67.961  1.00  0.00    -0.142 OA 
BRANCH  21  22
HETATM   22  C   UNL     1      -9.049   8.930  66.961  1.00  0.00    -0.135 A  
HETATM   23  C   UNL     1      -9.900   5.164  66.588  1.00  0.00    -0.208 C  
HETATM   24  C   UNL     1     -10.155   6.566  66.926  1.00  0.00    -0.192 C  
HETATM   25  C   UNL     1      -9.134   7.583  66.532  1.00  0.00    -0.201 A  
HETATM   26  C   UNL     1      -8.193   7.120  65.583  1.00  0.00    -0.138 A  
HETATM   27  C   UNL     1      -8.934   4.874  65.719  1.00  0.00    -0.142 C  
HETATM   28  C   UNL     1      -7.257   7.982  64.998  1.00  0.00    -0.069 A  
HETATM   29  O   UNL     1      -8.102   5.812  65.147  1.00  0.00    -0.119 OA 
HETATM   30  C   UNL     1      -7.229   9.319  65.361  1.00  0.00    -0.090 A  
HETATM   31  C   UNL     1      -8.810   3.451  65.305  1.00  0.00    -0.126 C  
HETATM   32  O   UNL     1      -7.813   3.264  64.414  1.00  0.00    -0.080 OA 
HETATM   33  C   UNL     1      -8.099   9.775  66.349  1.00  0.00    -0.116 A  
HETATM   34  O   UNL     1     -11.243   6.802  67.429  1.00  0.00    -0.313 OA 
HETATM   35  O   UNL     1      -9.525   2.547  65.707  1.00  0.00    -0.038 OA 
ENDBRANCH  21  22
ENDBRANCH  20  21
ENDBRANCH   2  20
TORSDOF 6
ENDMDL
MODEL      178
REMARK 921   NORMALIZED FREE ENERGY PREDICTED BY IDOCK:   -5.70 KCAL/MOL
REMARK 922        TOTAL FREE ENERGY PREDICTED BY IDOCK:   -8.99 KCAL/MOL
REMARK 923 INTER-LIGAND FREE ENERGY PREDICTED BY IDOCK:   -7.97 KCAL/MOL
REMARK 924 INTRA-LIGAND FREE ENERGY PREDICTED BY IDOCK:   -1.02 KCAL/MOL
REMARK 927      BINDING AFFINITY PREDICTED BY RF-SCORE:    0.00 PKD
ROOT
HETATM    1  O   UNL     1     -10.047   8.061  66.158  1.00  0.00    -0.475 OA 
HETATM    2  C   UNL     1      -8.955   8.717  65.483  1.00  0.00    -0.158 C  
HETATM    3  H   UNL     1     -10.097   7.170  65.830  1.00  0.00     0.000 HD 
ENDROOT
BRANCH   2   4
HETATM    4  C   UNL     1      -7.672   7.929  65.747  1.00  0.00    -0.090 C  
BRANCH   4   5
HETATM    5  O   UNL     1      -7.514   7.742  67.160  1.00  0.00    -0.092 OA 
BRANCH   5   6
HETATM    6  C   UNL     1      -7.656   6.478  67.664  1.00  0.00    -0.105 A  
HETATM    7  O   UNL     1     -11.653   6.265  72.784  1.00  0.00    -0.214 OA 
HETATM    8  O   UNL     1     -10.789   4.183  72.606  1.00  0.00    -0.129 OA 
HETATM    9  C   UNL     1      -7.047   5.352  67.088  1.00  0.00    -0.070 A  
HETATM   10  C   UNL     1      -7.176   4.089  67.663  1.00  0.00    -0.067 A  
HETATM   11  C   UNL     1     -10.904   5.478  72.233  1.00  0.00    -0.241 C  
HETATM   12  C   UNL     1      -7.916   3.930  68.827  1.00  0.00    -0.068 A  
HETATM   13  O   UNL     1      -9.281   4.774  70.534  1.00  0.00    -0.123 OA 
HETATM   14  C   UNL     1     -10.024   5.800  71.079  1.00  0.00    -0.190 C  
HETATM   15  C   UNL     1      -8.544   5.034  69.403  1.00  0.00    -0.088 A  
HETATM   16  C   UNL     1     -10.011   7.063  70.636  1.00  0.00    -0.194 C  
HETATM   17  C   UNL     1      -8.422   6.309  68.834  1.00  0.00    -0.120 A  
HETATM   18  O   UNL     1      -9.127   8.589  69.129  1.00  0.00    -0.145 OA 
HETATM   19  C   UNL     1      -9.159   7.422  69.489  1.00  0.00    -0.143 C  
ENDBRANCH   5   6
ENDBRANCH   4   5
ENDBRANCH   2   4
BRANCH   2  20
HETATM   20  C   UNL     1      -8.874  10.153  66.013  1.00  0.00    -0.143 C  
BRANCH  20  21
HETATM   21  O   UNL     1     -10.128  10.753  66.266  1.00  0.00    -0.217 OA 
BRANCH  21  22
HETATM   22  C   UNL     1     -10.560  11.782  65.460  1.00  0.00    -0.276 A  
HETATM   23  C   UNL     1      -9.639  15.393  66.535  1.00  0.00    -0.298 C  
HETATM   24  C   UNL     1      -9.460  13.944  66.423  1.00  0.00    -0.250 C  
HETATM   25  C   UNL     1     -10.389  13.185  65.532  1.00  0.00    -0.299 A  
HETATM   26  C   UNL     1     -11.127  13.998  64.639  1.00  0.00    -0.382 A  
HETATM   27  C   UNL     1     -10.418  16.018  65.655  1.00  0.00    -0.397 C  
HETATM   28  C   UNL     1     -11.934  13.444  63.639  1.00  0.00    -0.504 A  
HETATM   29  O   UNL     1     -11.127  15.379  64.660  1.00  0.00    -0.399 OA 
HETATM   30  C   UNL     1     -12.037  12.067  63.520  1.00  0.00    -0.628 A  
HETATM   31  C   UNL     1     -10.454  17.503  65.728  1.00  0.00    -0.207 C  
HETATM   32  O   UNL     1     -11.259  18.041  64.787  1.00  0.00    -0.624 OA 
HETATM   33  C   UNL     1     -11.377  11.252  64.437  1.00  0.00    -0.109 A  
HETATM   34  O   UNL     1      -8.491  13.481  67.005  1.00  0.00    -0.194 OA 
HETATM   35  O   UNL     1      -9.828  18.172  66.533  1.00  0.00    -0.328 OA 
ENDBRANCH  21  22
ENDBRANCH  20  21
ENDBRANCH   2  20
TORSDOF 6
ENDMDL
MODEL      179
REMARK 921   NORMALIZED FREE ENERGY PREDICTED BY IDOCK:   -5.70 KCAL/MOL
REMARK 922        TOTAL FREE ENERGY PREDICTED BY IDOCK:   -8.99 KCAL/MOL
REMARK 923 INTER-LIGAND FREE ENERGY PREDICTED BY IDOCK:   -7.37 KCAL/MOL
REMARK 924 INTRA-LIGAND FREE ENERGY PREDICTED BY IDOCK:   -1.62 KCAL/MOL
REMARK 927      BINDING AFFINITY PREDICTED BY RF-SCORE:    0.00 PKD
ROOT
HETATM    1  O   UNL     1     -13.272  14.495  70.771  1.00  0.00    -0.426 OA 
HETATM    2  C   UNL     1     -12.043  13.788  70.509  1.00  0.00    -0.345 C  
HETATM    3  H   UNL     1     -13.067  15.421  70.826  1.00  0.00     0.000 HD 
ENDROOT
BRANCH   2   4
HETATM    4  C   UNL     1     -11.438  14.324  69.212  1.00  0.00    -0.289 C  
BRANCH   4   5
HETATM    5  O   UNL     1     -11.114  13.225  68.351  1.00  0.00    -0.245 OA 
BRANCH   5   6
HETATM    6  C   UNL     1      -9.820  13.096  67.927  1.00  0.00    -0.231 A  
HETATM    7  O   UNL     1      -8.545   7.177  65.564  1.00  0.00    -0.146 OA 
HETATM    8  O   UNL     1      -6.557   8.254  65.596  1.00  0.00    -0.051 OA 
HETATM    9  C   UNL     1      -8.899  14.154  67.948  1.00  0.00    -0.182 A  
HETATM   10  C   UNL     1      -7.574  13.967  67.554  1.00  0.00    -0.190 A  
HETATM   11  C   UNL     1      -7.886   8.165  65.833  1.00  0.00    -0.094 C  
HETATM   12  C   UNL     1      -7.149  12.715  67.132  1.00  0.00    -0.035 A  
HETATM   13  O   UNL     1      -7.549  10.463  66.624  1.00  0.00    -0.106 OA 
HETATM   14  C   UNL     1      -8.424   9.412  66.440  1.00  0.00    -0.126 C  
HETATM   15  C   UNL     1      -8.054  11.655  67.086  1.00  0.00    -0.166 A  
HETATM   16  C   UNL     1      -9.722   9.441  66.763  1.00  0.00    -0.257 C  
HETATM   17  C   UNL     1      -9.388  11.831  67.480  1.00  0.00    -0.174 A  
HETATM   18  O   UNL     1     -11.472  10.650  67.689  1.00  0.00    -0.474 OA 
HETATM   19  C   UNL     1     -10.296  10.660  67.359  1.00  0.00    -0.219 C  
ENDBRANCH   5   6
ENDBRANCH   4   5
ENDBRANCH   2   4
BRANCH   2  20
HETATM   20  C   UNL     1     -12.374  12.294  70.421  1.00  0.00    -0.228 C  
BRANCH  20  21
HETATM   21  O   UNL     1     -11.346  11.440  70.883  1.00  0.00     0.351 OA 
BRANCH  21  22
HETATM   22  C   UNL     1     -11.645  10.136  71.204  1.00  0.00    -0.346 A  
HETATM   23  C   UNL     1      -9.031   7.430  70.260  1.00  0.00    -0.147 C  
HETATM   24  C   UNL     1      -9.495   8.763  70.648  1.00  0.00    -0.197 C  
HETATM   25  C   UNL     1     -10.929   8.926  71.036  1.00  0.00    -0.341 A  
HETATM   26  C   UNL     1     -11.598   7.708  71.303  1.00  0.00    -0.278 A  
HETATM   27  C   UNL     1      -9.800   6.375  70.524  1.00  0.00    -0.183 C  
HETATM   28  C   UNL     1     -12.900   7.683  71.817  1.00  0.00    -0.357 A  
HETATM   29  O   UNL     1     -11.052   6.456  71.094  1.00  0.00    -0.264 OA 
HETATM   30  C   UNL     1     -13.569   8.873  72.056  1.00  0.00    -0.489 A  
HETATM   31  C   UNL     1      -9.222   5.036  70.236  1.00  0.00    -0.139 C  
HETATM   32  O   UNL     1     -10.072   4.035  70.550  1.00  0.00    -0.135 OA 
HETATM   33  C   UNL     1     -12.955  10.079  71.728  1.00  0.00    -0.560 A  
HETATM   34  O   UNL     1      -8.635   9.628  70.713  1.00  0.00    -0.227 OA 
HETATM   35  O   UNL     1      -8.106   4.846  69.780  1.00  0.00    -0.069 OA 
ENDBRANCH  21  22
ENDBRANCH  20  21
ENDBRANCH   2  20
TORSDOF 6
ENDMDL
MODEL      180
REMARK 921   NORMALIZED FREE ENERGY PREDICTED BY IDOCK:   -5.67 KCAL/MOL
REMARK 922        TOTAL FREE ENERGY PREDICTED BY IDOCK:   -8.95 KCAL/MOL
REMARK 923 INTER-LIGAND FREE ENERGY PREDICTED BY IDOCK:   -8.30 KCAL/MOL
REMARK 924 INTRA-LIGAND FREE ENERGY PREDICTED BY IDOCK:   -0.66 KCAL/MOL
REMARK 927      BINDING AFFINITY PREDICTED BY RF-SCORE:    0.00 PKD
ROOT
HETATM    1  O   UNL     1      -9.175   9.025  64.427  1.00  0.00    -0.424 OA 
HETATM    2  C   UNL     1      -9.238   9.558  65.765  1.00  0.00    -0.211 C  
HETATM    3  H   UNL     1      -9.561   8.157  64.443  1.00  0.00     0.000 HD 
ENDROOT
BRANCH   2   4
HETATM    4  C   UNL     1     -10.698   9.582  66.214  1.00  0.00     0.204 C  
BRANCH   4   5
HETATM    5  O   UNL     1     -10.771   9.248  67.606  1.00  0.00    -0.269 OA 
BRANCH   5   6
HETATM    6  C   UNL     1     -10.677   7.931  67.961  1.00  0.00    -0.054 A  
HETATM    7  O   UNL     1     -10.528   7.084  74.403  1.00  0.00    -0.211 OA 
HETATM    8  O   UNL     1     -10.169   5.035  73.517  1.00  0.00    -0.165 OA 
HETATM    9  C   UNL     1     -10.678   6.885  67.025  1.00  0.00    -0.432 A  
HETATM   10  C   UNL     1     -10.529   5.557  67.427  1.00  0.00    -0.284 A  
HETATM   11  C   UNL     1     -10.374   6.369  73.429  1.00  0.00    -0.250 C  
HETATM   12  C   UNL     1     -10.376   5.254  68.772  1.00  0.00    -0.206 A  
HETATM   13  O   UNL     1     -10.267   5.879  71.028  1.00  0.00    -0.195 OA 
HETATM   14  C   UNL     1     -10.398   6.832  72.016  1.00  0.00    -0.196 C  
HETATM   15  C   UNL     1     -10.392   6.279  69.719  1.00  0.00    -0.207 A  
HETATM   16  C   UNL     1     -10.552   8.142  71.790  1.00  0.00    -0.313 C  
HETATM   17  C   UNL     1     -10.541   7.617  69.328  1.00  0.00    -0.206 A  
HETATM   18  O   UNL     1     -10.686   9.844  70.220  1.00  0.00    -0.268 OA 
HETATM   19  C   UNL     1     -10.590   8.641  70.404  1.00  0.00    -0.220 C  
ENDBRANCH   5   6
ENDBRANCH   4   5
ENDBRANCH   2   4
BRANCH   2  20
HETATM   20  C   UNL     1      -8.615  10.959  65.739  1.00  0.00    -0.173 C  
BRANCH  20  21
HETATM   21  O   UNL     1      -9.553  12.013  65.670  1.00  0.00    -0.239 OA 
BRANCH  21  22
HETATM   22  C   UNL     1      -9.422  13.091  66.515  1.00  0.00    -0.245 A  
HETATM   23  C   UNL     1     -10.714  16.519  65.240  1.00  0.00    -0.269 C  
HETATM   24  C   UNL     1     -10.680  15.059  65.350  1.00  0.00    -0.374 C  
HETATM   25  C   UNL     1      -9.798  14.451  66.391  1.00  0.00    -0.309 A  
HETATM   26  C   UNL     1      -9.349  15.364  67.374  1.00  0.00    -0.201 A  
HETATM   27  C   UNL     1     -10.194  17.253  66.221  1.00  0.00    -0.342 C  
HETATM   28  C   UNL     1      -8.635  14.937  68.499  1.00  0.00    -0.162 A  
HETATM   29  O   UNL     1      -9.562  16.728  67.328  1.00  0.00    -0.229 OA 
HETATM   30  C   UNL     1      -8.338  13.593  68.659  1.00  0.00    -0.043 A  
HETATM   31  C   UNL     1     -10.380  18.726  66.127  1.00  0.00    -0.448 C  
HETATM   32  O   UNL     1      -9.831  19.377  67.174  1.00  0.00    -0.311 OA 
HETATM   33  C   UNL     1      -8.707  12.690  67.665  1.00  0.00    -0.179 A  
HETATM   34  O   UNL     1     -11.458  14.453  64.630  1.00  0.00    -0.377 OA 
HETATM   35  O   UNL     1     -10.967  19.294  65.220  1.00  0.00    -0.487 OA 
ENDBRANCH  21  22
ENDBRANCH  20  21
ENDBRANCH   2  20
TORSDOF 6
ENDMDL
MODEL      181
REMARK 921   NORMALIZED FREE ENERGY PREDICTED BY IDOCK:   -5.66 KCAL/MOL
REMARK 922        TOTAL FREE ENERGY PREDICTED BY IDOCK:   -8.94 KCAL/MOL
REMARK 923 INTER-LIGAND FREE ENERGY PREDICTED BY IDOCK:   -8.21 KCAL/MOL
REMARK 924 INTRA-LIGAND FREE ENERGY PREDICTED BY IDOCK:   -0.73 KCAL/MOL
REMARK 927      BINDING AFFINITY PREDICTED BY RF-SCORE:    0.00 PKD
ROOT
HETATM    1  O   UNL     1      -9.426  10.471  68.627  1.00  0.00    -0.156 OA 
HETATM    2  C   UNL     1      -8.948  10.022  67.344  1.00  0.00    -0.131 C  
HETATM    3  H   UNL     1      -8.810  11.115  68.957  1.00  0.00     0.000 HD 
ENDROOT
BRANCH   2   4
HETATM    4  C   UNL     1      -8.823  11.232  66.418  1.00  0.00    -0.182 C  
BRANCH   4   5
HETATM    5  O   UNL     1      -9.769  12.232  66.816  1.00  0.00    -0.204 OA 
BRANCH   5   6
HETATM    6  C   UNL     1      -9.330  13.261  67.603  1.00  0.00    -0.212 A  
HETATM    7  O   UNL     1     -13.504  14.720  72.366  1.00  0.00    -0.360 OA 
HETATM    8  O   UNL     1     -11.890  16.300  72.474  1.00  0.00    -0.516 OA 
HETATM    9  C   UNL     1      -8.083  13.880  67.427  1.00  0.00    -0.190 A  
HETATM   10  C   UNL     1      -7.695  14.960  68.219  1.00  0.00    -0.113 A  
HETATM   11  C   UNL     1     -12.481  15.213  71.927  1.00  0.00    -0.348 C  
HETATM   12  C   UNL     1      -8.549  15.439  69.203  1.00  0.00    -0.242 A  
HETATM   13  O   UNL     1     -10.547  15.346  70.423  1.00  0.00    -0.306 OA 
HETATM   14  C   UNL     1     -11.723  14.705  70.752  1.00  0.00    -0.279 C  
HETATM   15  C   UNL     1      -9.784  14.824  69.406  1.00  0.00    -0.036 A  
HETATM   16  C   UNL     1     -12.224  13.654  70.092  1.00  0.00    -0.413 C  
HETATM   17  C   UNL     1     -10.186  13.738  68.615  1.00  0.00    -0.209 A  
HETATM   18  O   UNL     1     -11.996  12.186  68.311  1.00  0.00    -0.384 OA 
HETATM   19  C   UNL     1     -11.500  13.116  68.927  1.00  0.00    -0.298 C  
ENDBRANCH   5   6
ENDBRANCH   4   5
ENDBRANCH   2   4
BRANCH   2  20
HETATM   20  C   UNL     1      -9.941   8.984  66.812  1.00  0.00    -0.263 C  
BRANCH  20  21
HETATM   21  O   UNL     1     -10.804   8.445  67.793  1.00  0.00    -0.142 OA 
BRANCH  21  22
HETATM   22  C   UNL     1     -10.597   7.161  68.243  1.00  0.00    -0.188 A  
HETATM   23  C   UNL     1     -11.056   6.511  72.039  1.00  0.00    -0.296 C  
HETATM   24  C   UNL     1     -11.303   7.172  70.756  1.00  0.00    -0.289 C  
HETATM   25  C   UNL     1     -10.699   6.573  69.527  1.00  0.00    -0.322 A  
HETATM   26  C   UNL     1     -10.232   5.249  69.698  1.00  0.00    -0.278 A  
HETATM   27  C   UNL     1     -10.552   5.279  72.046  1.00  0.00    -0.216 C  
HETATM   28  C   UNL     1      -9.770   4.489  68.617  1.00  0.00    -0.203 A  
HETATM   29  O   UNL     1     -10.185   4.588  70.910  1.00  0.00    -0.191 OA 
HETATM   30  C   UNL     1      -9.747   5.040  67.346  1.00  0.00    -0.183 A  
HETATM   31  C   UNL     1     -10.452   4.603  73.366  1.00  0.00    -0.207 C  
HETATM   32  O   UNL     1      -9.943   3.356  73.264  1.00  0.00    -0.110 OA 
HETATM   33  C   UNL     1     -10.133   6.367  67.171  1.00  0.00    -0.217 A  
HETATM   34  O   UNL     1     -12.071   8.120  70.785  1.00  0.00    -0.209 OA 
HETATM   35  O   UNL     1     -10.794   5.099  74.427  1.00  0.00    -0.323 OA 
ENDBRANCH  21  22
ENDBRANCH  20  21
ENDBRANCH   2  20
TORSDOF 6
ENDMDL
MODEL      182
REMARK 921   NORMALIZED FREE ENERGY PREDICTED BY IDOCK:   -5.66 KCAL/MOL
REMARK 922        TOTAL FREE ENERGY PREDICTED BY IDOCK:   -8.94 KCAL/MOL
REMARK 923 INTER-LIGAND FREE ENERGY PREDICTED BY IDOCK:   -8.05 KCAL/MOL
REMARK 924 INTRA-LIGAND FREE ENERGY PREDICTED BY IDOCK:   -0.89 KCAL/MOL
REMARK 927      BINDING AFFINITY PREDICTED BY RF-SCORE:    0.00 PKD
ROOT
HETATM    1  O   UNL     1     -11.919  11.163  68.067  1.00  0.00    -0.625 OA 
HETATM    2  C   UNL     1     -10.481  11.220  68.143  1.00  0.00    -0.189 C  
HETATM    3  H   UNL     1     -12.262  11.960  68.455  1.00  0.00     0.000 HD 
ENDROOT
BRANCH   2   4
HETATM    4  C   UNL     1     -10.002  12.473  67.410  1.00  0.00    -0.207 C  
BRANCH   4   5
HETATM    5  O   UNL     1      -9.918  13.562  68.338  1.00  0.00    -0.232 OA 
BRANCH   5   6
HETATM    6  C   UNL     1      -8.751  14.274  68.394  1.00  0.00    -0.181 A  
HETATM    7  O   UNL     1      -9.665  20.639  67.453  1.00  0.00    -0.457 OA 
HETATM    8  O   UNL     1      -7.423  20.358  67.538  1.00  0.00    -0.296 OA 
HETATM    9  C   UNL     1      -7.510  13.687  68.687  1.00  0.00    -0.113 A  
HETATM   10  C   UNL     1      -6.337  14.442  68.684  1.00  0.00    -0.087 A  
HETATM   11  C   UNL     1      -8.698  19.906  67.549  1.00  0.00    -0.338 C  
HETATM   12  C   UNL     1      -6.386  15.797  68.387  1.00  0.00    -0.110 A  
HETATM   13  O   UNL     1      -7.566  17.752  67.863  1.00  0.00    -0.204 OA 
HETATM   14  C   UNL     1      -8.758  18.428  67.706  1.00  0.00    -0.267 C  
HETATM   15  C   UNL     1      -7.613  16.401  68.113  1.00  0.00    -0.155 A  
HETATM   16  C   UNL     1      -9.963  17.846  67.691  1.00  0.00    -0.324 C  
HETATM   17  C   UNL     1      -8.799  15.654  68.112  1.00  0.00    -0.174 A  
HETATM   18  O   UNL     1     -11.171  15.869  67.790  1.00  0.00    -0.326 OA 
HETATM   19  C   UNL     1     -10.067  16.385  67.851  1.00  0.00    -0.250 C  
ENDBRANCH   5   6
ENDBRANCH   4   5
ENDBRANCH   2   4
BRANCH   2  20
HETATM   20  C   UNL     1      -9.929   9.935  67.518  1.00  0.00    -0.185 C  
BRANCH  20  21
HETATM   21  O   UNL     1     -10.897   8.930  67.296  1.00  0.00    -0.216 OA 
BRANCH  21  22
HETATM   22  C   UNL     1     -10.738   7.696  67.883  1.00  0.00    -0.108 A  
HETATM   23  C   UNL     1     -10.696   7.563  71.759  1.00  0.00    -0.243 C  
HETATM   24  C   UNL     1     -11.069   8.084  70.443  1.00  0.00    -0.238 C  
HETATM   25  C   UNL     1     -10.702   7.282  69.237  1.00  0.00    -0.212 A  
HETATM   26  C   UNL     1     -10.329   5.947  69.521  1.00  0.00    -0.248 A  
HETATM   27  C   UNL     1     -10.303   6.295  71.865  1.00  0.00    -0.204 C  
HETATM   28  C   UNL     1     -10.095   5.018  68.501  1.00  0.00    -0.184 A  
HETATM   29  O   UNL     1     -10.164   5.438  70.794  1.00  0.00    -0.213 OA 
HETATM   30  C   UNL     1     -10.209   5.406  67.176  1.00  0.00    -0.266 A  
HETATM   31  C   UNL     1     -10.071   5.778  73.239  1.00  0.00    -0.188 C  
HETATM   32  O   UNL     1      -9.690   4.483  73.240  1.00  0.00    -0.128 OA 
HETATM   33  C   UNL     1     -10.502   6.734  66.876  1.00  0.00    -0.350 A  
HETATM   34  O   UNL     1     -11.742   9.104  70.445  1.00  0.00    -0.213 OA 
HETATM   35  O   UNL     1     -10.213   6.432  74.260  1.00  0.00    -0.321 OA 
ENDBRANCH  21  22
ENDBRANCH  20  21
ENDBRANCH   2  20
TORSDOF 6
ENDMDL
MODEL      183
REMARK 921   NORMALIZED FREE ENERGY PREDICTED BY IDOCK:   -5.66 KCAL/MOL
REMARK 922        TOTAL FREE ENERGY PREDICTED BY IDOCK:   -8.94 KCAL/MOL
REMARK 923 INTER-LIGAND FREE ENERGY PREDICTED BY IDOCK:   -7.95 KCAL/MOL
REMARK 924 INTRA-LIGAND FREE ENERGY PREDICTED BY IDOCK:   -0.99 KCAL/MOL
REMARK 927      BINDING AFFINITY PREDICTED BY RF-SCORE:    0.00 PKD
ROOT
HETATM    1  O   UNL     1     -12.784  10.754  68.964  1.00  0.00    -0.655 OA 
HETATM    2  C   UNL     1     -11.609  11.390  69.504  1.00  0.00    -0.331 C  
HETATM    3  H   UNL     1     -13.334  11.433  68.590  1.00  0.00     0.000 HD 
ENDROOT
BRANCH   2   4
HETATM    4  C   UNL     1     -10.906  12.154  68.382  1.00  0.00    -0.224 C  
BRANCH   4   5
HETATM    5  O   UNL     1     -10.610  13.484  68.827  1.00  0.00    -0.246 OA 
BRANCH   5   6
HETATM    6  C   UNL     1      -9.473  14.084  68.360  1.00  0.00    -0.213 A  
HETATM    7  O   UNL     1     -10.268  20.445  67.289  1.00  0.00    -0.407 OA 
HETATM    8  O   UNL     1      -8.200  19.957  66.516  1.00  0.00    -0.306 OA 
HETATM    9  C   UNL     1      -8.259  13.399  68.195  1.00  0.00    -0.160 A  
HETATM   10  C   UNL     1      -7.137  14.037  67.667  1.00  0.00    -0.193 A  
HETATM   11  C   UNL     1      -9.392  19.629  67.065  1.00  0.00    -0.346 C  
HETATM   12  C   UNL     1      -7.211  15.372  67.294  1.00  0.00    -0.229 A  
HETATM   13  O   UNL     1      -8.371  17.398  67.101  1.00  0.00    -0.204 OA 
HETATM   14  C   UNL     1      -9.481  18.175  67.363  1.00  0.00    -0.255 C  
HETATM   15  C   UNL     1      -8.404  16.074  67.469  1.00  0.00    -0.161 A  
HETATM   16  C   UNL     1     -10.628  17.710  67.872  1.00  0.00    -0.390 C  
HETATM   17  C   UNL     1      -9.538  15.444  67.998  1.00  0.00    -0.206 A  
HETATM   18  O   UNL     1     -11.825  15.865  68.610  1.00  0.00    -0.388 OA 
HETATM   19  C   UNL     1     -10.755  16.277  68.189  1.00  0.00    -0.322 C  
ENDBRANCH   5   6
ENDBRANCH   4   5
ENDBRANCH   2   4
BRANCH   2  20
HETATM   20  C   UNL     1     -10.720  10.296  70.105  1.00  0.00    -0.278 C  
BRANCH  20  21
HETATM   21  O   UNL     1      -9.409  10.254  69.581  1.00  0.00    -0.205 OA 
BRANCH  21  22
HETATM   22  C   UNL     1      -8.829   9.036  69.307  1.00  0.00    -0.139 A  
HETATM   23  C   UNL     1     -10.563   6.798  66.656  1.00  0.00    -0.208 C  
HETATM   24  C   UNL     1     -10.166   8.056  67.291  1.00  0.00    -0.275 C  
HETATM   25  C   UNL     1      -9.168   8.002  68.401  1.00  0.00    -0.135 A  
HETATM   26  C   UNL     1      -8.470   6.775  68.492  1.00  0.00    -0.123 A  
HETATM   27  C   UNL     1      -9.841   5.703  66.884  1.00  0.00    -0.159 C  
HETATM   28  C   UNL     1      -7.402   6.603  69.380  1.00  0.00    -0.092 A  
HETATM   29  O   UNL     1      -8.759   5.655  67.737  1.00  0.00    -0.109 OA 
HETATM   30  C   UNL     1      -7.020   7.645  70.209  1.00  0.00    -0.051 A  
HETATM   31  C   UNL     1     -10.203   4.488  66.107  1.00  0.00    -0.254 C  
HETATM   32  O   UNL     1      -9.405   3.439  66.399  1.00  0.00    -0.170 OA 
HETATM   33  C   UNL     1      -7.743   8.835  70.187  1.00  0.00    -0.084 A  
HETATM   34  O   UNL     1     -10.623   9.072  66.789  1.00  0.00    -0.228 OA 
HETATM   35  O   UNL     1     -11.107   4.431  65.289  1.00  0.00    -0.203 OA 
ENDBRANCH  21  22
ENDBRANCH  20  21
ENDBRANCH   2  20
TORSDOF 6
ENDMDL
MODEL      184
REMARK 921   NORMALIZED FREE ENERGY PREDICTED BY IDOCK:   -5.66 KCAL/MOL
REMARK 922        TOTAL FREE ENERGY PREDICTED BY IDOCK:   -8.93 KCAL/MOL
REMARK 923 INTER-LIGAND FREE ENERGY PREDICTED BY IDOCK:   -8.37 KCAL/MOL
REMARK 924 INTRA-LIGAND FREE ENERGY PREDICTED BY IDOCK:   -0.56 KCAL/MOL
REMARK 927      BINDING AFFINITY PREDICTED BY RF-SCORE:    0.00 PKD
ROOT
HETATM    1  O   UNL     1      -5.573  15.188  67.534  1.00  0.00    -0.318 OA 
HETATM    2  C   UNL     1      -5.813  14.274  68.622  1.00  0.00    -0.086 C  
HETATM    3  H   UNL     1      -4.753  14.940  67.122  1.00  0.00     0.000 HD 
ENDROOT
BRANCH   2   4
HETATM    4  C   UNL     1      -5.852  12.851  68.066  1.00  0.00    -0.107 C  
BRANCH   4   5
HETATM    5  O   UNL     1      -6.856  12.099  68.759  1.00  0.00    -0.083 OA 
BRANCH   5   6
HETATM    6  C   UNL     1      -7.817  11.467  68.018  1.00  0.00    -0.121 A  
HETATM    7  O   UNL     1     -10.457   6.415  71.140  1.00  0.00    -0.211 OA 
HETATM    8  O   UNL     1     -11.331   6.360  69.056  1.00  0.00    -0.355 OA 
HETATM    9  C   UNL     1      -8.220  11.912  66.749  1.00  0.00    -0.129 A  
HETATM   10  C   UNL     1      -9.167  11.208  66.006  1.00  0.00    -0.223 A  
HETATM   11  C   UNL     1     -10.521   6.868  70.012  1.00  0.00    -0.207 C  
HETATM   12  C   UNL     1      -9.726  10.046  66.519  1.00  0.00    -0.254 A  
HETATM   13  O   UNL     1      -9.983   8.459  68.223  1.00  0.00    -0.174 OA 
HETATM   14  C   UNL     1      -9.746   8.037  69.514  1.00  0.00    -0.170 C  
HETATM   15  C   UNL     1      -9.352   9.599  67.786  1.00  0.00    -0.127 A  
HETATM   16  C   UNL     1      -8.873   8.610  70.351  1.00  0.00    -0.170 C  
HETATM   17  C   UNL     1      -8.401  10.297  68.543  1.00  0.00    -0.116 A  
HETATM   18  O   UNL     1      -7.268  10.255  70.663  1.00  0.00    -0.306 OA 
HETATM   19  C   UNL     1      -8.092   9.774  69.900  1.00  0.00    -0.182 C  
ENDBRANCH   5   6
ENDBRANCH   4   5
ENDBRANCH   2   4
BRANCH   2  20
HETATM   20  C   UNL     1      -7.135  14.674  69.285  1.00  0.00    -0.150 C  
BRANCH  20  21
HETATM   21  O   UNL     1      -7.355  16.068  69.357  1.00  0.00    -0.223 OA 
BRANCH  21  22
HETATM   22  C   UNL     1      -8.086  16.688  68.370  1.00  0.00    -0.208 A  
HETATM   23  C   UNL     1     -10.873  14.610  66.650  1.00  0.00    -0.312 C  
HETATM   24  C   UNL     1      -9.989  15.015  67.745  1.00  0.00    -0.229 C  
HETATM   25  C   UNL     1      -9.169  16.251  67.569  1.00  0.00    -0.206 A  
HETATM   26  C   UNL     1      -9.586  17.074  66.497  1.00  0.00    -0.278 A  
HETATM   27  C   UNL     1     -11.128  15.476  65.671  1.00  0.00    -0.235 C  
HETATM   28  C   UNL     1      -9.022  18.337  66.279  1.00  0.00    -0.197 A  
HETATM   29  O   UNL     1     -10.563  16.730  65.583  1.00  0.00    -0.417 OA 
HETATM   30  C   UNL     1      -8.017  18.796  67.115  1.00  0.00    -0.254 A  
HETATM   31  C   UNL     1     -12.139  15.066  64.661  1.00  0.00    -0.323 C  
HETATM   32  O   UNL     1     -12.336  16.016  63.721  1.00  0.00    -0.858 OA 
HETATM   33  C   UNL     1      -7.542  17.969  68.129  1.00  0.00    -0.260 A  
HETATM   34  O   UNL     1     -10.066  14.347  68.765  1.00  0.00    -0.236 OA 
HETATM   35  O   UNL     1     -12.738  14.003  64.670  1.00  0.00    -0.648 OA 
ENDBRANCH  21  22
ENDBRANCH  20  21
ENDBRANCH   2  20
TORSDOF 6
ENDMDL
MODEL      185
REMARK 921   NORMALIZED FREE ENERGY PREDICTED BY IDOCK:   -5.65 KCAL/MOL
REMARK 922        TOTAL FREE ENERGY PREDICTED BY IDOCK:   -8.93 KCAL/MOL
REMARK 923 INTER-LIGAND FREE ENERGY PREDICTED BY IDOCK:   -8.14 KCAL/MOL
REMARK 924 INTRA-LIGAND FREE ENERGY PREDICTED BY IDOCK:   -0.78 KCAL/MOL
REMARK 927      BINDING AFFINITY PREDICTED BY RF-SCORE:    0.00 PKD
ROOT
HETATM    1  O   UNL     1     -11.323  10.968  67.187  1.00  0.00    -0.399 OA 
HETATM    2  C   UNL     1     -12.047  11.964  67.934  1.00  0.00     0.089 C  
HETATM    3  H   UNL     1     -11.523  11.095  66.266  1.00  0.00     0.000 HD 
ENDROOT
BRANCH   2   4
HETATM    4  C   UNL     1     -11.631  13.348  67.437  1.00  0.00    -0.354 C  
BRANCH   4   5
HETATM    5  O   UNL     1     -10.857  14.003  68.451  1.00  0.00    -0.235 OA 
BRANCH   5   6
HETATM    6  C   UNL     1      -9.608  14.452  68.122  1.00  0.00    -0.218 A  
HETATM    7  O   UNL     1      -9.376  20.908  67.419  1.00  0.00    -0.365 OA 
HETATM    8  O   UNL     1      -7.337  20.160  66.792  1.00  0.00    -0.249 OA 
HETATM    9  C   UNL     1      -8.494  13.603  68.014  1.00  0.00    -0.174 A  
HETATM   10  C   UNL     1      -7.248  14.095  67.626  1.00  0.00    -0.195 A  
HETATM   11  C   UNL     1      -8.610  19.985  67.215  1.00  0.00    -0.335 C  
HETATM   12  C   UNL     1      -7.095  15.444  67.339  1.00  0.00    -0.229 A  
HETATM   13  O   UNL     1      -7.929  17.628  67.186  1.00  0.00    -0.202 OA 
HETATM   14  C   UNL     1      -8.934  18.546  67.406  1.00  0.00    -0.272 C  
HETATM   15  C   UNL     1      -8.185  16.306  67.460  1.00  0.00    -0.148 A  
HETATM   16  C   UNL     1     -10.179  18.231  67.784  1.00  0.00    -0.400 C  
HETATM   17  C   UNL     1      -9.443  15.824  67.848  1.00  0.00    -0.212 A  
HETATM   18  O   UNL     1     -11.692  16.547  68.293  1.00  0.00    -0.106 OA 
HETATM   19  C   UNL     1     -10.539  16.818  67.992  1.00  0.00    -0.347 C  
ENDBRANCH   5   6
ENDBRANCH   4   5
ENDBRANCH   2   4
BRANCH   2  20
HETATM   20  C   UNL     1     -11.724  11.760  69.419  1.00  0.00    -0.341 C  
BRANCH  20  21
HETATM   21  O   UNL     1     -10.691  10.830  69.669  1.00  0.00    -0.240 OA 
BRANCH  21  22
HETATM   22  C   UNL     1     -10.953   9.719  70.439  1.00  0.00    -0.312 A  
HETATM   23  C   UNL     1      -8.880   6.522  69.712  1.00  0.00    -0.143 C  
HETATM   24  C   UNL     1      -9.138   7.962  69.783  1.00  0.00    -0.146 C  
HETATM   25  C   UNL     1     -10.384   8.423  70.465  1.00  0.00    -0.220 A  
HETATM   26  C   UNL     1     -11.011   7.431  71.257  1.00  0.00    -0.242 A  
HETATM   27  C   UNL     1      -9.595   5.699  70.476  1.00  0.00    -0.174 C  
HETATM   28  C   UNL     1     -12.105   7.731  72.076  1.00  0.00    -0.351 A  
HETATM   29  O   UNL     1     -10.620   6.107  71.303  1.00  0.00    -0.226 OA 
HETATM   30  C   UNL     1     -12.610   9.021  72.109  1.00  0.00    -0.461 A  
HETATM   31  C   UNL     1      -9.200   4.266  70.469  1.00  0.00    -0.122 C  
HETATM   32  O   UNL     1      -9.975   3.519  71.284  1.00  0.00    -0.166 OA 
HETATM   33  C   UNL     1     -12.053   9.992  71.281  1.00  0.00    -0.487 A  
HETATM   34  O   UNL     1      -8.250   8.683  69.353  1.00  0.00    -0.109 OA 
HETATM   35  O   UNL     1      -8.278   3.804  69.816  1.00  0.00    -0.053 OA 
ENDBRANCH  21  22
ENDBRANCH  20  21
ENDBRANCH   2  20
TORSDOF 6
ENDMDL
MODEL      186
REMARK 921   NORMALIZED FREE ENERGY PREDICTED BY IDOCK:   -5.64 KCAL/MOL
REMARK 922        TOTAL FREE ENERGY PREDICTED BY IDOCK:   -8.92 KCAL/MOL
REMARK 923 INTER-LIGAND FREE ENERGY PREDICTED BY IDOCK:   -7.79 KCAL/MOL
REMARK 924 INTRA-LIGAND FREE ENERGY PREDICTED BY IDOCK:   -1.13 KCAL/MOL
REMARK 927      BINDING AFFINITY PREDICTED BY RF-SCORE:    0.00 PKD
ROOT
HETATM    1  O   UNL     1      -8.119  10.709  64.137  1.00  0.00    -0.329 OA 
HETATM    2  C   UNL     1      -7.883  10.165  65.450  1.00  0.00    -0.142 C  
HETATM    3  H   UNL     1      -7.729  10.118  63.503  1.00  0.00     0.000 HD 
ENDROOT
BRANCH   2   4
HETATM    4  C   UNL     1      -8.491   8.764  65.515  1.00  0.00    -0.165 C  
BRANCH   4   5
HETATM    5  O   UNL     1      -7.966   8.073  66.656  1.00  0.00    -0.099 OA 
BRANCH   5   6
HETATM    6  C   UNL     1      -8.769   7.162  67.286  1.00  0.00    -0.120 A  
HETATM    7  O   UNL     1      -9.110   8.147  73.701  1.00  0.00    -0.257 OA 
HETATM    8  O   UNL     1     -10.225   6.216  73.327  1.00  0.00    -0.185 OA 
HETATM    9  C   UNL     1      -9.484   6.169  66.599  1.00  0.00    -0.173 A  
HETATM   10  C   UNL     1     -10.251   5.227  67.284  1.00  0.00    -0.252 A  
HETATM   11  C   UNL     1      -9.489   7.280  72.934  1.00  0.00    -0.159 C  
HETATM   12  C   UNL     1     -10.316   5.264  68.670  1.00  0.00    -0.193 A  
HETATM   13  O   UNL     1      -9.779   6.231  70.735  1.00  0.00    -0.177 OA 
HETATM   14  C   UNL     1      -9.223   7.258  71.471  1.00  0.00    -0.144 C  
HETATM   15  C   UNL     1      -9.628   6.256  69.369  1.00  0.00    -0.141 A  
HETATM   16  C   UNL     1      -8.468   8.236  70.957  1.00  0.00    -0.150 C  
HETATM   17  C   UNL     1      -8.853   7.207  68.691  1.00  0.00    -0.126 A  
HETATM   18  O   UNL     1      -7.460   9.129  69.069  1.00  0.00    -0.072 OA 
HETATM   19  C   UNL     1      -8.188   8.254  69.511  1.00  0.00    -0.119 C  
ENDBRANCH   5   6
ENDBRANCH   4   5
ENDBRANCH   2   4
BRANCH   2  20
HETATM   20  C   UNL     1      -8.513  11.119  66.471  1.00  0.00    -0.165 C  
BRANCH  20  21
HETATM   21  O   UNL     1      -9.781  11.619  66.098  1.00  0.00    -0.216 OA 
BRANCH  21  22
HETATM   22  C   UNL     1     -10.218  12.814  66.624  1.00  0.00    -0.238 A  
HETATM   23  C   UNL     1     -12.071  12.686  70.029  1.00  0.00    -0.339 C  
HETATM   24  C   UNL     1     -11.117  12.248  69.008  1.00  0.00    -0.236 C  
HETATM   25  C   UNL     1     -10.890  13.136  67.828  1.00  0.00    -0.261 A  
HETATM   26  C   UNL     1     -11.374  14.454  67.994  1.00  0.00    -0.294 A  
HETATM   27  C   UNL     1     -12.489  13.950  70.024  1.00  0.00    -0.266 C  
HETATM   28  C   UNL     1     -11.119  15.454  67.049  1.00  0.00    -0.273 A  
HETATM   29  O   UNL     1     -12.125  14.880  69.073  1.00  0.00    -0.282 OA 
HETATM   30  C   UNL     1     -10.391  15.155  65.908  1.00  0.00    -0.344 A  
HETATM   31  C   UNL     1     -13.346  14.377  71.161  1.00  0.00    -0.331 C  
HETATM   32  O   UNL     1     -13.704  15.676  71.071  1.00  0.00    -0.582 OA 
HETATM   33  C   UNL     1      -9.970  13.845  65.692  1.00  0.00    -0.298 A  
HETATM   34  O   UNL     1     -10.507  11.219  69.257  1.00  0.00    -0.197 OA 
HETATM   35  O   UNL     1     -13.687  13.653  72.082  1.00  0.00    -0.467 OA 
ENDBRANCH  21  22
ENDBRANCH  20  21
ENDBRANCH   2  20
TORSDOF 6
ENDMDL
MODEL      187
REMARK 921   NORMALIZED FREE ENERGY PREDICTED BY IDOCK:   -5.63 KCAL/MOL
REMARK 922        TOTAL FREE ENERGY PREDICTED BY IDOCK:   -8.90 KCAL/MOL
REMARK 923 INTER-LIGAND FREE ENERGY PREDICTED BY IDOCK:   -8.20 KCAL/MOL
REMARK 924 INTRA-LIGAND FREE ENERGY PREDICTED BY IDOCK:   -0.70 KCAL/MOL
REMARK 927      BINDING AFFINITY PREDICTED BY RF-SCORE:    0.00 PKD
ROOT
HETATM    1  O   UNL     1     -11.254   6.909  67.186  1.00  0.00    -0.583 OA 
HETATM    2  C   UNL     1     -10.161   7.788  66.855  1.00  0.00    -0.303 C  
HETATM    3  H   UNL     1     -11.046   6.047  66.844  1.00  0.00     0.000 HD 
ENDROOT
BRANCH   2   4
HETATM    4  C   UNL     1      -8.876   7.221  67.457  1.00  0.00    -0.119 C  
BRANCH   4   5
HETATM    5  O   UNL     1      -9.125   6.817  68.810  1.00  0.00    -0.133 OA 
BRANCH   5   6
HETATM    6  C   UNL     1      -8.117   6.198  69.496  1.00  0.00    -0.112 A  
HETATM    7  O   UNL     1     -10.292   1.545  73.478  1.00  0.00    -0.084 OA 
HETATM    8  O   UNL     1      -8.078   1.718  73.905  1.00  0.00    -0.044 OA 
HETATM    9  C   UNL     1      -6.760   6.504  69.302  1.00  0.00    -0.052 A  
HETATM   10  C   UNL     1      -5.766   5.886  70.060  1.00  0.00    -0.016 A  
HETATM   11  C   UNL     1      -9.219   2.085  73.278  1.00  0.00    -0.072 C  
HETATM   12  C   UNL     1      -6.113   4.950  71.025  1.00  0.00    -0.018 A  
HETATM   13  O   UNL     1      -7.696   3.660  72.172  1.00  0.00    -0.057 OA 
HETATM   14  C   UNL     1      -8.989   3.202  72.323  1.00  0.00    -0.094 C  
HETATM   15  C   UNL     1      -7.454   4.619  71.218  1.00  0.00    -0.075 A  
HETATM   16  C   UNL     1     -10.047   3.690  71.665  1.00  0.00    -0.132 C  
HETATM   17  C   UNL     1      -8.462   5.234  70.463  1.00  0.00    -0.120 A  
HETATM   18  O   UNL     1     -10.845   5.253  70.148  1.00  0.00    -0.240 OA 
HETATM   19  C   UNL     1      -9.861   4.791  70.704  1.00  0.00    -0.222 C  
ENDBRANCH   5   6
ENDBRANCH   4   5
ENDBRANCH   2   4
BRANCH   2  20
HETATM   20  C   UNL     1     -10.497   9.178  67.408  1.00  0.00    -0.271 C  
BRANCH  20  21
HETATM   21  O   UNL     1     -10.128   9.374  68.758  1.00  0.00    -0.180 OA 
BRANCH  21  22
HETATM   22  C   UNL     1     -11.092   9.713  69.680  1.00  0.00    -0.193 A  
HETATM   23  C   UNL     1     -12.154  13.440  69.853  1.00  0.00    -0.389 C  
HETATM   24  C   UNL     1     -11.664  12.217  69.214  1.00  0.00    -0.330 C  
HETATM   25  C   UNL     1     -11.722  10.943  69.991  1.00  0.00    -0.427 A  
HETATM   26  C   UNL     1     -12.550  11.001  71.137  1.00  0.00    -0.418 A  
HETATM   27  C   UNL     1     -12.875  13.342  70.968  1.00  0.00    -0.251 C  
HETATM   28  C   UNL     1     -12.831   9.860  71.897  1.00  0.00    -0.524 A  
HETATM   29  O   UNL     1     -13.150  12.153  71.609  1.00  0.00    -0.418 OA 
HETATM   30  C   UNL     1     -12.277   8.641  71.542  1.00  0.00    -0.368 A  
HETATM   31  C   UNL     1     -13.464  14.600  71.498  1.00  0.00    -0.388 C  
HETATM   32  O   UNL     1     -14.186  14.393  72.620  1.00  0.00    -0.531 OA 
HETATM   33  C   UNL     1     -11.400   8.579  70.462  1.00  0.00    -0.235 A  
HETATM   34  O   UNL     1     -11.329  12.326  68.044  1.00  0.00    -0.250 OA 
HETATM   35  O   UNL     1     -13.329  15.699  70.984  1.00  0.00    -0.545 OA 
ENDBRANCH  21  22
ENDBRANCH  20  21
ENDBRANCH   2  20
TORSDOF 6
ENDMDL
MODEL      188
REMARK 921   NORMALIZED FREE ENERGY PREDICTED BY IDOCK:   -5.61 KCAL/MOL
REMARK 922        TOTAL FREE ENERGY PREDICTED BY IDOCK:   -8.87 KCAL/MOL
REMARK 923 INTER-LIGAND FREE ENERGY PREDICTED BY IDOCK:   -7.95 KCAL/MOL
REMARK 924 INTRA-LIGAND FREE ENERGY PREDICTED BY IDOCK:   -0.92 KCAL/MOL
REMARK 927      BINDING AFFINITY PREDICTED BY RF-SCORE:    0.00 PKD
ROOT
HETATM    1  O   UNL     1      -6.806  10.693  64.481  1.00  0.00    -0.350 OA 
HETATM    2  C   UNL     1      -8.071  10.420  65.113  1.00  0.00    -0.145 C  
HETATM    3  H   UNL     1      -6.759  11.628  64.318  1.00  0.00     0.000 HD 
ENDROOT
BRANCH   2   4
HETATM    4  C   UNL     1      -8.162  11.237  66.401  1.00  0.00    -0.150 C  
BRANCH   4   5
HETATM    5  O   UNL     1      -8.563  12.576  66.085  1.00  0.00     0.124 OA 
BRANCH   5   6
HETATM    6  C   UNL     1      -9.894  12.886  66.152  1.00  0.00    -0.270 A  
HETATM    7  O   UNL     1     -11.404  16.281  71.484  1.00  0.00    -0.338 OA 
HETATM    8  O   UNL     1     -13.378  15.826  70.479  1.00  0.00    -0.418 OA 
HETATM    9  C   UNL     1     -10.808  12.553  65.140  1.00  0.00    -0.323 A  
HETATM   10  C   UNL     1     -12.166  12.842  65.271  1.00  0.00    -0.524 A  
HETATM   11  C   UNL     1     -12.032  15.748  70.587  1.00  0.00    -0.393 C  
HETATM   12  C   UNL     1     -12.632  13.469  66.418  1.00  0.00    -0.244 A  
HETATM   13  O   UNL     1     -12.286  14.470  68.508  1.00  0.00    -0.254 OA 
HETATM   14  C   UNL     1     -11.435  14.954  69.480  1.00  0.00    -0.297 C  
HETATM   15  C   UNL     1     -11.736  13.825  67.426  1.00  0.00    -0.382 A  
HETATM   16  C   UNL     1     -10.110  14.764  69.491  1.00  0.00    -0.065 C  
HETATM   17  C   UNL     1     -10.369  13.539  67.306  1.00  0.00    -0.241 A  
HETATM   18  O   UNL     1      -8.275  13.790  68.460  1.00  0.00    -0.150 OA 
HETATM   19  C   UNL     1      -9.478  13.990  68.408  1.00  0.00    -0.213 C  
ENDBRANCH   5   6
ENDBRANCH   4   5
ENDBRANCH   2   4
BRANCH   2  20
HETATM   20  C   UNL     1      -8.146   8.912  65.376  1.00  0.00    -0.119 C  
BRANCH  20  21
HETATM   21  O   UNL     1      -8.061   8.552  66.740  1.00  0.00    -0.097 OA 
BRANCH  21  22
HETATM   22  C   UNL     1      -8.979   7.671  67.265  1.00  0.00    -0.127 A  
HETATM   23  C   UNL     1     -10.917   8.799  70.429  1.00  0.00    -0.262 C  
HETATM   24  C   UNL     1     -10.205   8.978  69.162  1.00  0.00    -0.205 C  
HETATM   25  C   UNL     1      -9.861   7.760  68.369  1.00  0.00    -0.180 A  
HETATM   26  C   UNL     1     -10.554   6.594  68.769  1.00  0.00    -0.236 A  
HETATM   27  C   UNL     1     -11.471   7.619  70.699  1.00  0.00    -0.258 C  
HETATM   28  C   UNL     1     -10.461   5.400  68.045  1.00  0.00    -0.192 A  
HETATM   29  O   UNL     1     -11.372   6.514  69.880  1.00  0.00    -0.359 OA 
HETATM   30  C   UNL     1      -9.659   5.339  66.917  1.00  0.00    -0.153 A  
HETATM   31  C   UNL     1     -12.299   7.533  71.931  1.00  0.00    -0.310 C  
HETATM   32  O   UNL     1     -12.827   6.303  72.106  1.00  0.00    -0.171 OA 
HETATM   33  C   UNL     1      -8.910   6.455  66.551  1.00  0.00    -0.140 A  
HETATM   34  O   UNL     1     -10.030  10.134  68.809  1.00  0.00    -0.165 OA 
HETATM   35  O   UNL     1     -12.498   8.460  72.699  1.00  0.00    -0.349 OA 
ENDBRANCH  21  22
ENDBRANCH  20  21
ENDBRANCH   2  20
TORSDOF 6
ENDMDL
MODEL      189
REMARK 921   NORMALIZED FREE ENERGY PREDICTED BY IDOCK:   -5.60 KCAL/MOL
REMARK 922        TOTAL FREE ENERGY PREDICTED BY IDOCK:   -8.87 KCAL/MOL
REMARK 923 INTER-LIGAND FREE ENERGY PREDICTED BY IDOCK:   -8.81 KCAL/MOL
REMARK 924 INTRA-LIGAND FREE ENERGY PREDICTED BY IDOCK:   -0.06 KCAL/MOL
REMARK 927      BINDING AFFINITY PREDICTED BY RF-SCORE:    0.00 PKD
ROOT
HETATM    1  O   UNL     1     -12.670  12.487  63.300  1.00  0.00    -0.678 OA 
HETATM    2  C   UNL     1     -12.595  12.867  64.688  1.00  0.00    -0.391 C  
HETATM    3  H   UNL     1     -13.053  13.214  62.821  1.00  0.00     0.000 HD 
ENDROOT
BRANCH   2   4
HETATM    4  C   UNL     1     -11.758  14.141  64.802  1.00  0.00    -0.410 C  
BRANCH   4   5
HETATM    5  O   UNL     1     -10.851  14.014  65.905  1.00  0.00    -0.283 OA 
BRANCH   5   6
HETATM    6  C   UNL     1     -10.657  15.102  66.710  1.00  0.00    -0.298 A  
HETATM    7  O   UNL     1     -12.739  14.116  72.787  1.00  0.00    -0.343 OA 
HETATM    8  O   UNL     1     -12.133  16.293  72.703  1.00  0.00    -0.509 OA 
HETATM    9  C   UNL     1     -10.018  16.273  66.273  1.00  0.00    -0.335 A  
HETATM   10  C   UNL     1      -9.886  17.379  67.112  1.00  0.00    -0.278 A  
HETATM   11  C   UNL     1     -12.326  15.072  72.155  1.00  0.00    -0.355 C  
HETATM   12  C   UNL     1     -10.391  17.333  68.403  1.00  0.00    -0.366 A  
HETATM   13  O   UNL     1     -11.450  16.207  70.165  1.00  0.00    -0.340 OA 
HETATM   14  C   UNL     1     -11.961  15.050  70.713  1.00  0.00    -0.318 C  
HETATM   15  C   UNL     1     -11.011  16.171  68.863  1.00  0.00    -0.324 A  
HETATM   16  C   UNL     1     -12.144  13.908  70.039  1.00  0.00    -0.411 C  
HETATM   17  C   UNL     1     -11.151  15.053  68.029  1.00  0.00    -0.304 A  
HETATM   18  O   UNL     1     -12.004  12.805  68.004  1.00  0.00    -0.346 OA 
HETATM   19  C   UNL     1     -11.787  13.842  68.612  1.00  0.00    -0.374 C  
ENDBRANCH   5   6
ENDBRANCH   4   5
ENDBRANCH   2   4
BRANCH   2  20
HETATM   20  C   UNL     1     -11.977  11.696  65.460  1.00  0.00     0.401 C  
BRANCH  20  21
HETATM   21  O   UNL     1     -10.647  11.392  65.094  1.00  0.00    -0.284 OA 
BRANCH  21  22
HETATM   22  C   UNL     1     -10.045  10.265  65.606  1.00  0.00    -0.271 A  
HETATM   23  C   UNL     1      -7.747   8.238  63.228  1.00  0.00    -0.142 C  
HETATM   24  C   UNL     1      -8.404   9.437  63.754  1.00  0.00    -0.183 C  
HETATM   25  C   UNL     1      -9.147   9.326  65.045  1.00  0.00    -0.245 A  
HETATM   26  C   UNL     1      -8.854   8.154  65.782  1.00  0.00    -0.135 A  
HETATM   27  C   UNL     1      -7.595   7.183  64.025  1.00  0.00    -0.113 C  
HETATM   28  C   UNL     1      -9.350   7.959  67.076  1.00  0.00    -0.200 A  
HETATM   29  O   UNL     1      -8.071   7.115  65.317  1.00  0.00    -0.125 OA 
HETATM   30  C   UNL     1     -10.165   8.919  67.655  1.00  0.00    -0.296 A  
HETATM   31  C   UNL     1      -6.800   6.047  63.488  1.00  0.00    -0.037 C  
HETATM   32  O   UNL     1      -6.692   5.035  64.375  1.00  0.00    -0.045 OA 
HETATM   33  C   UNL     1     -10.525  10.043  66.916  1.00  0.00    -0.284 A  
HETATM   34  O   UNL     1      -8.208  10.468  63.129  1.00  0.00    -0.160 OA 
HETATM   35  O   UNL     1      -6.289   6.021  62.380  1.00  0.00    -0.028 OA 
ENDBRANCH  21  22
ENDBRANCH  20  21
ENDBRANCH   2  20
TORSDOF 6
ENDMDL
MODEL      190
REMARK 921   NORMALIZED FREE ENERGY PREDICTED BY IDOCK:   -5.60 KCAL/MOL
REMARK 922        TOTAL FREE ENERGY PREDICTED BY IDOCK:   -8.86 KCAL/MOL
REMARK 923 INTER-LIGAND FREE ENERGY PREDICTED BY IDOCK:   -6.45 KCAL/MOL
REMARK 924 INTRA-LIGAND FREE ENERGY PREDICTED BY IDOCK:   -2.40 KCAL/MOL
REMARK 927      BINDING AFFINITY PREDICTED BY RF-SCORE:    0.00 PKD
ROOT
HETATM    1  O   UNL     1     -12.876  11.142  71.948  1.00  0.00    -0.411 OA 
HETATM    2  C   UNL     1     -12.153   9.965  71.535  1.00  0.00    -0.410 C  
HETATM    3  H   UNL     1     -12.385  11.901  71.656  1.00  0.00     0.000 HD 
ENDROOT
BRANCH   2   4
HETATM    4  C   UNL     1     -11.989  10.000  70.016  1.00  0.00    -0.074 C  
BRANCH   4   5
HETATM    5  O   UNL     1     -10.626  10.305  69.694  1.00  0.00    -0.224 OA 
BRANCH   5   6
HETATM    6  C   UNL     1     -10.007   9.559  68.729  1.00  0.00    -0.174 A  
HETATM    7  O   UNL     1      -5.253   5.831  71.124  1.00  0.00    -0.011 OA 
HETATM    8  O   UNL     1      -5.138   5.586  68.879  1.00  0.00     0.000 OA 
HETATM    9  C   UNL     1     -10.408   9.563  67.384  1.00  0.00    -0.319 A  
HETATM   10  C   UNL     1      -9.717   8.826  66.423  1.00  0.00    -0.335 A  
HETATM   11  C   UNL     1      -5.652   6.120  70.010  1.00  0.00    -0.013 C  
HETATM   12  C   UNL     1      -8.611   8.073  66.792  1.00  0.00    -0.133 A  
HETATM   13  O   UNL     1      -7.124   7.243  68.401  1.00  0.00    -0.076 OA 
HETATM   14  C   UNL     1      -6.755   7.075  69.719  1.00  0.00    -0.049 C  
HETATM   15  C   UNL     1      -8.208   8.042  68.127  1.00  0.00    -0.126 A  
HETATM   16  C   UNL     1      -7.324   7.706  70.752  1.00  0.00    -0.067 C  
HETATM   17  C   UNL     1      -8.895   8.778  69.102  1.00  0.00    -0.137 A  
HETATM   18  O   UNL     1      -8.901   9.254  71.459  1.00  0.00    -0.317 OA 
HETATM   19  C   UNL     1      -8.425   8.654  70.507  1.00  0.00    -0.150 C  
ENDBRANCH   5   6
ENDBRANCH   4   5
ENDBRANCH   2   4
BRANCH   2  20
HETATM   20  C   UNL     1     -12.946   8.741  72.006  1.00  0.00    -0.390 C  
BRANCH  20  21
HETATM   21  O   UNL     1     -12.603   7.536  71.352  1.00  0.00    -0.336 OA 
BRANCH  21  22
HETATM   22  C   UNL     1     -11.450   6.877  71.712  1.00  0.00    -0.275 A  
HETATM   23  C   UNL     1      -9.900   4.454  69.111  1.00  0.00    -0.198 C  
HETATM   24  C   UNL     1     -10.654   5.624  69.566  1.00  0.00    -0.314 C  
HETATM   25  C   UNL     1     -10.619   5.962  71.020  1.00  0.00    -0.312 A  
HETATM   26  C   UNL     1      -9.593   5.308  71.743  1.00  0.00    -0.150 A  
HETATM   27  C   UNL     1      -9.004   3.903  69.928  1.00  0.00    -0.098 C  
HETATM   28  C   UNL     1      -9.327   5.619  73.081  1.00  0.00    -0.139 A  
HETATM   29  O   UNL     1      -8.773   4.328  71.219  1.00  0.00    -0.098 OA 
HETATM   30  C   UNL     1     -10.090   6.574  73.733  1.00  0.00    -0.297 A  
HETATM   31  C   UNL     1      -8.170   2.808  69.368  1.00  0.00    -0.050 C  
HETATM   32  O   UNL     1      -7.286   2.328  70.268  1.00  0.00    -0.033 OA 
HETATM   33  C   UNL     1     -11.152   7.173  73.061  1.00  0.00    -0.323 A  
HETATM   34  O   UNL     1     -11.182   6.290  68.689  1.00  0.00    -0.356 OA 
HETATM   35  O   UNL     1      -8.254   2.387  68.225  1.00  0.00    -0.057 OA 
ENDBRANCH  21  22
ENDBRANCH  20  21
ENDBRANCH   2  20
TORSDOF 6
ENDMDL
MODEL      191
REMARK 921   NORMALIZED FREE ENERGY PREDICTED BY IDOCK:   -5.59 KCAL/MOL
REMARK 922        TOTAL FREE ENERGY PREDICTED BY IDOCK:   -8.84 KCAL/MOL
REMARK 923 INTER-LIGAND FREE ENERGY PREDICTED BY IDOCK:   -7.31 KCAL/MOL
REMARK 924 INTRA-LIGAND FREE ENERGY PREDICTED BY IDOCK:   -1.54 KCAL/MOL
REMARK 927      BINDING AFFINITY PREDICTED BY RF-SCORE:    0.00 PKD
ROOT
HETATM    1  O   UNL     1      -5.976  19.642  64.093  1.00  0.00    -0.262 OA 
HETATM    2  C   UNL     1      -6.733  19.403  65.295  1.00  0.00    -0.231 C  
HETATM    3  H   UNL     1      -6.182  20.519  63.791  1.00  0.00     0.000 HD 
ENDROOT
BRANCH   2   4
HETATM    4  C   UNL     1      -6.367  20.472  66.325  1.00  0.00    -0.221 C  
BRANCH   4   5
HETATM    5  O   UNL     1      -7.453  20.632  67.247  1.00  0.00    -0.325 OA 
BRANCH   5   6
HETATM    6  C   UNL     1      -8.678  20.138  66.895  1.00  0.00    -0.329 A  
HETATM    7  O   UNL     1     -10.684  15.385  70.848  1.00  0.00    -0.301 OA 
HETATM    8  O   UNL     1     -12.220  15.480  69.191  1.00  0.00    -0.279 OA 
HETATM    9  C   UNL     1      -9.435  20.655  65.832  1.00  0.00     0.239 A  
HETATM   10  C   UNL     1     -10.658  20.089  65.474  1.00  0.00    -0.300 A  
HETATM   11  C   UNL     1     -11.075  15.866  69.799  1.00  0.00    -0.324 C  
HETATM   12  C   UNL     1     -11.145  18.994  66.174  1.00  0.00     0.159 A  
HETATM   13  O   UNL     1     -10.994  17.415  67.899  1.00  0.00    -0.332 OA 
HETATM   14  C   UNL     1     -10.382  16.941  69.040  1.00  0.00    -0.333 C  
HETATM   15  C   UNL     1     -10.416  18.478  67.246  1.00  0.00    -0.419 A  
HETATM   16  C   UNL     1      -9.212  17.385  69.514  1.00  0.00     0.509 C  
HETATM   17  C   UNL     1      -9.185  19.039  67.615  1.00  0.00    -0.333 A  
HETATM   18  O   UNL     1      -7.408  18.814  69.219  1.00  0.00    -0.237 OA 
HETATM   19  C   UNL     1      -8.496  18.454  68.796  1.00  0.00    -0.228 C  
ENDBRANCH   5   6
ENDBRANCH   4   5
ENDBRANCH   2   4
BRANCH   2  20
HETATM   20  C   UNL     1      -6.400  17.989  65.783  1.00  0.00    -0.252 C  
BRANCH  20  21
HETATM   21  O   UNL     1      -7.506  17.110  65.825  1.00  0.00    -0.338 OA 
BRANCH  21  22
HETATM   22  C   UNL     1      -7.446  15.985  66.616  1.00  0.00    -0.123 A  
HETATM   23  C   UNL     1     -10.592  13.720  66.729  1.00  0.00    -0.273 C  
HETATM   24  C   UNL     1      -9.645  14.665  66.134  1.00  0.00    -0.307 C  
HETATM   25  C   UNL     1      -8.375  14.946  66.867  1.00  0.00    -0.212 A  
HETATM   26  C   UNL     1      -8.080  14.016  67.892  1.00  0.00    -0.156 A  
HETATM   27  C   UNL     1     -10.188  12.946  67.734  1.00  0.00    -0.224 C  
HETATM   28  C   UNL     1      -6.862  14.046  68.581  1.00  0.00    -0.103 A  
HETATM   29  O   UNL     1      -8.935  13.013  68.304  1.00  0.00    -0.194 OA 
HETATM   30  C   UNL     1      -5.920  15.015  68.276  1.00  0.00    -0.124 A  
HETATM   31  C   UNL     1     -11.143  11.910  68.207  1.00  0.00    -0.239 C  
HETATM   32  O   UNL     1     -10.635  11.171  69.216  1.00  0.00    -0.217 OA 
HETATM   33  C   UNL     1      -6.224  15.985  67.323  1.00  0.00    -0.155 A  
HETATM   34  O   UNL     1      -9.936  15.082  65.023  1.00  0.00    -0.307 OA 
HETATM   35  O   UNL     1     -12.256  11.728  67.742  1.00  0.00    -0.536 OA 
ENDBRANCH  21  22
ENDBRANCH  20  21
ENDBRANCH   2  20
TORSDOF 6
ENDMDL
MODEL      192
REMARK 921   NORMALIZED FREE ENERGY PREDICTED BY IDOCK:   -5.59 KCAL/MOL
REMARK 922        TOTAL FREE ENERGY PREDICTED BY IDOCK:   -8.84 KCAL/MOL
REMARK 923 INTER-LIGAND FREE ENERGY PREDICTED BY IDOCK:   -7.00 KCAL/MOL
REMARK 924 INTRA-LIGAND FREE ENERGY PREDICTED BY IDOCK:   -1.84 KCAL/MOL
REMARK 927      BINDING AFFINITY PREDICTED BY RF-SCORE:    0.00 PKD
ROOT
HETATM    1  O   UNL     1     -13.403  14.293  65.228  1.00  0.00    -0.660 OA 
HETATM    2  C   UNL     1     -12.174  13.729  65.728  1.00  0.00    -0.462 C  
HETATM    3  H   UNL     1     -13.762  14.852  65.907  1.00  0.00     0.000 HD 
ENDROOT
BRANCH   2   4
HETATM    4  C   UNL     1     -11.228  14.871  66.098  1.00  0.00    -0.325 C  
BRANCH   4   5
HETATM    5  O   UNL     1     -10.660  14.615  67.390  1.00  0.00    -0.260 OA 
BRANCH   5   6
HETATM    6  C   UNL     1      -9.305  14.457  67.481  1.00  0.00    -0.198 A  
HETATM    7  O   UNL     1      -7.617   8.582  69.688  1.00  0.00    -0.083 OA 
HETATM    8  O   UNL     1      -5.687   9.752  69.552  1.00  0.00    -0.034 OA 
HETATM    9  C   UNL     1      -8.391  15.444  67.078  1.00  0.00    -0.268 A  
HETATM   10  C   UNL     1      -7.017  15.262  67.235  1.00  0.00    -0.152 A  
HETATM   11  C   UNL     1      -7.030   9.621  69.447  1.00  0.00    -0.056 C  
HETATM   12  C   UNL     1      -6.534  14.090  67.800  1.00  0.00    -0.181 A  
HETATM   13  O   UNL     1      -6.853  11.953  68.706  1.00  0.00    -0.080 OA 
HETATM   14  C   UNL     1      -7.674  10.883  68.994  1.00  0.00    -0.135 C  
HETATM   15  C   UNL     1      -7.426  13.090  68.188  1.00  0.00    -0.130 A  
HETATM   16  C   UNL     1      -9.008  10.900  68.889  1.00  0.00    -0.146 C  
HETATM   17  C   UNL     1      -8.809  13.261  68.036  1.00  0.00    -0.190 A  
HETATM   18  O   UNL     1     -10.905  12.139  68.390  1.00  0.00    -0.205 OA 
HETATM   19  C   UNL     1      -9.685  12.128  68.437  1.00  0.00    -0.193 C  
ENDBRANCH   5   6
ENDBRANCH   4   5
ENDBRANCH   2   4
BRANCH   2  20
HETATM   20  C   UNL     1     -11.595  12.827  64.632  1.00  0.00    -0.338 C  
BRANCH  20  21
HETATM   21  O   UNL     1     -11.284  11.516  65.059  1.00  0.00    -0.252 OA 
BRANCH  21  22
HETATM   22  C   UNL     1     -10.231  10.848  64.476  1.00  0.00    -0.356 A  
HETATM   23  C   UNL     1      -8.551   8.029  66.544  1.00  0.00    -0.148 C  
HETATM   24  C   UNL     1      -9.649   8.893  66.104  1.00  0.00    -0.265 C  
HETATM   25  C   UNL     1      -9.421   9.775  64.920  1.00  0.00    -0.331 A  
HETATM   26  C   UNL     1      -8.281   9.433  64.155  1.00  0.00    -0.158 A  
HETATM   27  C   UNL     1      -7.508   7.848  65.737  1.00  0.00    -0.078 C  
HETATM   28  C   UNL     1      -8.001  10.061  62.936  1.00  0.00    -0.139 A  
HETATM   29  O   UNL     1      -7.357   8.473  64.518  1.00  0.00    -0.087 OA 
HETATM   30  C   UNL     1      -8.841  11.058  62.464  1.00  0.00    -0.358 A  
HETATM   31  C   UNL     1      -6.490   6.854  66.170  1.00  0.00    -0.051 C  
HETATM   32  O   UNL     1      -5.483   6.734  65.280  1.00  0.00    -0.025 OA 
HETATM   33  C   UNL     1      -9.925  11.459  63.240  1.00  0.00    -0.431 A  
HETATM   34  O   UNL     1     -10.708   8.750  66.696  1.00  0.00    -0.171 OA 
HETATM   35  O   UNL     1      -6.549   6.207  67.203  1.00  0.00    -0.051 OA 
ENDBRANCH  21  22
ENDBRANCH  20  21
ENDBRANCH   2  20
TORSDOF 6
ENDMDL
MODEL      193
REMARK 921   NORMALIZED FREE ENERGY PREDICTED BY IDOCK:   -5.57 KCAL/MOL
REMARK 922        TOTAL FREE ENERGY PREDICTED BY IDOCK:   -8.82 KCAL/MOL
REMARK 923 INTER-LIGAND FREE ENERGY PREDICTED BY IDOCK:   -7.06 KCAL/MOL
REMARK 924 INTRA-LIGAND FREE ENERGY PREDICTED BY IDOCK:   -1.77 KCAL/MOL
REMARK 927      BINDING AFFINITY PREDICTED BY RF-SCORE:    0.00 PKD
ROOT
HETATM    1  O   UNL     1      -8.490  11.678  66.763  1.00  0.00    -0.169 OA 
HETATM    2  C   UNL     1      -8.166  10.277  66.856  1.00  0.00    -0.123 C  
HETATM    3  H   UNL     1      -9.265  11.760  66.219  1.00  0.00     0.000 HD 
ENDROOT
BRANCH   2   4
HETATM    4  C   UNL     1      -9.367   9.534  67.442  1.00  0.00    -0.130 C  
BRANCH   4   5
HETATM    5  O   UNL     1     -10.394  10.479  67.769  1.00  0.00    -0.189 OA 
BRANCH   5   6
HETATM    6  C   UNL     1     -11.017  10.362  68.981  1.00  0.00    -0.238 A  
HETATM    7  O   UNL     1     -13.628  15.962  70.996  1.00  0.00    -0.455 OA 
HETATM    8  O   UNL     1     -13.893  14.519  72.717  1.00  0.00    -0.540 OA 
HETATM    9  C   UNL     1     -11.126   9.145  69.671  1.00  0.00    -0.103 A  
HETATM   10  C   UNL     1     -11.725   9.079  70.929  1.00  0.00    -0.327 A  
HETATM   11  C   UNL     1     -13.452  14.860  71.485  1.00  0.00    -0.410 C  
HETATM   12  C   UNL     1     -12.225  10.232  71.518  1.00  0.00    -0.449 A  
HETATM   13  O   UNL     1     -12.694  12.527  71.488  1.00  0.00    -0.317 OA 
HETATM   14  C   UNL     1     -12.753  13.730  70.816  1.00  0.00    -0.290 C  
HETATM   15  C   UNL     1     -12.143  11.448  70.840  1.00  0.00    -0.277 A  
HETATM   16  C   UNL     1     -12.230  13.948  69.604  1.00  0.00    -0.374 C  
HETATM   17  C   UNL     1     -11.543  11.526  69.575  1.00  0.00    -0.400 A  
HETATM   18  O   UNL     1     -11.027  13.085  67.819  1.00  0.00    -0.239 OA 
HETATM   19  C   UNL     1     -11.536  12.854  68.904  1.00  0.00    -0.315 C  
ENDBRANCH   5   6
ENDBRANCH   4   5
ENDBRANCH   2   4
BRANCH   2  20
HETATM   20  C   UNL     1      -6.917  10.143  67.735  1.00  0.00    -0.084 C  
BRANCH  20  21
HETATM   21  O   UNL     1      -6.701   8.846  68.250  1.00  0.00    -0.063 OA 
BRANCH  21  22
HETATM   22  C   UNL     1      -6.797   8.633  69.607  1.00  0.00    -0.046 A  
HETATM   23  C   UNL     1      -9.428   6.054  70.820  1.00  0.00    -0.189 C  
HETATM   24  C   UNL     1      -8.459   6.640  69.892  1.00  0.00    -0.139 C  
HETATM   25  C   UNL     1      -7.608   7.767  70.380  1.00  0.00    -0.087 A  
HETATM   26  C   UNL     1      -7.603   7.921  71.786  1.00  0.00    -0.086 A  
HETATM   27  C   UNL     1      -9.336   6.339  72.117  1.00  0.00    -0.150 C  
HETATM   28  C   UNL     1      -6.750   8.832  72.421  1.00  0.00    -0.003 A  
HETATM   29  O   UNL     1      -8.411   7.210  72.652  1.00  0.00    -0.107 OA 
HETATM   30  C   UNL     1      -5.899   9.622  71.665  1.00  0.00     0.002 A  
HETATM   31  C   UNL     1     -10.255   5.610  73.031  1.00  0.00    -0.189 C  
HETATM   32  O   UNL     1     -10.074   5.959  74.322  1.00  0.00    -0.226 OA 
HETATM   33  C   UNL     1      -5.944   9.537  70.276  1.00  0.00    -0.047 A  
HETATM   34  O   UNL     1      -8.361   6.089  68.807  1.00  0.00    -0.106 OA 
HETATM   35  O   UNL     1     -11.076   4.782  72.672  1.00  0.00    -0.188 OA 
ENDBRANCH  21  22
ENDBRANCH  20  21
ENDBRANCH   2  20
TORSDOF 6
ENDMDL
MODEL      194
REMARK 921   NORMALIZED FREE ENERGY PREDICTED BY IDOCK:   -5.57 KCAL/MOL
REMARK 922        TOTAL FREE ENERGY PREDICTED BY IDOCK:   -8.81 KCAL/MOL
REMARK 923 INTER-LIGAND FREE ENERGY PREDICTED BY IDOCK:   -8.16 KCAL/MOL
REMARK 924 INTRA-LIGAND FREE ENERGY PREDICTED BY IDOCK:   -0.65 KCAL/MOL
REMARK 927      BINDING AFFINITY PREDICTED BY RF-SCORE:    0.00 PKD
ROOT
HETATM    1  O   UNL     1     -10.804  16.367  65.340  1.00  0.00    -0.333 OA 
HETATM    2  C   UNL     1     -10.634  15.160  66.110  1.00  0.00    -0.313 C  
HETATM    3  H   UNL     1     -11.722  16.611  65.384  1.00  0.00     0.000 HD 
ENDROOT
BRANCH   2   4
HETATM    4  C   UNL     1     -11.096  15.425  67.543  1.00  0.00    -0.315 C  
BRANCH   4   5
HETATM    5  O   UNL     1     -11.891  14.322  67.996  1.00  0.00    -0.332 OA 
BRANCH   5   6
HETATM    6  C   UNL     1     -12.166  14.228  69.332  1.00  0.00    -0.278 A  
HETATM    7  O   UNL     1     -12.334   8.076  71.421  1.00  0.00    -0.305 OA 
HETATM    8  O   UNL     1     -12.994   9.329  73.183  1.00  0.00    -0.001 OA 
HETATM    9  C   UNL     1     -12.328  15.349  70.160  1.00  0.00    -0.395 A  
HETATM   10  C   UNL     1     -12.658  15.209  71.508  1.00  0.00    -0.425 A  
HETATM   11  C   UNL     1     -12.604   9.163  71.899  1.00  0.00    -0.388 C  
HETATM   12  C   UNL     1     -12.831  13.944  72.050  1.00  0.00    -0.393 A  
HETATM   13  O   UNL     1     -12.816  11.607  71.880  1.00  0.00    -0.364 OA 
HETATM   14  C   UNL     1     -12.535  10.458  71.171  1.00  0.00    -0.404 C  
HETATM   15  C   UNL     1     -12.655  12.816  71.248  1.00  0.00    -0.250 A  
HETATM   16  C   UNL     1     -12.200  10.430  69.875  1.00  0.00    -0.215 C  
HETATM   17  C   UNL     1     -12.324  12.944  69.891  1.00  0.00    -0.156 A  
HETATM   18  O   UNL     1     -11.851  11.640  67.928  1.00  0.00    -0.543 OA 
HETATM   19  C   UNL     1     -12.114  11.691  69.119  1.00  0.00    -0.251 C  
ENDBRANCH   5   6
ENDBRANCH   4   5
ENDBRANCH   2   4
BRANCH   2  20
HETATM   20  C   UNL     1      -9.155  14.767  66.041  1.00  0.00    -0.026 C  
BRANCH  20  21
HETATM   21  O   UNL     1      -8.836  13.570  66.721  1.00  0.00    -0.213 OA 
BRANCH  21  22
HETATM   22  C   UNL     1      -9.217  12.363  66.180  1.00  0.00    -0.101 A  
HETATM   23  C   UNL     1      -7.759   9.151  67.792  1.00  0.00    -0.093 C  
HETATM   24  C   UNL     1      -8.230  10.538  67.762  1.00  0.00    -0.107 C  
HETATM   25  C   UNL     1      -8.908  11.025  66.524  1.00  0.00    -0.173 A  
HETATM   26  C   UNL     1      -9.314   9.995  65.643  1.00  0.00    -0.204 A  
HETATM   27  C   UNL     1      -8.181   8.304  66.856  1.00  0.00    -0.103 C  
HETATM   28  C   UNL     1     -10.089  10.264  64.508  1.00  0.00    -0.286 A  
HETATM   29  O   UNL     1      -9.000   8.660  65.806  1.00  0.00    -0.184 OA 
HETATM   30  C   UNL     1     -10.458  11.567  64.218  1.00  0.00    -0.393 A  
HETATM   31  C   UNL     1      -7.784   6.880  67.013  1.00  0.00    -0.103 C  
HETATM   32  O   UNL     1      -8.272   6.102  66.023  1.00  0.00    -0.115 OA 
HETATM   33  C   UNL     1     -10.005  12.602  65.032  1.00  0.00    -0.179 A  
HETATM   34  O   UNL     1      -8.110  11.163  68.805  1.00  0.00    -0.140 OA 
HETATM   35  O   UNL     1      -7.106   6.446  67.929  1.00  0.00    -0.079 OA 
ENDBRANCH  21  22
ENDBRANCH  20  21
ENDBRANCH   2  20
TORSDOF 6
ENDMDL
MODEL      195
REMARK 921   NORMALIZED FREE ENERGY PREDICTED BY IDOCK:   -5.56 KCAL/MOL
REMARK 922        TOTAL FREE ENERGY PREDICTED BY IDOCK:   -8.81 KCAL/MOL
REMARK 923 INTER-LIGAND FREE ENERGY PREDICTED BY IDOCK:   -5.87 KCAL/MOL
REMARK 924 INTRA-LIGAND FREE ENERGY PREDICTED BY IDOCK:   -2.94 KCAL/MOL
REMARK 927      BINDING AFFINITY PREDICTED BY RF-SCORE:    0.00 PKD
ROOT
HETATM    1  O   UNL     1     -10.436   4.902  73.748  1.00  0.00    -0.202 OA 
HETATM    2  C   UNL     1      -9.436   4.874  72.711  1.00  0.00    -0.135 C  
HETATM    3  H   UNL     1      -9.990   5.033  74.576  1.00  0.00     0.000 HD 
ENDROOT
BRANCH   2   4
HETATM    4  C   UNL     1      -8.657   6.188  72.746  1.00  0.00    -0.123 C  
BRANCH   4   5
HETATM    5  O   UNL     1      -7.633   6.160  71.743  1.00  0.00    -0.093 OA 
BRANCH   5   6
HETATM    6  C   UNL     1      -7.537   7.223  70.888  1.00  0.00    -0.084 A  
HETATM    7  O   UNL     1      -6.545   5.393  64.731  1.00  0.00    -0.041 OA 
HETATM    8  O   UNL     1      -6.378   7.648  64.724  1.00  0.00    -0.044 OA 
HETATM    9  C   UNL     1      -7.699   8.554  71.302  1.00  0.00    -0.126 A  
HETATM   10  C   UNL     1      -7.541   9.612  70.406  1.00  0.00    -0.176 A  
HETATM   11  C   UNL     1      -6.548   6.452  65.333  1.00  0.00    -0.043 C  
HETATM   12  C   UNL     1      -7.218   9.355  69.081  1.00  0.00    -0.066 A  
HETATM   13  O   UNL     1      -6.784   7.881  67.313  1.00  0.00    -0.065 OA 
HETATM   14  C   UNL     1      -6.748   6.602  66.799  1.00  0.00    -0.056 C  
HETATM   15  C   UNL     1      -7.072   8.038  68.647  1.00  0.00    -0.072 A  
HETATM   16  C   UNL     1      -6.888   5.488  67.528  1.00  0.00    -0.060 C  
HETATM   17  C   UNL     1      -7.227   6.966  69.538  1.00  0.00    -0.081 A  
HETATM   18  O   UNL     1      -7.175   4.564  69.636  1.00  0.00    -0.049 OA 
HETATM   19  C   UNL     1      -7.096   5.593  68.982  1.00  0.00    -0.068 C  
ENDBRANCH   5   6
ENDBRANCH   4   5
ENDBRANCH   2   4
BRANCH   2  20
HETATM   20  C   UNL     1     -10.155   4.662  71.374  1.00  0.00    -0.178 C  
BRANCH  20  21
HETATM   21  O   UNL     1     -11.156   5.618  71.091  1.00  0.00    -0.230 OA 
BRANCH  21  22
HETATM   22  C   UNL     1     -10.947   6.540  70.090  1.00  0.00    -0.317 A  
HETATM   23  C   UNL     1     -11.654  10.261  70.923  1.00  0.00    -0.454 C  
HETATM   24  C   UNL     1     -11.267   8.877  71.205  1.00  0.00    -0.298 C  
HETATM   25  C   UNL     1     -11.075   7.949  70.051  1.00  0.00    -0.165 A  
HETATM   26  C   UNL     1     -10.966   8.598  68.798  1.00  0.00     0.150 A  
HETATM   27  C   UNL     1     -11.555  10.719  69.676  1.00  0.00    -0.316 C  
HETATM   28  C   UNL     1     -10.641   7.894  67.633  1.00  0.00    -0.276 A  
HETATM   29  O   UNL     1     -11.161   9.951  68.601  1.00  0.00    -0.209 OA 
HETATM   30  C   UNL     1     -10.436   6.524  67.690  1.00  0.00    -0.284 A  
HETATM   31  C   UNL     1     -11.827  12.166  69.470  1.00  0.00    -0.321 C  
HETATM   32  O   UNL     1     -11.686  12.532  68.178  1.00  0.00    -0.317 OA 
HETATM   33  C   UNL     1     -10.613   5.858  68.899  1.00  0.00    -0.357 A  
HETATM   34  O   UNL     1     -11.039   8.618  72.377  1.00  0.00    -0.354 OA 
HETATM   35  O   UNL     1     -12.132  12.947  70.356  1.00  0.00    -0.361 OA 
ENDBRANCH  21  22
ENDBRANCH  20  21
ENDBRANCH   2  20
TORSDOF 6
ENDMDL
MODEL      196
REMARK 921   NORMALIZED FREE ENERGY PREDICTED BY IDOCK:   -5.56 KCAL/MOL
REMARK 922        TOTAL FREE ENERGY PREDICTED BY IDOCK:   -8.81 KCAL/MOL
REMARK 923 INTER-LIGAND FREE ENERGY PREDICTED BY IDOCK:   -7.54 KCAL/MOL
REMARK 924 INTRA-LIGAND FREE ENERGY PREDICTED BY IDOCK:   -1.27 KCAL/MOL
REMARK 927      BINDING AFFINITY PREDICTED BY RF-SCORE:    0.00 PKD
ROOT
HETATM    1  O   UNL     1     -12.860   7.336  70.499  1.00  0.00    -0.590 OA 
HETATM    2  C   UNL     1     -12.184   7.450  71.767  1.00  0.00    -0.326 C  
HETATM    3  H   UNL     1     -13.614   7.914  70.519  1.00  0.00     0.000 HD 
ENDROOT
BRANCH   2   4
HETATM    4  C   UNL     1     -11.788   8.911  71.980  1.00  0.00    -0.368 C  
BRANCH   4   5
HETATM    5  O   UNL     1     -11.391   9.482  70.727  1.00  0.00    -0.273 OA 
BRANCH   5   6
HETATM    6  C   UNL     1     -11.691  10.795  70.491  1.00  0.00    -0.351 A  
HETATM    7  O   UNL     1      -9.772  12.778  64.607  1.00  0.00    -0.059 OA 
HETATM    8  O   UNL     1     -10.525  14.635  65.653  1.00  0.00    -0.303 OA 
HETATM    9  C   UNL     1     -12.393  11.596  71.406  1.00  0.00    -0.201 A  
HETATM   10  C   UNL     1     -12.634  12.945  71.148  1.00  0.00    -0.373 A  
HETATM   11  C   UNL     1     -10.227  13.317  65.599  1.00  0.00    -0.289 C  
HETATM   12  C   UNL     1     -12.176  13.517  69.969  1.00  0.00    -0.381 A  
HETATM   13  O   UNL     1     -11.106  13.378  67.889  1.00  0.00    -0.250 OA 
HETATM   14  C   UNL     1     -10.537  12.628  66.881  1.00  0.00    -0.240 C  
HETATM   15  C   UNL     1     -11.493  12.732  69.039  1.00  0.00    -0.309 A  
HETATM   16  C   UNL     1     -10.249  11.325  66.975  1.00  0.00    -0.250 C  
HETATM   17  C   UNL     1     -11.244  11.375  69.288  1.00  0.00    -0.342 A  
HETATM   18  O   UNL     1     -10.236   9.426  68.307  1.00  0.00    -0.180 OA 
HETATM   19  C   UNL     1     -10.547  10.604  68.225  1.00  0.00    -0.194 C  
ENDBRANCH   5   6
ENDBRANCH   4   5
ENDBRANCH   2   4
BRANCH   2  20
HETATM   20  C   UNL     1     -10.968   6.518  71.734  1.00  0.00    -0.247 C  
BRANCH  20  21
HETATM   21  O   UNL     1     -10.764   5.868  70.495  1.00  0.00    -0.255 OA 
BRANCH  21  22
HETATM   22  C   UNL     1      -9.550   5.994  69.859  1.00  0.00    -0.158 A  
HETATM   23  C   UNL     1      -9.529   5.685  65.992  1.00  0.00    -0.129 C  
HETATM   24  C   UNL     1     -10.091   6.009  67.306  1.00  0.00    -0.169 C  
HETATM   25  C   UNL     1      -9.183   5.962  68.491  1.00  0.00    -0.119 A  
HETATM   26  C   UNL     1      -7.807   5.932  68.166  1.00  0.00    -0.105 A  
HETATM   27  C   UNL     1      -8.206   5.632  65.850  1.00  0.00    -0.119 C  
HETATM   28  C   UNL     1      -6.818   6.032  69.152  1.00  0.00    -0.062 A  
HETATM   29  O   UNL     1      -7.311   5.808  66.883  1.00  0.00    -0.077 OA 
HETATM   30  C   UNL     1      -7.181   6.144  70.484  1.00  0.00    -0.083 A  
HETATM   31  C   UNL     1      -7.688   5.437  64.470  1.00  0.00    -0.095 C  
HETATM   32  O   UNL     1      -6.339   5.412  64.430  1.00  0.00    -0.025 OA 
HETATM   33  C   UNL     1      -8.530   6.099  70.830  1.00  0.00    -0.131 A  
HETATM   34  O   UNL     1     -11.252   6.387  67.308  1.00  0.00    -0.364 OA 
HETATM   35  O   UNL     1      -8.388   5.322  63.477  1.00  0.00    -0.125 OA 
ENDBRANCH  21  22
ENDBRANCH  20  21
ENDBRANCH   2  20
TORSDOF 6
ENDMDL
MODEL      197
REMARK 921   NORMALIZED FREE ENERGY PREDICTED BY IDOCK:   -5.51 KCAL/MOL
REMARK 922        TOTAL FREE ENERGY PREDICTED BY IDOCK:   -8.74 KCAL/MOL
REMARK 923 INTER-LIGAND FREE ENERGY PREDICTED BY IDOCK:   -7.99 KCAL/MOL
REMARK 924 INTRA-LIGAND FREE ENERGY PREDICTED BY IDOCK:   -0.75 KCAL/MOL
REMARK 927      BINDING AFFINITY PREDICTED BY RF-SCORE:    0.00 PKD
ROOT
HETATM    1  O   UNL     1      -9.159  10.360  69.847  1.00  0.00    -0.403 OA 
HETATM    2  C   UNL     1     -10.336   9.801  70.462  1.00  0.00    -0.283 C  
HETATM    3  H   UNL     1      -8.410  10.116  70.379  1.00  0.00     0.000 HD 
ENDROOT
BRANCH   2   4
HETATM    4  C   UNL     1     -10.164   8.286  70.560  1.00  0.00    -0.198 C  
BRANCH   4   5
HETATM    5  O   UNL     1      -9.051   7.882  69.753  1.00  0.00    -0.146 OA 
BRANCH   5   6
HETATM    6  C   UNL     1      -9.117   6.671  69.120  1.00  0.00    -0.137 A  
HETATM    7  O   UNL     1      -7.812   7.101  62.767  1.00  0.00    -0.125 OA 
HETATM    8  O   UNL     1      -8.454   4.959  63.108  1.00  0.00    -0.111 OA 
HETATM    9  C   UNL     1      -9.377   5.468  69.795  1.00  0.00    -0.181 A  
HETATM   10  C   UNL     1      -9.486   4.262  69.103  1.00  0.00    -0.245 A  
HETATM   11  C   UNL     1      -8.218   6.228  63.514  1.00  0.00     0.024 C  
HETATM   12  C   UNL     1      -9.337   4.240  67.724  1.00  0.00    -0.200 A  
HETATM   13  O   UNL     1      -8.896   5.295  65.679  1.00  0.00    -0.144 OA 
HETATM   14  C   UNL     1      -8.500   6.405  64.963  1.00  0.00    -0.028 C  
HETATM   15  C   UNL     1      -9.059   5.422  67.038  1.00  0.00    -0.112 A  
HETATM   16  C   UNL     1      -8.346   7.628  65.485  1.00  0.00    -0.139 C  
HETATM   17  C   UNL     1      -8.948   6.641  67.721  1.00  0.00    -0.112 A  
HETATM   18  O   UNL     1      -8.505   8.977  67.366  1.00  0.00    -0.115 OA 
HETATM   19  C   UNL     1      -8.608   7.845  66.918  1.00  0.00    -0.129 C  
ENDBRANCH   5   6
ENDBRANCH   4   5
ENDBRANCH   2   4
BRANCH   2  20
HETATM   20  C   UNL     1     -11.543  10.194  69.603  1.00  0.00    -0.153 C  
BRANCH  20  21
HETATM   21  O   UNL     1     -12.600  10.796  70.322  1.00  0.00    -0.325 OA 
BRANCH  21  22
HETATM   22  C   UNL     1     -12.553  12.145  70.591  1.00  0.00    -0.169 A  
HETATM   23  C   UNL     1     -11.108  14.458  67.832  1.00  0.00    -0.288 C  
HETATM   24  C   UNL     1     -11.798  13.281  68.366  1.00  0.00    -0.360 C  
HETATM   25  C   UNL     1     -12.123  13.255  69.823  1.00  0.00    -0.355 A  
HETATM   26  C   UNL     1     -12.023  14.513  70.461  1.00  0.00    -0.318 A  
HETATM   27  C   UNL     1     -11.040  15.559  68.576  1.00  0.00    -0.307 C  
HETATM   28  C   UNL     1     -12.429  14.697  71.788  1.00  0.00    -0.412 A  
HETATM   29  O   UNL     1     -11.531  15.656  69.860  1.00  0.00    -0.285 OA 
HETATM   30  C   UNL     1     -12.926  13.626  72.512  1.00  0.00    -0.396 A  
HETATM   31  C   UNL     1     -10.453  16.766  67.935  1.00  0.00    -0.335 C  
HETATM   32  O   UNL     1     -10.442  17.831  68.765  1.00  0.00    -0.343 OA 
HETATM   33  C   UNL     1     -12.961  12.363  71.925  1.00  0.00    -0.407 A  
HETATM   34  O   UNL     1     -12.139  12.446  67.542  1.00  0.00    -0.491 OA 
HETATM   35  O   UNL     1     -10.034  16.807  66.789  1.00  0.00    -0.261 OA 
ENDBRANCH  21  22
ENDBRANCH  20  21
ENDBRANCH   2  20
TORSDOF 6
ENDMDL
MODEL      198
REMARK 921   NORMALIZED FREE ENERGY PREDICTED BY IDOCK:   -5.49 KCAL/MOL
REMARK 922        TOTAL FREE ENERGY PREDICTED BY IDOCK:   -8.72 KCAL/MOL
REMARK 923 INTER-LIGAND FREE ENERGY PREDICTED BY IDOCK:   -7.57 KCAL/MOL
REMARK 924 INTRA-LIGAND FREE ENERGY PREDICTED BY IDOCK:   -1.15 KCAL/MOL
REMARK 927      BINDING AFFINITY PREDICTED BY RF-SCORE:    0.00 PKD
ROOT
HETATM    1  O   UNL     1      -6.774  14.044  69.130  1.00  0.00    -0.104 OA 
HETATM    2  C   UNL     1      -7.572  13.350  68.151  1.00  0.00    -0.138 C  
HETATM    3  H   UNL     1      -6.299  13.391  69.631  1.00  0.00     0.000 HD 
ENDROOT
BRANCH   2   4
HETATM    4  C   UNL     1      -6.647  12.507  67.274  1.00  0.00    -0.123 C  
BRANCH   4   5
HETATM    5  O   UNL     1      -6.178  11.381  68.027  1.00  0.00    -0.049 OA 
BRANCH   5   6
HETATM    6  C   UNL     1      -7.095  10.461  68.453  1.00  0.00    -0.078 A  
HETATM    7  O   UNL     1      -7.913   5.600  64.217  1.00  0.00    -0.112 OA 
HETATM    8  O   UNL     1      -9.468   5.267  65.825  1.00  0.00    -0.160 OA 
HETATM    9  C   UNL     1      -7.735  10.540  69.700  1.00  0.00    -0.119 A  
HETATM   10  C   UNL     1      -8.702   9.608  70.075  1.00  0.00    -0.256 A  
HETATM   11  C   UNL     1      -8.461   5.958  65.244  1.00  0.00    -0.144 C  
HETATM   12  C   UNL     1      -9.047   8.581  69.207  1.00  0.00    -0.153 A  
HETATM   13  O   UNL     1      -8.793   7.408  67.195  1.00  0.00    -0.122 OA 
HETATM   14  C   UNL     1      -8.112   7.180  66.018  1.00  0.00    -0.115 C  
HETATM   15  C   UNL     1      -8.409   8.475  67.972  1.00  0.00    -0.127 A  
HETATM   16  C   UNL     1      -7.156   7.978  65.529  1.00  0.00    -0.060 C  
HETATM   17  C   UNL     1      -7.435   9.406  67.583  1.00  0.00    -0.087 A  
HETATM   18  O   UNL     1      -5.932   9.932  65.782  1.00  0.00    -0.059 OA 
HETATM   19  C   UNL     1      -6.775   9.193  66.268  1.00  0.00    -0.071 C  
ENDBRANCH   5   6
ENDBRANCH   4   5
ENDBRANCH   2   4
BRANCH   2  20
HETATM   20  C   UNL     1      -8.338  14.403  67.341  1.00  0.00    -0.201 C  
BRANCH  20  21
HETATM   21  O   UNL     1      -9.525  13.927  66.740  1.00  0.00    -0.260 OA 
BRANCH  21  22
HETATM   22  C   UNL     1     -10.451  13.260  67.508  1.00  0.00    -0.235 A  
HETATM   23  C   UNL     1     -12.190  15.264  70.338  1.00  0.00    -0.404 C  
HETATM   24  C   UNL     1     -11.532  15.073  69.043  1.00  0.00    -0.304 C  
HETATM   25  C   UNL     1     -11.276  13.675  68.582  1.00  0.00    -0.308 A  
HETATM   26  C   UNL     1     -11.995  12.689  69.296  1.00  0.00    -0.246 A  
HETATM   27  C   UNL     1     -12.778  14.223  70.924  1.00  0.00    -0.357 C  
HETATM   28  C   UNL     1     -11.984  11.345  68.904  1.00  0.00    -0.371 A  
HETATM   29  O   UNL     1     -12.761  12.940  70.418  1.00  0.00    -0.106 OA 
HETATM   30  C   UNL     1     -11.239  10.954  67.803  1.00  0.00    -0.384 A  
HETATM   31  C   UNL     1     -13.549  14.500  72.165  1.00  0.00    -0.419 C  
HETATM   32  O   UNL     1     -14.116  13.385  72.673  1.00  0.00    -0.767 OA 
HETATM   33  C   UNL     1     -10.465  11.898  67.133  1.00  0.00    -0.249 A  
HETATM   34  O   UNL     1     -11.329  16.088  68.395  1.00  0.00    -0.355 OA 
HETATM   35  O   UNL     1     -13.673  15.603  72.672  1.00  0.00    -0.525 OA 
ENDBRANCH  21  22
ENDBRANCH  20  21
ENDBRANCH   2  20
TORSDOF 6
ENDMDL
MODEL      199
REMARK 921   NORMALIZED FREE ENERGY PREDICTED BY IDOCK:   -5.46 KCAL/MOL
REMARK 922        TOTAL FREE ENERGY PREDICTED BY IDOCK:   -8.67 KCAL/MOL
REMARK 923 INTER-LIGAND FREE ENERGY PREDICTED BY IDOCK:   -7.56 KCAL/MOL
REMARK 924 INTRA-LIGAND FREE ENERGY PREDICTED BY IDOCK:   -1.10 KCAL/MOL
REMARK 927      BINDING AFFINITY PREDICTED BY RF-SCORE:    0.00 PKD
ROOT
HETATM    1  O   UNL     1     -10.021  11.313  66.676  1.00  0.00    -0.200 OA 
HETATM    2  C   UNL     1      -9.461  11.075  67.983  1.00  0.00    -0.166 C  
HETATM    3  H   UNL     1      -9.305  11.329  66.052  1.00  0.00     0.000 HD 
ENDROOT
BRANCH   2   4
HETATM    4  C   UNL     1      -8.690   9.756  67.951  1.00  0.00    -0.125 C  
BRANCH   4   5
HETATM    5  O   UNL     1      -9.440   8.752  68.646  1.00  0.00    -0.141 OA 
BRANCH   5   6
HETATM    6  C   UNL     1      -9.521   7.504  68.090  1.00  0.00    -0.143 A  
HETATM    7  O   UNL     1      -6.982   2.899  71.908  1.00  0.00    -0.028 OA 
HETATM    8  O   UNL     1      -7.500   1.857  69.969  1.00  0.00    -0.039 OA 
HETATM    9  C   UNL     1     -10.144   7.256  66.857  1.00  0.00    -0.317 A  
HETATM   10  C   UNL     1     -10.160   5.976  66.302  1.00  0.00    -0.067 A  
HETATM   11  C   UNL     1      -7.406   2.945  70.767  1.00  0.00    -0.033 C  
HETATM   12  C   UNL     1      -9.551   4.924  66.971  1.00  0.00    -0.173 A  
HETATM   13  O   UNL     1      -8.397   4.040  68.808  1.00  0.00    -0.077 OA 
HETATM   14  C   UNL     1      -7.891   4.174  70.084  1.00  0.00    -0.051 C  
HETATM   15  C   UNL     1      -8.944   5.148  68.207  1.00  0.00    -0.110 A  
HETATM   16  C   UNL     1      -7.813   5.332  70.751  1.00  0.00    -0.093 C  
HETATM   17  C   UNL     1      -8.921   6.429  68.775  1.00  0.00    -0.126 A  
HETATM   18  O   UNL     1      -8.169   7.624  70.721  1.00  0.00    -0.106 OA 
HETATM   19  C   UNL     1      -8.290   6.571  70.114  1.00  0.00    -0.134 C  
ENDBRANCH   5   6
ENDBRANCH   4   5
ENDBRANCH   2   4
BRANCH   2  20
HETATM   20  C   UNL     1     -10.617  11.047  68.988  1.00  0.00    -0.225 C  
BRANCH  20  21
HETATM   21  O   UNL     1     -11.741  11.814  68.607  1.00  0.00    -0.287 OA 
BRANCH  21  22
HETATM   22  C   UNL     1     -11.869  13.103  69.071  1.00  0.00    -0.313 A  
HETATM   23  C   UNL     1     -10.599  15.955  66.769  1.00  0.00    -0.309 C  
HETATM   24  C   UNL     1     -11.164  14.641  67.083  1.00  0.00    -0.344 C  
HETATM   25  C   UNL     1     -11.544  14.358  68.500  1.00  0.00    -0.347 A  
HETATM   26  C   UNL     1     -11.624  15.509  69.319  1.00  0.00    -0.357 A  
HETATM   27  C   UNL     1     -10.696  16.932  67.667  1.00  0.00    -0.290 C  
HETATM   28  C   UNL     1     -12.105  15.443  70.632  1.00  0.00    -0.412 A  
HETATM   29  O   UNL     1     -11.249  16.777  68.921  1.00  0.00    -0.250 OA 
HETATM   30  C   UNL     1     -12.498  14.224  71.162  1.00  0.00    -0.433 A  
HETATM   31  C   UNL     1     -10.233  18.280  67.244  1.00  0.00    -0.373 C  
HETATM   32  O   UNL     1     -10.385  19.202  68.219  1.00  0.00    -0.390 OA 
HETATM   33  C   UNL     1     -12.356  13.070  70.396  1.00  0.00    -0.351 A  
HETATM   34  O   UNL     1     -11.366  13.907  66.129  1.00  0.00    -0.310 OA 
HETATM   35  O   UNL     1      -9.775  18.542  66.144  1.00  0.00    -0.439 OA 
ENDBRANCH  21  22
ENDBRANCH  20  21
ENDBRANCH   2  20
TORSDOF 6
ENDMDL
MODEL      200
REMARK 921   NORMALIZED FREE ENERGY PREDICTED BY IDOCK:   -5.45 KCAL/MOL
REMARK 922        TOTAL FREE ENERGY PREDICTED BY IDOCK:   -8.65 KCAL/MOL
REMARK 923 INTER-LIGAND FREE ENERGY PREDICTED BY IDOCK:   -6.41 KCAL/MOL
REMARK 924 INTRA-LIGAND FREE ENERGY PREDICTED BY IDOCK:   -2.24 KCAL/MOL
REMARK 927      BINDING AFFINITY PREDICTED BY RF-SCORE:    0.00 PKD
ROOT
HETATM    1  O   UNL     1     -10.903   6.875  73.870  1.00  0.00    -0.510 OA 
HETATM    2  C   UNL     1     -10.303   6.728  72.568  1.00  0.00    -0.198 C  
HETATM    3  H   UNL     1     -10.201   6.992  74.501  1.00  0.00     0.000 HD 
ENDROOT
BRANCH   2   4
HETATM    4  C   UNL     1      -9.462   7.970  72.274  1.00  0.00    -0.209 C  
BRANCH   4   5
HETATM    5  O   UNL     1      -8.093   7.584  72.096  1.00  0.00    -0.097 OA 
BRANCH   5   6
HETATM    6  C   UNL     1      -7.741   6.974  70.924  1.00  0.00    -0.095 A  
HETATM    7  O   UNL     1      -6.155  11.224  66.271  1.00  0.00    -0.141 OA 
HETATM    8  O   UNL     1      -6.140   9.198  65.267  1.00  0.00    -0.061 OA 
HETATM    9  C   UNL     1      -7.673   5.579  70.779  1.00  0.00    -0.091 A  
HETATM   10  C   UNL     1      -7.359   4.996  69.552  1.00  0.00    -0.057 A  
HETATM   11  C   UNL     1      -6.331  10.020  66.324  1.00  0.00    -0.079 C  
HETATM   12  C   UNL     1      -7.107   5.799  68.448  1.00  0.00    -0.077 A  
HETATM   13  O   UNL     1      -6.855   7.899  67.440  1.00  0.00    -0.066 OA 
HETATM   14  C   UNL     1      -6.762   9.272  67.535  1.00  0.00    -0.069 C  
HETATM   15  C   UNL     1      -7.150   7.188  68.578  1.00  0.00    -0.081 A  
HETATM   16  C   UNL     1      -7.026   9.975  68.643  1.00  0.00    -0.069 C  
HETATM   17  C   UNL     1      -7.466   7.785  69.806  1.00  0.00    -0.089 A  
HETATM   18  O   UNL     1      -7.728   9.933  70.853  1.00  0.00    -0.269 OA 
HETATM   19  C   UNL     1      -7.448   9.271  69.866  1.00  0.00    -0.085 C  
ENDBRANCH   5   6
ENDBRANCH   4   5
ENDBRANCH   2   4
BRANCH   2  20
HETATM   20  C   UNL     1     -11.434   6.539  71.551  1.00  0.00    -0.302 C  
BRANCH  20  21
HETATM   21  O   UNL     1     -11.593   7.614  70.648  1.00  0.00    -0.285 OA 
BRANCH  21  22
HETATM   22  C   UNL     1     -11.077   7.510  69.376  1.00  0.00     0.004 A  
HETATM   23  C   UNL     1     -10.575  10.801  67.386  1.00  0.00    -0.287 C  
HETATM   24  C   UNL     1     -10.658   9.961  68.583  1.00  0.00    -0.217 C  
HETATM   25  C   UNL     1     -10.746   8.481  68.400  1.00  0.00    -0.084 A  
HETATM   26  C   UNL     1     -10.405   8.037  67.101  1.00  0.00    -0.325 A  
HETATM   27  C   UNL     1     -10.305  10.232  66.213  1.00  0.00    -0.186 C  
HETATM   28  C   UNL     1     -10.295   6.675  66.796  1.00  0.00    -0.280 A  
HETATM   29  O   UNL     1     -10.152   8.874  66.031  1.00  0.00    -0.260 OA 
HETATM   30  C   UNL     1     -10.541   5.727  67.777  1.00  0.00    -0.310 A  
HETATM   31  C   UNL     1     -10.095  11.144  65.058  1.00  0.00    -0.283 C  
HETATM   32  O   UNL     1      -9.814  10.471  63.921  1.00  0.00    -0.300 OA 
HETATM   33  C   UNL     1     -10.951   6.144  69.041  1.00  0.00    -0.436 A  
HETATM   34  O   UNL     1     -10.552  10.544  69.650  1.00  0.00    -0.236 OA 
HETATM   35  O   UNL     1     -10.155  12.361  65.116  1.00  0.00    -0.277 OA 
ENDBRANCH  21  22
ENDBRANCH  20  21
ENDBRANCH   2  20
TORSDOF 6
ENDMDL
MODEL      201
REMARK 921   NORMALIZED FREE ENERGY PREDICTED BY IDOCK:   -5.44 KCAL/MOL
REMARK 922        TOTAL FREE ENERGY PREDICTED BY IDOCK:   -8.64 KCAL/MOL
REMARK 923 INTER-LIGAND FREE ENERGY PREDICTED BY IDOCK:   -7.92 KCAL/MOL
REMARK 924 INTRA-LIGAND FREE ENERGY PREDICTED BY IDOCK:   -0.72 KCAL/MOL
REMARK 927      BINDING AFFINITY PREDICTED BY RF-SCORE:    0.00 PKD
ROOT
HETATM    1  O   UNL     1     -10.253  10.072  70.499  1.00  0.00    -0.373 OA 
HETATM    2  C   UNL     1     -10.272  10.538  69.135  1.00  0.00    -0.224 C  
HETATM    3  H   UNL     1     -10.771  10.675  71.019  1.00  0.00     0.000 HD 
ENDROOT
BRANCH   2   4
HETATM    4  C   UNL     1     -11.724  10.610  68.663  1.00  0.00    -0.158 C  
BRANCH   4   5
HETATM    5  O   UNL     1     -12.100  11.983  68.497  1.00  0.00    -0.367 OA 
BRANCH   5   6
HETATM    6  C   UNL     1     -11.575  12.673  67.439  1.00  0.00    -0.360 A  
HETATM    7  O   UNL     1     -10.115  18.824  68.951  1.00  0.00    -0.390 OA 
HETATM    8  O   UNL     1      -9.766  18.651  66.723  1.00  0.00    -0.301 OA 
HETATM    9  C   UNL     1     -11.326  12.085  66.189  1.00  0.00    -0.407 A  
HETATM   10  C   UNL     1     -10.837  12.838  65.122  1.00  0.00    -0.318 A  
HETATM   11  C   UNL     1     -10.148  18.165  67.927  1.00  0.00    -0.357 C  
HETATM   12  C   UNL     1     -10.589  14.194  65.288  1.00  0.00    -0.387 A  
HETATM   13  O   UNL     1     -10.506  16.130  66.605  1.00  0.00    -0.301 OA 
HETATM   14  C   UNL     1     -10.589  16.748  67.835  1.00  0.00    -0.350 C  
HETATM   15  C   UNL     1     -10.811  14.792  66.528  1.00  0.00    -0.319 A  
HETATM   16  C   UNL     1     -11.033  16.158  68.952  1.00  0.00    -0.324 C  
HETATM   17  C   UNL     1     -11.303  14.046  67.608  1.00  0.00    -0.336 A  
HETATM   18  O   UNL     1     -11.915  14.246  69.924  1.00  0.00    -0.297 OA 
HETATM   19  C   UNL     1     -11.471  14.752  68.906  1.00  0.00    -0.297 C  
ENDBRANCH   5   6
ENDBRANCH   4   5
ENDBRANCH   2   4
BRANCH   2  20
HETATM   20  C   UNL     1      -9.437   9.563  68.297  1.00  0.00    -0.133 C  
BRANCH  20  21
HETATM   21  O   UNL     1      -9.140   8.343  68.944  1.00  0.00    -0.146 OA 
BRANCH  21  22
HETATM   22  C   UNL     1      -9.404   7.155  68.300  1.00  0.00    -0.130 A  
HETATM   23  C   UNL     1      -6.601   4.474  68.295  1.00  0.00    -0.046 C  
HETATM   24  C   UNL     1      -7.370   5.603  68.821  1.00  0.00    -0.083 C  
HETATM   25  C   UNL     1      -8.640   5.975  68.127  1.00  0.00    -0.114 A  
HETATM   26  C   UNL     1      -9.127   4.985  67.241  1.00  0.00    -0.114 A  
HETATM   27  C   UNL     1      -7.173   3.656  67.414  1.00  0.00    -0.059 C  
HETATM   28  C   UNL     1     -10.375   5.107  66.619  1.00  0.00    -0.325 A  
HETATM   29  O   UNL     1      -8.443   3.832  66.908  1.00  0.00    -0.102 OA 
HETATM   30  C   UNL     1     -11.156   6.227  66.853  1.00  0.00    -0.329 A  
HETATM   31  C   UNL     1      -6.399   2.449  67.020  1.00  0.00    -0.028 C  
HETATM   32  O   UNL     1      -7.069   1.679  66.137  1.00  0.00    -0.048 OA 
HETATM   33  C   UNL     1     -10.661   7.246  67.664  1.00  0.00    -0.316 A  
HETATM   34  O   UNL     1      -6.950   6.098  69.856  1.00  0.00    -0.065 OA 
HETATM   35  O   UNL     1      -5.290   2.167  67.444  1.00  0.00    -0.015 OA 
ENDBRANCH  21  22
ENDBRANCH  20  21
ENDBRANCH   2  20
TORSDOF 6
ENDMDL
MODEL      202
REMARK 921   NORMALIZED FREE ENERGY PREDICTED BY IDOCK:   -5.44 KCAL/MOL
REMARK 922        TOTAL FREE ENERGY PREDICTED BY IDOCK:   -8.64 KCAL/MOL
REMARK 923 INTER-LIGAND FREE ENERGY PREDICTED BY IDOCK:   -6.36 KCAL/MOL
REMARK 924 INTRA-LIGAND FREE ENERGY PREDICTED BY IDOCK:   -2.28 KCAL/MOL
REMARK 927      BINDING AFFINITY PREDICTED BY RF-SCORE:    0.00 PKD
ROOT
HETATM    1  O   UNL     1      -9.610   4.555  73.482  1.00  0.00    -0.117 OA 
HETATM    2  C   UNL     1      -9.144   5.069  72.219  1.00  0.00    -0.131 C  
HETATM    3  H   UNL     1      -8.892   4.617  74.102  1.00  0.00     0.000 HD 
ENDROOT
BRANCH   2   4
HETATM    4  C   UNL     1      -8.675   6.510  72.420  1.00  0.00    -0.126 C  
BRANCH   4   5
HETATM    5  O   UNL     1      -7.339   6.647  71.918  1.00  0.00    -0.084 OA 
BRANCH   5   6
HETATM    6  C   UNL     1      -7.153   6.640  70.563  1.00  0.00    -0.068 A  
HETATM    7  O   UNL     1      -7.474  12.589  67.967  1.00  0.00    -0.095 OA 
HETATM    8  O   UNL     1      -7.311  11.173  66.211  1.00  0.00    -0.127 OA 
HETATM    9  C   UNL     1      -6.864   5.474  69.837  1.00  0.00    -0.060 A  
HETATM   10  C   UNL     1      -6.732   5.503  68.449  1.00  0.00    -0.054 A  
HETATM   11  C   UNL     1      -7.407  11.454  67.531  1.00  0.00    -0.112 C  
HETATM   12  C   UNL     1      -6.889   6.699  67.763  1.00  0.00    -0.080 A  
HETATM   13  O   UNL     1      -7.264   9.011  67.709  1.00  0.00    -0.081 OA 
HETATM   14  C   UNL     1      -7.408  10.219  68.360  1.00  0.00    -0.084 C  
HETATM   15  C   UNL     1      -7.158   7.872  68.469  1.00  0.00    -0.076 A  
HETATM   16  C   UNL     1      -7.540  10.355  69.684  1.00  0.00    -0.158 C  
HETATM   17  C   UNL     1      -7.293   7.855  69.865  1.00  0.00    -0.075 A  
HETATM   18  O   UNL     1      -7.705   9.298  71.743  1.00  0.00    -0.320 OA 
HETATM   19  C   UNL     1      -7.537   9.157  70.542  1.00  0.00    -0.125 C  
ENDBRANCH   5   6
ENDBRANCH   4   5
ENDBRANCH   2   4
BRANCH   2  20
HETATM   20  C   UNL     1     -10.302   4.971  71.219  1.00  0.00    -0.185 C  
BRANCH  20  21
HETATM   21  O   UNL     1     -11.043   6.164  71.064  1.00  0.00    -0.278 OA 
BRANCH  21  22
HETATM   22  C   UNL     1     -10.865   6.927  69.932  1.00  0.00    -0.257 A  
HETATM   23  C   UNL     1     -11.459  10.747  70.251  1.00  0.00    -0.406 C  
HETATM   24  C   UNL     1     -11.085   9.408  70.712  1.00  0.00    -0.300 C  
HETATM   25  C   UNL     1     -10.968   8.319  69.696  1.00  0.00    -0.092 A  
HETATM   26  C   UNL     1     -10.908   8.779  68.359  1.00  0.00     0.034 A  
HETATM   27  C   UNL     1     -11.412  11.018  68.948  1.00  0.00    -0.296 C  
HETATM   28  C   UNL     1     -10.654   7.907  67.294  1.00  0.00    -0.365 A  
HETATM   29  O   UNL     1     -11.087  10.095  67.978  1.00  0.00    -0.278 OA 
HETATM   30  C   UNL     1     -10.474   6.555  67.538  1.00  0.00    -0.297 A  
HETATM   31  C   UNL     1     -11.666  12.428  68.548  1.00  0.00    -0.326 C  
HETATM   32  O   UNL     1     -11.582  12.602  67.212  1.00  0.00    -0.323 OA 
HETATM   33  C   UNL     1     -10.604   6.073  68.838  1.00  0.00    -0.356 A  
HETATM   34  O   UNL     1     -10.805   9.313  71.897  1.00  0.00    -0.351 OA 
HETATM   35  O   UNL     1     -11.913  13.335  69.325  1.00  0.00    -0.312 OA 
ENDBRANCH  21  22
ENDBRANCH  20  21
ENDBRANCH   2  20
TORSDOF 6
ENDMDL
MODEL      203
REMARK 921   NORMALIZED FREE ENERGY PREDICTED BY IDOCK:   -5.41 KCAL/MOL
REMARK 922        TOTAL FREE ENERGY PREDICTED BY IDOCK:   -8.61 KCAL/MOL
REMARK 923 INTER-LIGAND FREE ENERGY PREDICTED BY IDOCK:   -7.52 KCAL/MOL
REMARK 924 INTRA-LIGAND FREE ENERGY PREDICTED BY IDOCK:   -1.08 KCAL/MOL
REMARK 927      BINDING AFFINITY PREDICTED BY RF-SCORE:    0.00 PKD
ROOT
HETATM    1  O   UNL     1      -6.913  10.984  65.770  1.00  0.00    -0.344 OA 
HETATM    2  C   UNL     1      -7.770  10.200  66.623  1.00  0.00    -0.106 C  
HETATM    3  H   UNL     1      -7.430  11.701  65.420  1.00  0.00     0.000 HD 
ENDROOT
BRANCH   2   4
HETATM    4  C   UNL     1      -8.326  11.104  67.723  1.00  0.00    -0.123 C  
BRANCH   4   5
HETATM    5  O   UNL     1      -9.750  11.194  67.588  1.00  0.00    -0.167 OA 
BRANCH   5   6
HETATM    6  C   UNL     1     -10.525  10.822  68.652  1.00  0.00    -0.192 A  
HETATM    7  O   UNL     1     -13.851  15.799  71.180  1.00  0.00    -0.537 OA 
HETATM    8  O   UNL     1     -14.234  14.053  72.565  1.00  0.00    -0.637 OA 
HETATM    9  C   UNL     1     -10.628   9.494  69.096  1.00  0.00    -0.237 A  
HETATM   10  C   UNL     1     -11.390   9.165  70.217  1.00  0.00    -0.217 A  
HETATM   11  C   UNL     1     -13.654  14.639  71.492  1.00  0.00    -0.405 C  
HETATM   12  C   UNL     1     -12.062  10.160  70.913  1.00  0.00    -0.453 A  
HETATM   13  O   UNL     1     -12.712  12.392  71.208  1.00  0.00    -0.360 OA 
HETATM   14  C   UNL     1     -12.776  13.692  70.754  1.00  0.00    -0.268 C  
HETATM   15  C   UNL     1     -11.987  11.482  70.475  1.00  0.00    -0.344 A  
HETATM   16  C   UNL     1     -12.108  14.158  69.692  1.00  0.00    -0.400 C  
HETATM   17  C   UNL     1     -11.224  11.826  69.350  1.00  0.00    -0.300 A  
HETATM   18  O   UNL     1     -10.598  13.706  67.990  1.00  0.00    -0.239 OA 
HETATM   19  C   UNL     1     -11.234  13.251  68.928  1.00  0.00    -0.277 C  
ENDBRANCH   5   6
ENDBRANCH   4   5
ENDBRANCH   2   4
BRANCH   2  20
HETATM   20  C   UNL     1      -6.936   9.044  67.188  1.00  0.00    -0.078 C  
BRANCH  20  21
HETATM   21  O   UNL     1      -7.444   8.487  68.383  1.00  0.00    -0.091 OA 
BRANCH  21  22
HETATM   22  C   UNL     1      -8.078   7.266  68.343  1.00  0.00    -0.125 A  
HETATM   23  C   UNL     1      -8.808   5.531  71.734  1.00  0.00    -0.140 C  
HETATM   24  C   UNL     1      -8.601   6.662  70.828  1.00  0.00    -0.135 C  
HETATM   25  C   UNL     1      -8.512   6.384  69.363  1.00  0.00    -0.126 A  
HETATM   26  C   UNL     1      -8.969   5.099  68.988  1.00  0.00    -0.100 A  
HETATM   27  C   UNL     1      -9.181   4.357  71.229  1.00  0.00    -0.137 C  
HETATM   28  C   UNL     1      -9.090   4.726  67.645  1.00  0.00    -0.128 A  
HETATM   29  O   UNL     1      -9.333   4.110  69.881  1.00  0.00    -0.129 OA 
HETATM   30  C   UNL     1      -8.740   5.621  66.647  1.00  0.00    -0.118 A  
HETATM   31  C   UNL     1      -9.511   3.283  72.202  1.00  0.00    -0.128 C  
HETATM   32  O   UNL     1      -9.890   2.140  71.592  1.00  0.00    -0.144 OA 
HETATM   33  C   UNL     1      -8.218   6.864  66.997  1.00  0.00    -0.120 A  
HETATM   34  O   UNL     1      -8.611   7.768  71.347  1.00  0.00    -0.116 OA 
HETATM   35  O   UNL     1      -9.461   3.407  73.415  1.00  0.00    -0.102 OA 
ENDBRANCH  21  22
ENDBRANCH  20  21
ENDBRANCH   2  20
TORSDOF 6
ENDMDL
MODEL      204
REMARK 921   NORMALIZED FREE ENERGY PREDICTED BY IDOCK:   -5.41 KCAL/MOL
REMARK 922        TOTAL FREE ENERGY PREDICTED BY IDOCK:   -8.60 KCAL/MOL
REMARK 923 INTER-LIGAND FREE ENERGY PREDICTED BY IDOCK:   -7.42 KCAL/MOL
REMARK 924 INTRA-LIGAND FREE ENERGY PREDICTED BY IDOCK:   -1.18 KCAL/MOL
REMARK 927      BINDING AFFINITY PREDICTED BY RF-SCORE:    0.00 PKD
ROOT
HETATM    1  O   UNL     1     -11.796   8.981  72.038  1.00  0.00    -0.358 OA 
HETATM    2  C   UNL     1     -10.602   8.511  71.382  1.00  0.00    -0.245 C  
HETATM    3  H   UNL     1     -12.045   9.804  71.633  1.00  0.00     0.000 HD 
ENDROOT
BRANCH   2   4
HETATM    4  C   UNL     1     -10.893   8.358  69.889  1.00  0.00    -0.207 C  
BRANCH   4   5
HETATM    5  O   UNL     1     -11.408   9.593  69.377  1.00  0.00    -0.137 OA 
BRANCH   5   6
HETATM    6  C   UNL     1     -10.962  10.024  68.158  1.00  0.00    -0.235 A  
HETATM    7  O   UNL     1     -10.854  16.505  67.686  1.00  0.00    -0.326 OA 
HETATM    8  O   UNL     1     -10.333  15.742  65.623  1.00  0.00    -0.337 OA 
HETATM    9  C   UNL     1     -10.521   9.150  67.152  1.00  0.00    -0.325 A  
HETATM   10  C   UNL     1     -10.122   9.628  65.904  1.00  0.00    -0.304 A  
HETATM   11  C   UNL     1     -10.688  15.576  66.917  1.00  0.00    -0.317 C  
HETATM   12  C   UNL     1     -10.159  10.991  65.641  1.00  0.00    -0.310 A  
HETATM   13  O   UNL     1     -10.549  13.207  66.292  1.00  0.00    -0.278 OA 
HETATM   14  C   UNL     1     -10.832  14.138  67.270  1.00  0.00    -0.285 C  
HETATM   15  C   UNL     1     -10.577  11.876  66.635  1.00  0.00    -0.238 A  
HETATM   16  C   UNL     1     -11.222  13.836  68.514  1.00  0.00    -0.304 C  
HETATM   17  C   UNL     1     -10.980  11.408  67.893  1.00  0.00    -0.295 A  
HETATM   18  O   UNL     1     -11.770  12.169  70.032  1.00  0.00    -0.308 OA 
HETATM   19  C   UNL     1     -11.370  12.423  68.906  1.00  0.00    -0.294 C  
ENDBRANCH   5   6
ENDBRANCH   4   5
ENDBRANCH   2   4
BRANCH   2  20
HETATM   20  C   UNL     1     -10.202   7.184  72.035  1.00  0.00    -0.190 C  
BRANCH  20  21
HETATM   21  O   UNL     1      -8.984   6.645  71.563  1.00  0.00    -0.139 OA 
BRANCH  21  22
HETATM   22  C   UNL     1      -9.003   5.503  70.795  1.00  0.00    -0.142 A  
HETATM   23  C   UNL     1      -8.637   5.934  66.958  1.00  0.00    -0.110 C  
HETATM   24  C   UNL     1      -8.436   6.276  68.368  1.00  0.00    -0.115 C  
HETATM   25  C   UNL     1      -8.872   5.290  69.401  1.00  0.00    -0.116 A  
HETATM   26  C   UNL     1      -9.127   3.994  68.894  1.00  0.00    -0.133 A  
HETATM   27  C   UNL     1      -8.934   4.678  66.633  1.00  0.00    -0.112 C  
HETATM   28  C   UNL     1      -9.404   2.916  69.742  1.00  0.00    -0.207 A  
HETATM   29  O   UNL     1      -9.127   3.668  67.552  1.00  0.00    -0.128 OA 
HETATM   30  C   UNL     1      -9.452   3.111  71.113  1.00  0.00    -0.222 A  
HETATM   31  C   UNL     1      -8.990   4.356  65.183  1.00  0.00    -0.143 C  
HETATM   32  O   UNL     1      -9.285   3.057  64.959  1.00  0.00    -0.142 OA 
HETATM   33  C   UNL     1      -9.278   4.394  71.625  1.00  0.00    -0.186 A  
HETATM   34  O   UNL     1      -7.833   7.317  68.582  1.00  0.00    -0.117 OA 
HETATM   35  O   UNL     1      -8.786   5.158  64.286  1.00  0.00    -0.115 OA 
ENDBRANCH  21  22
ENDBRANCH  20  21
ENDBRANCH   2  20
TORSDOF 6
ENDMDL
MODEL      205
REMARK 921   NORMALIZED FREE ENERGY PREDICTED BY IDOCK:   -5.37 KCAL/MOL
REMARK 922        TOTAL FREE ENERGY PREDICTED BY IDOCK:   -8.56 KCAL/MOL
REMARK 923 INTER-LIGAND FREE ENERGY PREDICTED BY IDOCK:   -6.53 KCAL/MOL
REMARK 924 INTRA-LIGAND FREE ENERGY PREDICTED BY IDOCK:   -2.03 KCAL/MOL
REMARK 927      BINDING AFFINITY PREDICTED BY RF-SCORE:    0.00 PKD
ROOT
HETATM    1  O   UNL     1     -10.485   7.430  71.701  1.00  0.00    -0.198 OA 
HETATM    2  C   UNL     1      -9.052   7.294  71.625  1.00  0.00    -0.135 C  
HETATM    3  H   UNL     1     -10.674   8.221  72.193  1.00  0.00     0.000 HD 
ENDROOT
BRANCH   2   4
HETATM    4  C   UNL     1      -8.476   8.543  70.958  1.00  0.00    -0.156 C  
BRANCH   4   5
HETATM    5  O   UNL     1      -9.481   9.145  70.133  1.00  0.00    -0.179 OA 
BRANCH   5   6
HETATM    6  C   UNL     1      -9.263   9.200  68.783  1.00  0.00    -0.136 A  
HETATM    7  O   UNL     1     -12.699  13.893  65.884  1.00  0.00    -0.489 OA 
HETATM    8  O   UNL     1     -11.704  12.750  64.206  1.00  0.00    -0.335 OA 
HETATM    9  C   UNL     1      -8.346   8.367  68.123  1.00  0.00    -0.128 A  
HETATM   10  C   UNL     1      -8.191   8.420  66.738  1.00  0.00    -0.102 A  
HETATM   11  C   UNL     1     -11.997  12.971  65.508  1.00  0.00    -0.424 C  
HETATM   12  C   UNL     1      -8.951   9.308  65.990  1.00  0.00    -0.215 A  
HETATM   13  O   UNL     1     -10.538  11.023  65.811  1.00  0.00    -0.247 OA 
HETATM   14  C   UNL     1     -11.352  11.969  66.398  1.00  0.00    -0.354 C  
HETATM   15  C   UNL     1      -9.854  10.157  66.631  1.00  0.00    -0.200 A  
HETATM   16  C   UNL     1     -11.596  12.050  67.711  1.00  0.00    -0.400 C  
HETATM   17  C   UNL     1     -10.019  10.112  68.022  1.00  0.00    -0.173 A  
HETATM   18  O   UNL     1     -11.242  11.144  69.817  1.00  0.00    -0.259 OA 
HETATM   19  C   UNL     1     -10.971  11.081  68.628  1.00  0.00    -0.224 C  
ENDBRANCH   5   6
ENDBRANCH   4   5
ENDBRANCH   2   4
BRANCH   2  20
HETATM   20  C   UNL     1      -8.746   6.019  70.831  1.00  0.00    -0.135 C  
BRANCH  20  21
HETATM   21  O   UNL     1      -9.886   5.370  70.306  1.00  0.00    -0.177 OA 
BRANCH  21  22
HETATM   22  C   UNL     1     -10.003   5.206  68.944  1.00  0.00    -0.175 A  
HETATM   23  C   UNL     1      -7.530   2.761  67.227  1.00  0.00    -0.065 C  
HETATM   24  C   UNL     1      -8.353   3.282  68.320  1.00  0.00    -0.078 C  
HETATM   25  C   UNL     1      -9.303   4.395  68.018  1.00  0.00    -0.191 A  
HETATM   26  C   UNL     1      -9.539   4.596  66.638  1.00  0.00    -0.182 A  
HETATM   27  C   UNL     1      -7.837   3.086  65.974  1.00  0.00    -0.081 C  
HETATM   28  C   UNL     1     -10.507   5.498  66.183  1.00  0.00    -0.149 A  
HETATM   29  O   UNL     1      -8.860   3.943  65.627  1.00  0.00    -0.117 OA 
HETATM   30  C   UNL     1     -11.248   6.233  67.095  1.00  0.00    -0.260 A  
HETATM   31  C   UNL     1      -7.057   2.420  64.898  1.00  0.00    -0.053 C  
HETATM   32  O   UNL     1      -7.453   2.806  63.666  1.00  0.00    -0.059 OA 
HETATM   33  C   UNL     1     -10.978   6.103  68.455  1.00  0.00    -0.391 A  
HETATM   34  O   UNL     1      -8.260   2.691  69.385  1.00  0.00    -0.047 OA 
HETATM   35  O   UNL     1      -6.166   1.608  65.088  1.00  0.00    -0.017 OA 
ENDBRANCH  21  22
ENDBRANCH  20  21
ENDBRANCH   2  20
TORSDOF 6
ENDMDL
MODEL      206
REMARK 921   NORMALIZED FREE ENERGY PREDICTED BY IDOCK:   -5.37 KCAL/MOL
REMARK 922        TOTAL FREE ENERGY PREDICTED BY IDOCK:   -8.55 KCAL/MOL
REMARK 923 INTER-LIGAND FREE ENERGY PREDICTED BY IDOCK:   -7.71 KCAL/MOL
REMARK 924 INTRA-LIGAND FREE ENERGY PREDICTED BY IDOCK:   -0.84 KCAL/MOL
REMARK 927      BINDING AFFINITY PREDICTED BY RF-SCORE:    0.00 PKD
ROOT
HETATM    1  O   UNL     1      -9.169  12.003  64.435  1.00  0.00    -0.404 OA 
HETATM    2  C   UNL     1      -9.750  10.839  65.055  1.00  0.00    -0.269 C  
HETATM    3  H   UNL     1      -9.431  12.763  64.943  1.00  0.00     0.000 HD 
ENDROOT
BRANCH   2   4
HETATM    4  C   UNL     1      -9.268  10.763  66.503  1.00  0.00    -0.168 C  
BRANCH   4   5
HETATM    5  O   UNL     1     -10.030  11.674  67.305  1.00  0.00    -0.190 OA 
BRANCH   5   6
HETATM    6  C   UNL     1     -10.646  11.189  68.426  1.00  0.00    -0.193 A  
HETATM    7  O   UNL     1     -14.180  15.705  71.484  1.00  0.00    -0.508 OA 
HETATM    8  O   UNL     1     -14.232  13.887  72.827  1.00  0.00    -0.620 OA 
HETATM    9  C   UNL     1     -10.564   9.845  68.823  1.00  0.00    -0.246 A  
HETATM   10  C   UNL     1     -11.165   9.404  70.001  1.00  0.00    -0.217 A  
HETATM   11  C   UNL     1     -13.833  14.563  71.726  1.00  0.00    -0.441 C  
HETATM   12  C   UNL     1     -11.858  10.300  70.803  1.00  0.00    -0.459 A  
HETATM   13  O   UNL     1     -12.699  12.439  71.255  1.00  0.00    -0.360 OA 
HETATM   14  C   UNL     1     -12.945  13.739  70.863  1.00  0.00    -0.216 C  
HETATM   15  C   UNL     1     -11.967  11.635  70.415  1.00  0.00    -0.358 A  
HETATM   16  C   UNL     1     -12.445  14.305  69.759  1.00  0.00    -0.264 C  
HETATM   17  C   UNL     1     -11.367  12.091  69.233  1.00  0.00    -0.330 A  
HETATM   18  O   UNL     1     -11.085  14.068  67.894  1.00  0.00    -0.244 OA 
HETATM   19  C   UNL     1     -11.568  13.520  68.873  1.00  0.00    -0.323 C  
ENDBRANCH   5   6
ENDBRANCH   4   5
ENDBRANCH   2   4
BRANCH   2  20
HETATM   20  C   UNL     1      -9.327   9.614  64.236  1.00  0.00    -0.114 C  
BRANCH  20  21
HETATM   21  O   UNL     1      -8.186   8.945  64.735  1.00  0.00    -0.145 OA 
BRANCH  21  22
HETATM   22  C   UNL     1      -8.017   7.606  64.464  1.00  0.00    -0.130 A  
HETATM   23  C   UNL     1      -9.321   5.080  67.103  1.00  0.00    -0.132 C  
HETATM   24  C   UNL     1      -9.296   6.337  66.353  1.00  0.00    -0.151 C  
HETATM   25  C   UNL     1      -8.385   6.437  65.174  1.00  0.00    -0.109 A  
HETATM   26  C   UNL     1      -7.894   5.192  64.715  1.00  0.00    -0.094 A  
HETATM   27  C   UNL     1      -8.762   3.997  66.568  1.00  0.00    -0.116 C  
HETATM   28  C   UNL     1      -7.146   5.087  63.537  1.00  0.00    -0.048 A  
HETATM   29  O   UNL     1      -8.096   3.987  65.361  1.00  0.00    -0.099 OA 
HETATM   30  C   UNL     1      -6.855   6.225  62.801  1.00  0.00    -0.041 A  
HETATM   31  C   UNL     1      -8.937   2.718  67.306  1.00  0.00    -0.157 C  
HETATM   32  O   UNL     1      -8.346   1.680  66.676  1.00  0.00    -0.076 OA 
HETATM   33  C   UNL     1      -7.266   7.468  63.276  1.00  0.00    -0.083 A  
HETATM   34  O   UNL     1     -10.104   7.183  66.705  1.00  0.00    -0.214 OA 
HETATM   35  O   UNL     1      -9.550   2.601  68.355  1.00  0.00    -0.185 OA 
ENDBRANCH  21  22
ENDBRANCH  20  21
ENDBRANCH   2  20
TORSDOF 6
ENDMDL
MODEL      207
REMARK 921   NORMALIZED FREE ENERGY PREDICTED BY IDOCK:   -5.37 KCAL/MOL
REMARK 922        TOTAL FREE ENERGY PREDICTED BY IDOCK:   -8.55 KCAL/MOL
REMARK 923 INTER-LIGAND FREE ENERGY PREDICTED BY IDOCK:   -7.28 KCAL/MOL
REMARK 924 INTRA-LIGAND FREE ENERGY PREDICTED BY IDOCK:   -1.26 KCAL/MOL
REMARK 927      BINDING AFFINITY PREDICTED BY RF-SCORE:    0.00 PKD
ROOT
HETATM    1  O   UNL     1      -6.579   9.320  70.673  1.00  0.00    -0.060 OA 
HETATM    2  C   UNL     1      -7.841   9.839  70.212  1.00  0.00    -0.171 C  
HETATM    3  H   UNL     1      -6.688   9.054  71.579  1.00  0.00     0.000 HD 
ENDROOT
BRANCH   2   4
HETATM    4  C   UNL     1      -8.905   8.753  70.371  1.00  0.00    -0.168 C  
BRANCH   4   5
HETATM    5  O   UNL     1      -8.410   7.523  69.828  1.00  0.00    -0.130 OA 
BRANCH   5   6
HETATM    6  C   UNL     1      -9.101   6.946  68.799  1.00  0.00    -0.133 A  
HETATM    7  O   UNL     1      -5.271   3.494  64.843  1.00  0.00    -0.008 OA 
HETATM    8  O   UNL     1      -7.308   3.493  63.862  1.00  0.00    -0.053 OA 
HETATM    9  C   UNL     1     -10.495   7.046  68.662  1.00  0.00    -0.224 A  
HETATM   10  C   UNL     1     -11.155   6.486  67.569  1.00  0.00    -0.396 A  
HETATM   11  C   UNL     1      -6.435   3.853  64.829  1.00  0.00    -0.042 C  
HETATM   12  C   UNL     1     -10.431   5.815  66.593  1.00  0.00    -0.330 A  
HETATM   13  O   UNL     1      -8.422   4.980  65.724  1.00  0.00    -0.117 OA 
HETATM   14  C   UNL     1      -7.075   4.716  65.858  1.00  0.00    -0.074 C  
HETATM   15  C   UNL     1      -9.048   5.688  66.721  1.00  0.00    -0.120 A  
HETATM   16  C   UNL     1      -6.308   5.177  66.853  1.00  0.00    -0.040 C  
HETATM   17  C   UNL     1      -8.373   6.248  67.816  1.00  0.00    -0.117 A  
HETATM   18  O   UNL     1      -6.179   6.477  68.770  1.00  0.00    -0.027 OA 
HETATM   19  C   UNL     1      -6.905   6.029  67.896  1.00  0.00    -0.063 C  
ENDBRANCH   5   6
ENDBRANCH   4   5
ENDBRANCH   2   4
BRANCH   2  20
HETATM   20  C   UNL     1      -7.664  10.268  68.751  1.00  0.00    -0.096 C  
BRANCH  20  21
HETATM   21  O   UNL     1      -8.128  11.572  68.464  1.00  0.00    -0.139 OA 
BRANCH  21  22
HETATM   22  C   UNL     1      -8.987  11.766  67.406  1.00  0.00    -0.173 A  
HETATM   23  C   UNL     1      -9.609  15.422  66.269  1.00  0.00    -0.342 C  
HETATM   24  C   UNL     1      -8.846  14.310  66.842  1.00  0.00    -0.213 C  
HETATM   25  C   UNL     1      -9.414  12.933  66.728  1.00  0.00    -0.245 A  
HETATM   26  C   UNL     1     -10.464  12.816  65.787  1.00  0.00    -0.276 A  
HETATM   27  C   UNL     1     -10.617  15.156  65.441  1.00  0.00    -0.391 C  
HETATM   28  C   UNL     1     -11.011  11.573  65.450  1.00  0.00    -0.288 A  
HETATM   29  O   UNL     1     -11.040  13.882  65.123  1.00  0.00    -0.310 OA 
HETATM   30  C   UNL     1     -10.535  10.422  66.057  1.00  0.00    -0.211 A  
HETATM   31  C   UNL     1     -11.266  16.318  64.781  1.00  0.00    -0.259 C  
HETATM   32  O   UNL     1     -12.264  15.943  63.953  1.00  0.00    -0.785 OA 
HETATM   33  C   UNL     1      -9.554  10.526  67.040  1.00  0.00    -0.202 A  
HETATM   34  O   UNL     1      -7.747  14.595  67.292  1.00  0.00    -0.194 OA 
HETATM   35  O   UNL     1     -10.940  17.482  64.948  1.00  0.00    -0.887 OA 
ENDBRANCH  21  22
ENDBRANCH  20  21
ENDBRANCH   2  20
TORSDOF 6
ENDMDL
MODEL      208
REMARK 921   NORMALIZED FREE ENERGY PREDICTED BY IDOCK:   -5.35 KCAL/MOL
REMARK 922        TOTAL FREE ENERGY PREDICTED BY IDOCK:   -8.52 KCAL/MOL
REMARK 923 INTER-LIGAND FREE ENERGY PREDICTED BY IDOCK:   -6.46 KCAL/MOL
REMARK 924 INTRA-LIGAND FREE ENERGY PREDICTED BY IDOCK:   -2.06 KCAL/MOL
REMARK 927      BINDING AFFINITY PREDICTED BY RF-SCORE:    0.00 PKD
ROOT
HETATM    1  O   UNL     1     -13.487  10.060  70.526  1.00  0.00    -0.574 OA 
HETATM    2  C   UNL     1     -12.206  10.162  71.177  1.00  0.00    -0.389 C  
HETATM    3  H   UNL     1     -13.583  10.814  69.955  1.00  0.00     0.000 HD 
ENDROOT
BRANCH   2   4
HETATM    4  C   UNL     1     -11.116  10.220  70.107  1.00  0.00    -0.319 C  
BRANCH   4   5
HETATM    5  O   UNL     1     -11.622   9.665  68.886  1.00  0.00     0.134 OA 
BRANCH   5   6
HETATM    6  C   UNL     1     -10.848   9.764  67.762  1.00  0.00    -0.246 A  
HETATM    7  O   UNL     1      -8.948   3.968  65.519  1.00  0.00    -0.122 OA 
HETATM    8  O   UNL     1      -7.870   5.492  64.243  1.00  0.00    -0.095 OA 
HETATM    9  C   UNL     1     -10.559  10.988  67.138  1.00  0.00    -0.294 A  
HETATM   10  C   UNL     1      -9.724  11.049  66.023  1.00  0.00    -0.265 A  
HETATM   11  C   UNL     1      -8.689   5.129  65.256  1.00  0.00    -0.150 C  
HETATM   12  C   UNL     1      -9.164   9.887  65.513  1.00  0.00    -0.255 A  
HETATM   13  O   UNL     1      -8.881   7.561  65.514  1.00  0.00    -0.099 OA 
HETATM   14  C   UNL     1      -9.228   6.311  65.980  1.00  0.00    -0.078 C  
HETATM   15  C   UNL     1      -9.455   8.659  66.108  1.00  0.00    -0.240 A  
HETATM   16  C   UNL     1     -10.022   6.089  67.035  1.00  0.00    -0.197 C  
HETATM   17  C   UNL     1     -10.292   8.584  67.230  1.00  0.00    -0.372 A  
HETATM   18  O   UNL     1     -11.269   7.009  68.761  1.00  0.00    -0.083 OA 
HETATM   19  C   UNL     1     -10.584   7.232  67.775  1.00  0.00    -0.221 C  
ENDBRANCH   5   6
ENDBRANCH   4   5
ENDBRANCH   2   4
BRANCH   2  20
HETATM   20  C   UNL     1     -12.052   8.946  72.098  1.00  0.00    -0.359 C  
BRANCH  20  21
HETATM   21  O   UNL     1     -10.713   8.589  72.374  1.00  0.00    -0.341 OA 
BRANCH  21  22
HETATM   22  C   UNL     1     -10.307   7.288  72.181  1.00  0.00    -0.193 A  
HETATM   23  C   UNL     1      -7.488   6.671  69.588  1.00  0.00    -0.096 C  
HETATM   24  C   UNL     1      -8.235   7.423  70.599  1.00  0.00    -0.112 C  
HETATM   25  C   UNL     1      -9.311   6.713  71.353  1.00  0.00    -0.151 A  
HETATM   26  C   UNL     1      -9.265   5.304  71.239  1.00  0.00    -0.146 A  
HETATM   27  C   UNL     1      -7.591   5.344  69.563  1.00  0.00    -0.070 C  
HETATM   28  C   UNL     1     -10.107   4.479  71.994  1.00  0.00    -0.264 A  
HETATM   29  O   UNL     1      -8.410   4.617  70.400  1.00  0.00    -0.074 OA 
HETATM   30  C   UNL     1     -11.026   5.043  72.864  1.00  0.00    -0.342 A  
HETATM   31  C   UNL     1      -6.707   4.622  68.611  1.00  0.00    -0.050 C  
HETATM   32  O   UNL     1      -6.876   3.284  68.672  1.00  0.00    -0.044 OA 
HETATM   33  C   UNL     1     -11.138   6.430  72.934  1.00  0.00    -0.259 A  
HETATM   34  O   UNL     1      -7.847   8.562  70.809  1.00  0.00    -0.079 OA 
HETATM   35  O   UNL     1      -5.908   5.160  67.861  1.00  0.00    -0.016 OA 
ENDBRANCH  21  22
ENDBRANCH  20  21
ENDBRANCH   2  20
TORSDOF 6
ENDMDL
MODEL      209
REMARK 921   NORMALIZED FREE ENERGY PREDICTED BY IDOCK:   -5.34 KCAL/MOL
REMARK 922        TOTAL FREE ENERGY PREDICTED BY IDOCK:   -8.51 KCAL/MOL
REMARK 923 INTER-LIGAND FREE ENERGY PREDICTED BY IDOCK:   -7.67 KCAL/MOL
REMARK 924 INTRA-LIGAND FREE ENERGY PREDICTED BY IDOCK:   -0.84 KCAL/MOL
REMARK 927      BINDING AFFINITY PREDICTED BY RF-SCORE:    0.00 PKD
ROOT
HETATM    1  O   UNL     1      -8.667   8.776  71.839  1.00  0.00    -0.284 OA 
HETATM    2  C   UNL     1      -9.736   7.907  71.416  1.00  0.00    -0.164 C  
HETATM    3  H   UNL     1      -8.864   9.651  71.526  1.00  0.00     0.000 HD 
ENDROOT
BRANCH   2   4
HETATM    4  C   UNL     1     -11.052   8.441  71.982  1.00  0.00    -0.327 C  
BRANCH   4   5
HETATM    5  O   UNL     1     -11.892   8.870  70.903  1.00  0.00    -0.282 OA 
BRANCH   5   6
HETATM    6  C   UNL     1     -11.528   9.988  70.205  1.00  0.00    -0.300 A  
HETATM    7  O   UNL     1     -14.226  15.402  72.583  1.00  0.00    -0.488 OA 
HETATM    8  O   UNL     1     -13.159  16.039  70.694  1.00  0.00    -0.338 OA 
HETATM    9  C   UNL     1     -10.620   9.961  69.135  1.00  0.00    -0.240 A  
HETATM   10  C   UNL     1     -10.315  11.117  68.418  1.00  0.00    -0.201 A  
HETATM   11  C   UNL     1     -13.569  15.119  71.597  1.00  0.00    -0.467 C  
HETATM   12  C   UNL     1     -10.914  12.322  68.759  1.00  0.00    -0.277 A  
HETATM   13  O   UNL     1     -12.321  13.614  70.115  1.00  0.00    -0.331 OA 
HETATM   14  C   UNL     1     -13.110  13.751  71.239  1.00  0.00    -0.297 C  
HETATM   15  C   UNL     1     -11.804  12.373  69.832  1.00  0.00    -0.305 A  
HETATM   16  C   UNL     1     -13.484  12.739  72.030  1.00  0.00    -0.540 C  
HETATM   17  C   UNL     1     -12.119  11.217  70.560  1.00  0.00    -0.474 A  
HETATM   18  O   UNL     1     -13.433  10.453  72.423  1.00  0.00    -0.282 OA 
HETATM   19  C   UNL     1     -13.044  11.369  71.715  1.00  0.00    -0.418 C  
ENDBRANCH   5   6
ENDBRANCH   4   5
ENDBRANCH   2   4
BRANCH   2  20
HETATM   20  C   UNL     1      -9.418   6.495  71.920  1.00  0.00    -0.151 C  
BRANCH  20  21
HETATM   21  O   UNL     1      -8.198   5.965  71.442  1.00  0.00    -0.119 OA 
BRANCH  21  22
HETATM   22  C   UNL     1      -8.162   5.364  70.205  1.00  0.00    -0.100 A  
HETATM   23  C   UNL     1      -7.787   7.676  67.113  1.00  0.00    -0.117 C  
HETATM   24  C   UNL     1      -7.611   7.270  68.509  1.00  0.00    -0.118 C  
HETATM   25  C   UNL     1      -8.012   5.884  68.896  1.00  0.00    -0.102 A  
HETATM   26  C   UNL     1      -8.207   5.011  67.801  1.00  0.00    -0.098 A  
HETATM   27  C   UNL     1      -8.027   6.744  66.194  1.00  0.00    -0.110 C  
HETATM   28  C   UNL     1      -8.444   3.644  67.985  1.00  0.00    -0.108 A  
HETATM   29  O   UNL     1      -8.183   5.403  66.476  1.00  0.00    -0.108 OA 
HETATM   30  C   UNL     1      -8.510   3.123  69.267  1.00  0.00    -0.098 A  
HETATM   31  C   UNL     1      -8.058   7.192  64.777  1.00  0.00    -0.092 C  
HETATM   32  O   UNL     1      -8.295   6.173  63.924  1.00  0.00    -0.059 OA 
HETATM   33  C   UNL     1      -8.395   3.980  70.359  1.00  0.00    -0.081 A  
HETATM   34  O   UNL     1      -7.056   8.082  69.233  1.00  0.00    -0.064 OA 
HETATM   35  O   UNL     1      -7.882   8.342  64.410  1.00  0.00    -0.125 OA 
ENDBRANCH  21  22
ENDBRANCH  20  21
ENDBRANCH   2  20
TORSDOF 6
ENDMDL
MODEL      210
REMARK 921   NORMALIZED FREE ENERGY PREDICTED BY IDOCK:   -5.33 KCAL/MOL
REMARK 922        TOTAL FREE ENERGY PREDICTED BY IDOCK:   -8.49 KCAL/MOL
REMARK 923 INTER-LIGAND FREE ENERGY PREDICTED BY IDOCK:   -7.79 KCAL/MOL
REMARK 924 INTRA-LIGAND FREE ENERGY PREDICTED BY IDOCK:   -0.70 KCAL/MOL
REMARK 927      BINDING AFFINITY PREDICTED BY RF-SCORE:    0.00 PKD
ROOT
HETATM    1  O   UNL     1     -12.507  14.092  67.671  1.00  0.00    -0.540 OA 
HETATM    2  C   UNL     1     -11.324  13.277  67.779  1.00  0.00    -0.295 C  
HETATM    3  H   UNL     1     -13.135  13.621  67.136  1.00  0.00     0.000 HD 
ENDROOT
BRANCH   2   4
HETATM    4  C   UNL     1     -11.710  11.931  68.391  1.00  0.00    -0.326 C  
BRANCH   4   5
HETATM    5  O   UNL     1     -10.605  11.025  68.278  1.00  0.00    -0.170 OA 
BRANCH   5   6
HETATM    6  C   UNL     1     -10.571   9.940  69.110  1.00  0.00    -0.220 A  
HETATM    7  O   UNL     1      -9.451   4.385  65.929  1.00  0.00    -0.147 OA 
HETATM    8  O   UNL     1      -9.881   3.780  68.065  1.00  0.00    -0.100 OA 
HETATM    9  C   UNL     1     -10.702  10.042  70.504  1.00  0.00    -0.352 A  
HETATM   10  C   UNL     1     -10.713   8.905  71.312  1.00  0.00    -0.357 A  
HETATM   11  C   UNL     1      -9.756   4.687  67.069  1.00  0.00    -0.195 C  
HETATM   12  C   UNL     1     -10.593   7.647  70.739  1.00  0.00    -0.224 A  
HETATM   13  O   UNL     1     -10.297   6.245  68.885  1.00  0.00    -0.168 OA 
HETATM   14  C   UNL     1     -10.022   6.071  67.545  1.00  0.00    -0.137 C  
HETATM   15  C   UNL     1     -10.442   7.527  69.357  1.00  0.00    -0.222 A  
HETATM   16  C   UNL     1      -9.972   7.061  66.646  1.00  0.00    -0.224 C  
HETATM   17  C   UNL     1     -10.430   8.662  68.534  1.00  0.00    -0.209 A  
HETATM   18  O   UNL     1     -10.217   9.331  66.235  1.00  0.00    -0.273 OA 
HETATM   19  C   UNL     1     -10.222   8.447  67.078  1.00  0.00    -0.307 C  
ENDBRANCH   5   6
ENDBRANCH   4   5
ENDBRANCH   2   4
BRANCH   2  20
HETATM   20  C   UNL     1     -10.311  14.038  68.643  1.00  0.00    -0.238 C  
BRANCH  20  21
HETATM   21  O   UNL     1      -9.076  14.295  68.005  1.00  0.00    -0.178 OA 
BRANCH  21  22
HETATM   22  C   UNL     1      -8.205  15.203  68.563  1.00  0.00    -0.148 A  
HETATM   23  C   UNL     1      -8.209  18.798  67.107  1.00  0.00    -0.275 C  
HETATM   24  C   UNL     1      -8.784  17.501  67.469  1.00  0.00    -0.225 C  
HETATM   25  C   UNL     1      -7.962  16.574  68.304  1.00  0.00    -0.177 A  
HETATM   26  C   UNL     1      -6.851  17.188  68.929  1.00  0.00    -0.221 A  
HETATM   27  C   UNL     1      -7.119  19.222  67.742  1.00  0.00    -0.236 C  
HETATM   28  C   UNL     1      -6.061  16.503  69.858  1.00  0.00    -0.188 A  
HETATM   29  O   UNL     1      -6.445  18.488  68.695  1.00  0.00    -0.216 OA 
HETATM   30  C   UNL     1      -6.350  15.184  70.170  1.00  0.00    -0.130 A  
HETATM   31  C   UNL     1      -6.658  20.602  67.435  1.00  0.00    -0.294 C  
HETATM   32  O   UNL     1      -5.558  20.941  68.139  1.00  0.00    -0.262 OA 
HETATM   33  C   UNL     1      -7.393  14.540  69.509  1.00  0.00    -0.063 A  
HETATM   34  O   UNL     1      -9.943  17.320  67.130  1.00  0.00    -0.265 OA 
HETATM   35  O   UNL     1      -7.207  21.357  66.649  1.00  0.00    -0.205 OA 
ENDBRANCH  21  22
ENDBRANCH  20  21
ENDBRANCH   2  20
TORSDOF 6
ENDMDL
MODEL      211
REMARK 921   NORMALIZED FREE ENERGY PREDICTED BY IDOCK:   -5.32 KCAL/MOL
REMARK 922        TOTAL FREE ENERGY PREDICTED BY IDOCK:   -8.48 KCAL/MOL
REMARK 923 INTER-LIGAND FREE ENERGY PREDICTED BY IDOCK:   -7.94 KCAL/MOL
REMARK 924 INTRA-LIGAND FREE ENERGY PREDICTED BY IDOCK:   -0.54 KCAL/MOL
REMARK 927      BINDING AFFINITY PREDICTED BY RF-SCORE:    0.00 PKD
ROOT
HETATM    1  O   UNL     1      -9.910  12.509  64.618  1.00  0.00    -0.473 OA 
HETATM    2  C   UNL     1     -10.217  11.365  65.439  1.00  0.00    -0.270 C  
HETATM    3  H   UNL     1     -10.724  12.964  64.438  1.00  0.00     0.000 HD 
ENDROOT
BRANCH   2   4
HETATM    4  C   UNL     1     -10.904  11.849  66.716  1.00  0.00    -0.266 C  
BRANCH   4   5
HETATM    5  O   UNL     1     -11.463  13.149  66.489  1.00  0.00    -0.310 OA 
BRANCH   5   6
HETATM    6  C   UNL     1     -11.571  14.002  67.553  1.00  0.00    -0.367 A  
HETATM    7  O   UNL     1     -10.019  20.123  66.019  1.00  0.00    -0.456 OA 
HETATM    8  O   UNL     1     -10.341  20.126  68.257  1.00  0.00    -0.401 OA 
HETATM    9  C   UNL     1     -12.028  13.594  68.816  1.00  0.00    -0.394 A  
HETATM   10  C   UNL     1     -12.075  14.484  69.888  1.00  0.00    -0.389 A  
HETATM   11  C   UNL     1     -10.268  19.523  67.048  1.00  0.00    -0.426 C  
HETATM   12  C   UNL     1     -11.663  15.798  69.716  1.00  0.00    -0.355 A  
HETATM   13  O   UNL     1     -10.867  17.552  68.381  1.00  0.00    -0.314 OA 
HETATM   14  C   UNL     1     -10.541  18.063  67.142  1.00  0.00    -0.325 C  
HETATM   15  C   UNL     1     -11.223  16.227  68.463  1.00  0.00    -0.359 A  
HETATM   16  C   UNL     1     -10.460  17.339  66.020  1.00  0.00    -0.285 C  
HETATM   17  C   UNL     1     -11.171  15.341  67.377  1.00  0.00    -0.311 A  
HETATM   18  O   UNL     1     -10.607  15.240  65.043  1.00  0.00    -0.405 OA 
HETATM   19  C   UNL     1     -10.730  15.892  66.068  1.00  0.00    -0.284 C  
ENDBRANCH   5   6
ENDBRANCH   4   5
ENDBRANCH   2   4
BRANCH   2  20
HETATM   20  C   UNL     1      -8.903  10.632  65.729  1.00  0.00    -0.184 C  
BRANCH  20  21
HETATM   21  O   UNL     1      -9.060   9.385  66.375  1.00  0.00    -0.147 OA 
BRANCH  21  22
HETATM   22  C   UNL     1      -8.558   9.214  67.645  1.00  0.00    -0.117 A  
HETATM   23  C   UNL     1      -7.450   5.636  68.652  1.00  0.00    -0.084 C  
HETATM   24  C   UNL     1      -7.695   6.752  67.737  1.00  0.00    -0.111 C  
HETATM   25  C   UNL     1      -8.047   8.080  68.323  1.00  0.00    -0.126 A  
HETATM   26  C   UNL     1      -7.779   8.191  69.708  1.00  0.00    -0.100 A  
HETATM   27  C   UNL     1      -7.275   5.888  69.948  1.00  0.00    -0.073 C  
HETATM   28  C   UNL     1      -7.914   9.408  70.386  1.00  0.00    -0.190 A  
HETATM   29  O   UNL     1      -7.368   7.144  70.509  1.00  0.00    -0.072 OA 
HETATM   30  C   UNL     1      -8.337  10.536  69.701  1.00  0.00    -0.010 A  
HETATM   31  C   UNL     1      -6.892   4.738  70.809  1.00  0.00    -0.036 C  
HETATM   32  O   UNL     1      -6.726   5.100  72.099  1.00  0.00    -0.051 OA 
HETATM   33  C   UNL     1      -8.677  10.429  68.355  1.00  0.00    -0.129 A  
HETATM   34  O   UNL     1      -7.497   6.523  66.553  1.00  0.00    -0.082 OA 
HETATM   35  O   UNL     1      -6.732   3.597  70.410  1.00  0.00    -0.032 OA 
ENDBRANCH  21  22
ENDBRANCH  20  21
ENDBRANCH   2  20
TORSDOF 6
ENDMDL
MODEL      212
REMARK 921   NORMALIZED FREE ENERGY PREDICTED BY IDOCK:   -5.31 KCAL/MOL
REMARK 922        TOTAL FREE ENERGY PREDICTED BY IDOCK:   -8.47 KCAL/MOL
REMARK 923 INTER-LIGAND FREE ENERGY PREDICTED BY IDOCK:   -7.62 KCAL/MOL
REMARK 924 INTRA-LIGAND FREE ENERGY PREDICTED BY IDOCK:   -0.85 KCAL/MOL
REMARK 927      BINDING AFFINITY PREDICTED BY RF-SCORE:    0.00 PKD
ROOT
HETATM    1  O   UNL     1      -6.103  12.001  69.118  1.00  0.00    -0.067 OA 
HETATM    2  C   UNL     1      -7.375  11.578  68.590  1.00  0.00    -0.106 C  
HETATM    3  H   UNL     1      -5.996  11.598  69.973  1.00  0.00     0.000 HD 
ENDROOT
BRANCH   2   4
HETATM    4  C   UNL     1      -7.393  10.052  68.517  1.00  0.00    -0.077 C  
BRANCH   4   5
HETATM    5  O   UNL     1      -8.561   9.559  69.185  1.00  0.00    -0.127 OA 
BRANCH   5   6
HETATM    6  C   UNL     1      -8.927   8.258  68.974  1.00  0.00    -0.147 A  
HETATM    7  O   UNL     1     -10.576   5.203  74.467  1.00  0.00    -0.315 OA 
HETATM    8  O   UNL     1     -10.600   3.611  72.862  1.00  0.00    -0.169 OA 
HETATM    9  C   UNL     1      -8.993   7.681  67.696  1.00  0.00    -0.127 A  
HETATM   10  C   UNL     1      -9.322   6.336  67.529  1.00  0.00    -0.113 A  
HETATM   11  C   UNL     1     -10.398   4.871  73.309  1.00  0.00    -0.186 C  
HETATM   12  C   UNL     1      -9.588   5.545  68.638  1.00  0.00    -0.172 A  
HETATM   13  O   UNL     1      -9.856   5.254  70.947  1.00  0.00    -0.173 OA 
HETATM   14  C   UNL     1      -9.951   5.779  72.219  1.00  0.00    -0.170 C  
HETATM   15  C   UNL     1      -9.546   6.106  69.914  1.00  0.00    -0.159 A  
HETATM   16  C   UNL     1      -9.675   7.049  72.537  1.00  0.00    -0.170 C  
HETATM   17  C   UNL     1      -9.217   7.457  70.095  1.00  0.00    -0.151 A  
HETATM   18  O   UNL     1      -8.946   9.126  71.804  1.00  0.00    -0.345 OA 
HETATM   19  C   UNL     1      -9.236   7.983  71.486  1.00  0.00    -0.147 C  
ENDBRANCH   5   6
ENDBRANCH   4   5
ENDBRANCH   2   4
BRANCH   2  20
HETATM   20  C   UNL     1      -7.547  12.227  67.212  1.00  0.00    -0.152 C  
BRANCH  20  21
HETATM   21  O   UNL     1      -8.108  13.523  67.242  1.00  0.00    -0.168 OA 
BRANCH  21  22
HETATM   22  C   UNL     1      -9.466  13.668  67.414  1.00  0.00    -0.225 A  
HETATM   23  C   UNL     1     -10.670  15.507  70.609  1.00  0.00    -0.265 C  
HETATM   24  C   UNL     1      -9.754  15.196  69.510  1.00  0.00    -0.165 C  
HETATM   25  C   UNL     1     -10.238  14.292  68.424  1.00  0.00    -0.245 A  
HETATM   26  C   UNL     1     -11.640  14.103  68.409  1.00  0.00    -0.318 A  
HETATM   27  C   UNL     1     -11.962  15.214  70.477  1.00  0.00    -0.325 C  
HETATM   28  C   UNL     1     -12.276  13.404  67.376  1.00  0.00    -0.262 A  
HETATM   29  O   UNL     1     -12.501  14.575  69.381  1.00  0.00    -0.230 OA 
HETATM   30  C   UNL     1     -11.524  12.863  66.346  1.00  0.00    -0.389 A  
HETATM   31  C   UNL     1     -12.868  15.676  71.562  1.00  0.00    -0.471 C  
HETATM   32  O   UNL     1     -14.155  15.343  71.328  1.00  0.00    -0.494 OA 
HETATM   33  C   UNL     1     -10.137  12.975  66.382  1.00  0.00    -0.279 A  
HETATM   34  O   UNL     1      -8.685  15.786  69.525  1.00  0.00    -0.259 OA 
HETATM   35  O   UNL     1     -12.508  16.294  72.550  1.00  0.00    -0.449 OA 
ENDBRANCH  21  22
ENDBRANCH  20  21
ENDBRANCH   2  20
TORSDOF 6
ENDMDL
MODEL      213
REMARK 921   NORMALIZED FREE ENERGY PREDICTED BY IDOCK:   -5.31 KCAL/MOL
REMARK 922        TOTAL FREE ENERGY PREDICTED BY IDOCK:   -8.47 KCAL/MOL
REMARK 923 INTER-LIGAND FREE ENERGY PREDICTED BY IDOCK:   -7.85 KCAL/MOL
REMARK 924 INTRA-LIGAND FREE ENERGY PREDICTED BY IDOCK:   -0.62 KCAL/MOL
REMARK 927      BINDING AFFINITY PREDICTED BY RF-SCORE:    0.00 PKD
ROOT
HETATM    1  O   UNL     1      -9.760   8.727  65.956  1.00  0.00    -0.336 OA 
HETATM    2  C   UNL     1      -9.419   9.997  66.545  1.00  0.00    -0.175 C  
HETATM    3  H   UNL     1      -9.215   8.064  66.363  1.00  0.00     0.000 HD 
ENDROOT
BRANCH   2   4
HETATM    4  C   UNL     1      -9.641   9.912  68.055  1.00  0.00    -0.138 C  
BRANCH   4   5
HETATM    5  O   UNL     1      -8.887   8.813  68.583  1.00  0.00    -0.136 OA 
BRANCH   5   6
HETATM    6  C   UNL     1      -9.546   7.880  69.337  1.00  0.00    -0.160 A  
HETATM    7  O   UNL     1      -5.939   5.651  74.262  1.00  0.00    -0.055 OA 
HETATM    8  O   UNL     1      -7.820   4.397  74.277  1.00  0.00    -0.086 OA 
HETATM    9  C   UNL     1     -10.876   7.503  69.096  1.00  0.00    -0.105 A  
HETATM   10  C   UNL     1     -11.493   6.511  69.857  1.00  0.00    -0.467 A  
HETATM   11  C   UNL     1      -7.014   5.358  73.771  1.00  0.00    -0.085 C  
HETATM   12  C   UNL     1     -10.789   5.877  70.871  1.00  0.00    -0.347 A  
HETATM   13  O   UNL     1      -8.867   5.592  72.181  1.00  0.00    -0.136 OA 
HETATM   14  C   UNL     1      -7.610   6.003  72.570  1.00  0.00    -0.099 C  
HETATM   15  C   UNL     1      -9.472   6.252  71.138  1.00  0.00    -0.170 A  
HETATM   16  C   UNL     1      -6.893   6.946  71.947  1.00  0.00    -0.062 C  
HETATM   17  C   UNL     1      -8.840   7.248  70.380  1.00  0.00    -0.150 A  
HETATM   18  O   UNL     1      -6.762   8.439  70.177  1.00  0.00    -0.038 OA 
HETATM   19  C   UNL     1      -7.450   7.615  70.758  1.00  0.00    -0.071 C  
ENDBRANCH   5   6
ENDBRANCH   4   5
ENDBRANCH   2   4
BRANCH   2  20
HETATM   20  C   UNL     1     -10.298  11.068  65.889  1.00  0.00    -0.257 C  
BRANCH  20  21
HETATM   21  O   UNL     1     -10.333  12.300  66.581  1.00  0.00    -0.213 OA 
BRANCH  21  22
HETATM   22  C   UNL     1     -10.639  13.452  65.893  1.00  0.00    -0.283 A  
HETATM   23  C   UNL     1      -9.171  16.776  67.251  1.00  0.00    -0.234 C  
HETATM   24  C   UNL     1      -9.207  15.334  66.998  1.00  0.00    -0.218 C  
HETATM   25  C   UNL     1     -10.264  14.804  66.086  1.00  0.00    -0.310 A  
HETATM   26  C   UNL     1     -10.907  15.795  65.307  1.00  0.00    -0.395 A  
HETATM   27  C   UNL     1      -9.880  17.587  66.469  1.00  0.00    -0.310 C  
HETATM   28  C   UNL     1     -11.819  15.460  64.299  1.00  0.00    -0.207 A  
HETATM   29  O   UNL     1     -10.707  17.154  65.455  1.00  0.00    -0.562 OA 
HETATM   30  C   UNL     1     -12.123  14.130  64.060  1.00  0.00    -0.382 A  
HETATM   31  C   UNL     1      -9.700  19.048  66.681  1.00  0.00    -0.341 C  
HETATM   32  O   UNL     1     -10.449  19.783  65.831  1.00  0.00    -0.504 OA 
HETATM   33  C   UNL     1     -11.557  13.145  64.865  1.00  0.00    -0.356 A  
HETATM   34  O   UNL     1      -8.296  14.685  67.489  1.00  0.00    -0.163 OA 
HETATM   35  O   UNL     1      -8.957  19.541  67.513  1.00  0.00    -0.293 OA 
ENDBRANCH  21  22
ENDBRANCH  20  21
ENDBRANCH   2  20
TORSDOF 6
ENDMDL
MODEL      214
REMARK 921   NORMALIZED FREE ENERGY PREDICTED BY IDOCK:   -5.30 KCAL/MOL
REMARK 922        TOTAL FREE ENERGY PREDICTED BY IDOCK:   -8.46 KCAL/MOL
REMARK 923 INTER-LIGAND FREE ENERGY PREDICTED BY IDOCK:   -6.94 KCAL/MOL
REMARK 924 INTRA-LIGAND FREE ENERGY PREDICTED BY IDOCK:   -1.52 KCAL/MOL
REMARK 927      BINDING AFFINITY PREDICTED BY RF-SCORE:    0.00 PKD
ROOT
HETATM    1  O   UNL     1      -9.348   8.912  71.336  1.00  0.00    -0.234 OA 
HETATM    2  C   UNL     1      -9.030   8.313  70.065  1.00  0.00    -0.142 C  
HETATM    3  H   UNL     1      -9.929   9.646  71.173  1.00  0.00     0.000 HD 
ENDROOT
BRANCH   2   4
HETATM    4  C   UNL     1     -10.331   7.882  69.388  1.00  0.00    -0.220 C  
BRANCH   4   5
HETATM    5  O   UNL     1     -11.278   8.956  69.456  1.00  0.00    -0.075 OA 
BRANCH   5   6
HETATM    6  C   UNL     1     -11.134  10.001  68.585  1.00  0.00    -0.174 A  
HETATM    7  O   UNL     1     -12.589  15.726  71.296  1.00  0.00    -0.437 OA 
HETATM    8  O   UNL     1     -12.227  16.169  69.109  1.00  0.00    -0.152 OA 
HETATM    9  C   UNL     1     -10.662   9.844  67.273  1.00  0.00    -0.304 A  
HETATM   10  C   UNL     1     -10.578  10.930  66.402  1.00  0.00    -0.289 A  
HETATM   11  C   UNL     1     -12.333  15.338  70.170  1.00  0.00    -0.353 C  
HETATM   12  C   UNL     1     -10.966  12.192  66.829  1.00  0.00    -0.325 A  
HETATM   13  O   UNL     1     -11.751  13.660  68.478  1.00  0.00    -0.313 OA 
HETATM   14  C   UNL     1     -12.088  13.921  69.789  1.00  0.00    -0.345 C  
HETATM   15  C   UNL     1     -11.420  12.371  68.136  1.00  0.00    -0.318 A  
HETATM   16  C   UNL     1     -12.204  12.988  70.742  1.00  0.00    -0.359 C  
HETATM   17  C   UNL     1     -11.509  11.287  69.021  1.00  0.00    -0.369 A  
HETATM   18  O   UNL     1     -12.117  10.734  71.280  1.00  0.00    -0.330 OA 
HETATM   19  C   UNL     1     -11.962  11.574  70.408  1.00  0.00    -0.368 C  
ENDBRANCH   5   6
ENDBRANCH   4   5
ENDBRANCH   2   4
BRANCH   2  20
HETATM   20  C   UNL     1      -8.094   7.128  70.328  1.00  0.00    -0.118 C  
BRANCH  20  21
HETATM   21  O   UNL     1      -7.095   6.944  69.346  1.00  0.00    -0.074 OA 
BRANCH  21  22
HETATM   22  C   UNL     1      -7.465   6.635  68.056  1.00  0.00    -0.098 A  
HETATM   23  C   UNL     1      -7.509   9.533  65.478  1.00  0.00    -0.102 C  
HETATM   24  C   UNL     1      -7.057   8.807  66.668  1.00  0.00    -0.081 C  
HETATM   25  C   UNL     1      -7.565   7.419  66.881  1.00  0.00    -0.102 A  
HETATM   26  C   UNL     1      -8.164   6.839  65.737  1.00  0.00    -0.135 A  
HETATM   27  C   UNL     1      -8.116   8.861  64.503  1.00  0.00    -0.150 C  
HETATM   28  C   UNL     1      -8.562   5.498  65.718  1.00  0.00    -0.145 A  
HETATM   29  O   UNL     1      -8.408   7.515  64.558  1.00  0.00    -0.079 OA 
HETATM   30  C   UNL     1      -8.388   4.711  66.846  1.00  0.00    -0.106 A  
HETATM   31  C   UNL     1      -8.428   9.618  63.261  1.00  0.00    -0.190 C  
HETATM   32  O   UNL     1      -9.029   8.846  62.330  1.00  0.00    -0.189 OA 
HETATM   33  C   UNL     1      -7.870   5.284  68.004  1.00  0.00    -0.091 A  
HETATM   34  O   UNL     1      -6.217   9.374  67.349  1.00  0.00    -0.059 OA 
HETATM   35  O   UNL     1      -8.168  10.797  63.084  1.00  0.00    -0.116 OA 
ENDBRANCH  21  22
ENDBRANCH  20  21
ENDBRANCH   2  20
TORSDOF 6
ENDMDL
MODEL      215
REMARK 921   NORMALIZED FREE ENERGY PREDICTED BY IDOCK:   -5.30 KCAL/MOL
REMARK 922        TOTAL FREE ENERGY PREDICTED BY IDOCK:   -8.46 KCAL/MOL
REMARK 923 INTER-LIGAND FREE ENERGY PREDICTED BY IDOCK:   -7.41 KCAL/MOL
REMARK 924 INTRA-LIGAND FREE ENERGY PREDICTED BY IDOCK:   -1.05 KCAL/MOL
REMARK 927      BINDING AFFINITY PREDICTED BY RF-SCORE:    0.00 PKD
ROOT
HETATM    1  O   UNL     1      -6.759  10.556  70.857  1.00  0.00    -0.386 OA 
HETATM    2  C   UNL     1      -6.632  10.584  69.422  1.00  0.00    -0.069 C  
HETATM    3  H   UNL     1      -7.001  11.430  71.143  1.00  0.00     0.000 HD 
ENDROOT
BRANCH   2   4
HETATM    4  C   UNL     1      -7.961  11.042  68.821  1.00  0.00    -0.144 C  
BRANCH   4   5
HETATM    5  O   UNL     1      -7.714  11.692  67.568  1.00  0.00    -0.120 OA 
BRANCH   5   6
HETATM    6  C   UNL     1      -8.673  11.607  66.596  1.00  0.00    -0.187 A  
HETATM    7  O   UNL     1     -10.945  17.428  64.810  1.00  0.00    -0.964 OA 
HETATM    8  O   UNL     1     -12.229  15.920  63.721  1.00  0.00    -0.817 OA 
HETATM    9  C   UNL     1      -9.067  10.391  66.015  1.00  0.00    -0.187 A  
HETATM   10  C   UNL     1     -10.085  10.343  65.063  1.00  0.00    -0.379 A  
HETATM   11  C   UNL     1     -11.245  16.271  64.580  1.00  0.00    -0.207 C  
HETATM   12  C   UNL     1     -10.727  11.511  64.677  1.00  0.00    -0.379 A  
HETATM   13  O   UNL     1     -11.008  13.836  64.762  1.00  0.00    -0.351 OA 
HETATM   14  C   UNL     1     -10.585  15.080  65.180  1.00  0.00    -0.418 C  
HETATM   15  C   UNL     1     -10.337  12.731  65.230  1.00  0.00    -0.296 A  
HETATM   16  C   UNL     1      -9.618  15.290  66.081  1.00  0.00    -0.353 C  
HETATM   17  C   UNL     1      -9.315  12.792  66.188  1.00  0.00    -0.114 A  
HETATM   18  O   UNL     1      -8.086  14.348  67.546  1.00  0.00    -0.162 OA 
HETATM   19  C   UNL     1      -8.934  14.138  66.693  1.00  0.00    -0.169 C  
ENDBRANCH   5   6
ENDBRANCH   4   5
ENDBRANCH   2   4
BRANCH   2  20
HETATM   20  C   UNL     1      -6.242   9.175  68.961  1.00  0.00    -0.043 C  
BRANCH  20  21
HETATM   21  O   UNL     1      -6.889   8.747  67.779  1.00  0.00    -0.068 OA 
BRANCH  21  22
HETATM   22  C   UNL     1      -7.509   7.519  67.754  1.00  0.00    -0.101 A  
HETATM   23  C   UNL     1      -8.111   5.900  64.282  1.00  0.00    -0.119 C  
HETATM   24  C   UNL     1      -7.419   6.733  65.267  1.00  0.00    -0.086 C  
HETATM   25  C   UNL     1      -7.856   6.648  66.694  1.00  0.00    -0.104 A  
HETATM   26  C   UNL     1      -8.667   5.526  66.984  1.00  0.00    -0.108 A  
HETATM   27  C   UNL     1      -8.896   4.912  64.707  1.00  0.00    -0.147 C  
HETATM   28  C   UNL     1      -9.045   5.214  68.296  1.00  0.00    -0.128 A  
HETATM   29  O   UNL     1      -9.155   4.649  66.035  1.00  0.00    -0.122 OA 
HETATM   30  C   UNL     1      -8.637   6.026  69.342  1.00  0.00    -0.122 A  
HETATM   31  C   UNL     1      -9.463   4.012  63.669  1.00  0.00    -0.147 C  
HETATM   32  O   UNL     1     -10.232   3.038  64.201  1.00  0.00    -0.160 OA 
HETATM   33  C   UNL     1      -7.900   7.175  69.067  1.00  0.00    -0.114 A  
HETATM   34  O   UNL     1      -6.464   7.369  64.849  1.00  0.00    -0.037 OA 
HETATM   35  O   UNL     1      -9.259   4.121  62.470  1.00  0.00    -0.107 OA 
ENDBRANCH  21  22
ENDBRANCH  20  21
ENDBRANCH   2  20
TORSDOF 6
ENDMDL
MODEL      216
REMARK 921   NORMALIZED FREE ENERGY PREDICTED BY IDOCK:   -5.26 KCAL/MOL
REMARK 922        TOTAL FREE ENERGY PREDICTED BY IDOCK:   -8.40 KCAL/MOL
REMARK 923 INTER-LIGAND FREE ENERGY PREDICTED BY IDOCK:   -8.09 KCAL/MOL
REMARK 924 INTRA-LIGAND FREE ENERGY PREDICTED BY IDOCK:   -0.31 KCAL/MOL
REMARK 927      BINDING AFFINITY PREDICTED BY RF-SCORE:    0.00 PKD
ROOT
HETATM    1  O   UNL     1      -8.898   9.284  71.136  1.00  0.00    -0.257 OA 
HETATM    2  C   UNL     1      -9.467   9.841  69.935  1.00  0.00    -0.231 C  
HETATM    3  H   UNL     1      -9.600   8.868  71.623  1.00  0.00     0.000 HD 
ENDROOT
BRANCH   2   4
HETATM    4  C   UNL     1     -10.134   8.717  69.143  1.00  0.00    -0.199 C  
BRANCH   4   5
HETATM    5  O   UNL     1      -9.441   7.487  69.390  1.00  0.00    -0.156 OA 
BRANCH   5   6
HETATM    6  C   UNL     1      -8.506   7.077  68.480  1.00  0.00    -0.121 A  
HETATM    7  O   UNL     1     -11.077   3.492  63.707  1.00  0.00    -0.299 OA 
HETATM    8  O   UNL     1      -8.842   3.425  63.374  1.00  0.00    -0.093 OA 
HETATM    9  C   UNL     1      -7.155   7.451  68.549  1.00  0.00    -0.084 A  
HETATM   10  C   UNL     1      -6.225   6.969  67.628  1.00  0.00    -0.041 A  
HETATM   11  C   UNL     1      -9.950   3.791  64.058  1.00  0.00    -0.190 C  
HETATM   12  C   UNL     1      -6.632   6.103  66.622  1.00  0.00    -0.059 A  
HETATM   13  O   UNL     1      -8.287   4.901  65.479  1.00  0.00    -0.115 OA 
HETATM   14  C   UNL     1      -9.615   4.601  65.259  1.00  0.00    -0.151 C  
HETATM   15  C   UNL     1      -7.974   5.735  66.526  1.00  0.00    -0.102 A  
HETATM   16  C   UNL     1     -10.622   4.994  66.049  1.00  0.00    -0.286 C  
HETATM   17  C   UNL     1      -8.918   6.213  67.446  1.00  0.00    -0.112 A  
HETATM   18  O   UNL     1     -11.261   6.115  67.976  1.00  0.00    -0.310 OA 
HETATM   19  C   UNL     1     -10.334   5.805  67.245  1.00  0.00    -0.230 C  
ENDBRANCH   5   6
ENDBRANCH   4   5
ENDBRANCH   2   4
BRANCH   2  20
HETATM   20  C   UNL     1      -8.335  10.512  69.149  1.00  0.00    -0.151 C  
BRANCH  20  21
HETATM   21  O   UNL     1      -8.713  10.993  67.876  1.00  0.00    -0.128 OA 
BRANCH  21  22
HETATM   22  C   UNL     1      -8.704  12.348  67.635  1.00  0.00    -0.178 A  
HETATM   23  C   UNL     1     -11.606  13.796  65.507  1.00  0.00    -0.335 C  
HETATM   24  C   UNL     1     -10.967  12.868  66.443  1.00  0.00    -0.285 C  
HETATM   25  C   UNL     1      -9.596  13.198  66.937  1.00  0.00    -0.248 A  
HETATM   26  C   UNL     1      -9.203  14.536  66.703  1.00  0.00    -0.266 A  
HETATM   27  C   UNL     1     -11.085  15.010  65.343  1.00  0.00    -0.374 C  
HETATM   28  C   UNL     1      -8.012  15.053  67.227  1.00  0.00    -0.234 A  
HETATM   29  O   UNL     1      -9.931  15.445  65.960  1.00  0.00    -0.278 OA 
HETATM   30  C   UNL     1      -7.179  14.240  67.978  1.00  0.00    -0.146 A  
HETATM   31  C   UNL     1     -11.850  15.958  64.491  1.00  0.00    -0.084 C  
HETATM   32  O   UNL     1     -11.247  17.162  64.399  1.00  0.00    -1.143 OA 
HETATM   33  C   UNL     1      -7.513  12.899  68.155  1.00  0.00    -0.126 A  
HETATM   34  O   UNL     1     -11.657  11.933  66.819  1.00  0.00    -0.461 OA 
HETATM   35  O   UNL     1     -12.906  15.697  63.939  1.00  0.00    -0.619 OA 
ENDBRANCH  21  22
ENDBRANCH  20  21
ENDBRANCH   2  20
TORSDOF 6
ENDMDL
MODEL      217
REMARK 921   NORMALIZED FREE ENERGY PREDICTED BY IDOCK:   -5.25 KCAL/MOL
REMARK 922        TOTAL FREE ENERGY PREDICTED BY IDOCK:   -8.39 KCAL/MOL
REMARK 923 INTER-LIGAND FREE ENERGY PREDICTED BY IDOCK:   -7.49 KCAL/MOL
REMARK 924 INTRA-LIGAND FREE ENERGY PREDICTED BY IDOCK:   -0.90 KCAL/MOL
REMARK 927      BINDING AFFINITY PREDICTED BY RF-SCORE:    0.00 PKD
ROOT
HETATM    1  O   UNL     1      -6.617  10.775  71.100  1.00  0.00    -0.266 OA 
HETATM    2  C   UNL     1      -6.820  10.466  69.707  1.00  0.00    -0.130 C  
HETATM    3  H   UNL     1      -6.601  11.721  71.188  1.00  0.00     0.000 HD 
ENDROOT
BRANCH   2   4
HETATM    4  C   UNL     1      -8.128  11.112  69.248  1.00  0.00     0.055 C  
BRANCH   4   5
HETATM    5  O   UNL     1      -7.902  11.818  68.021  1.00  0.00    -0.118 OA 
BRANCH   5   6
HETATM    6  C   UNL     1      -8.821  11.679  67.018  1.00  0.00    -0.177 A  
HETATM    7  O   UNL     1     -10.927  17.395  64.752  1.00  0.00    -0.964 OA 
HETATM    8  O   UNL     1     -12.187  15.833  63.711  1.00  0.00    -0.699 OA 
HETATM    9  C   UNL     1      -9.209  10.433  66.502  1.00  0.00    -0.184 A  
HETATM   10  C   UNL     1     -10.187  10.333  65.513  1.00  0.00    -0.308 A  
HETATM   11  C   UNL     1     -11.235  16.229  64.586  1.00  0.00    -0.254 C  
HETATM   12  C   UNL     1     -10.795  11.480  65.023  1.00  0.00    -0.336 A  
HETATM   13  O   UNL     1     -11.043  13.809  64.941  1.00  0.00    -0.329 OA 
HETATM   14  C   UNL     1     -10.618  15.073  65.292  1.00  0.00    -0.397 C  
HETATM   15  C   UNL     1     -10.409  12.730  65.509  1.00  0.00    -0.284 A  
HETATM   16  C   UNL     1      -9.687  15.331  66.217  1.00  0.00    -0.325 C  
HETATM   17  C   UNL     1      -9.427  12.843  66.504  1.00  0.00    -0.251 A  
HETATM   18  O   UNL     1      -8.232  14.471  67.807  1.00  0.00    -0.142 OA 
HETATM   19  C   UNL     1      -9.047  14.214  66.934  1.00  0.00    -0.245 C  
ENDBRANCH   5   6
ENDBRANCH   4   5
ENDBRANCH   2   4
BRANCH   2  20
HETATM   20  C   UNL     1      -6.846   8.940  69.565  1.00  0.00    -0.048 C  
BRANCH  20  21
HETATM   21  O   UNL     1      -7.894   8.447  68.755  1.00  0.00    -0.110 OA 
BRANCH  21  22
HETATM   22  C   UNL     1      -8.171   7.099  68.756  1.00  0.00    -0.122 A  
HETATM   23  C   UNL     1     -10.057   5.674  71.832  1.00  0.00    -0.235 C  
HETATM   24  C   UNL     1      -9.677   6.691  70.848  1.00  0.00    -0.179 C  
HETATM   25  C   UNL     1      -8.849   6.266  69.680  1.00  0.00    -0.136 A  
HETATM   26  C   UNL     1      -8.803   4.866  69.481  1.00  0.00    -0.090 A  
HETATM   27  C   UNL     1      -9.899   4.388  71.527  1.00  0.00    -0.189 C  
HETATM   28  C   UNL     1      -8.194   4.306  68.352  1.00  0.00    -0.087 A  
HETATM   29  O   UNL     1      -9.339   3.937  70.350  1.00  0.00    -0.128 OA 
HETATM   30  C   UNL     1      -7.601   5.129  67.408  1.00  0.00    -0.088 A  
HETATM   31  C   UNL     1     -10.427   3.398  72.502  1.00  0.00    -0.060 C  
HETATM   32  O   UNL     1     -10.231   2.126  72.095  1.00  0.00    -0.160 OA 
HETATM   33  C   UNL     1      -7.570   6.504  67.625  1.00  0.00    -0.105 A  
HETATM   34  O   UNL     1     -10.156   7.801  71.020  1.00  0.00    -0.186 OA 
HETATM   35  O   UNL     1     -10.986   3.685  73.548  1.00  0.00    -0.209 OA 
ENDBRANCH  21  22
ENDBRANCH  20  21
ENDBRANCH   2  20
TORSDOF 6
ENDMDL
MODEL      218
REMARK 921   NORMALIZED FREE ENERGY PREDICTED BY IDOCK:   -5.24 KCAL/MOL
REMARK 922        TOTAL FREE ENERGY PREDICTED BY IDOCK:   -8.38 KCAL/MOL
REMARK 923 INTER-LIGAND FREE ENERGY PREDICTED BY IDOCK:   -6.32 KCAL/MOL
REMARK 924 INTRA-LIGAND FREE ENERGY PREDICTED BY IDOCK:   -2.06 KCAL/MOL
REMARK 927      BINDING AFFINITY PREDICTED BY RF-SCORE:    0.00 PKD
ROOT
HETATM    1  O   UNL     1      -8.390   3.533  68.597  1.00  0.00    -0.074 OA 
HETATM    2  C   UNL     1      -7.403   4.562  68.392  1.00  0.00    -0.065 C  
HETATM    3  H   UNL     1      -7.975   2.825  69.077  1.00  0.00     0.000 HD 
ENDROOT
BRANCH   2   4
HETATM    4  C   UNL     1      -6.878   5.016  69.754  1.00  0.00    -0.052 C  
BRANCH   4   5
HETATM    5  O   UNL     1      -7.935   4.935  70.719  1.00  0.00    -0.079 OA 
BRANCH   5   6
HETATM    6  C   UNL     1      -8.196   6.037  71.486  1.00  0.00    -0.123 A  
HETATM    7  O   UNL     1     -14.406   7.918  71.127  1.00  0.00    -0.314 OA 
HETATM    8  O   UNL     1     -13.363   9.511  72.346  1.00  0.00    -0.446 OA 
HETATM    9  C   UNL     1      -7.231   6.644  72.305  1.00  0.00    -0.084 A  
HETATM   10  C   UNL     1      -7.525   7.797  73.032  1.00  0.00    -0.131 A  
HETATM   11  C   UNL     1     -13.388   8.373  71.615  1.00  0.00    -0.338 C  
HETATM   12  C   UNL     1      -8.790   8.363  72.952  1.00  0.00    -0.258 A  
HETATM   13  O   UNL     1     -10.998   8.375  72.169  1.00  0.00    -0.293 OA 
HETATM   14  C   UNL     1     -12.037   7.760  71.502  1.00  0.00    -0.309 C  
HETATM   15  C   UNL     1      -9.767   7.762  72.159  1.00  0.00    -0.185 A  
HETATM   16  C   UNL     1     -11.915   6.648  70.768  1.00  0.00    -0.412 C  
HETATM   17  C   UNL     1      -9.484   6.603  71.423  1.00  0.00    -0.161 A  
HETATM   18  O   UNL     1     -10.496   5.017  69.926  1.00  0.00    -0.280 OA 
HETATM   19  C   UNL     1     -10.596   6.005  70.637  1.00  0.00    -0.260 C  
ENDBRANCH   5   6
ENDBRANCH   4   5
ENDBRANCH   2   4
BRANCH   2  20
HETATM   20  C   UNL     1      -8.072   5.703  67.618  1.00  0.00    -0.101 C  
BRANCH  20  21
HETATM   21  O   UNL     1      -7.239   6.822  67.391  1.00  0.00    -0.084 OA 
BRANCH  21  22
HETATM   22  C   UNL     1      -7.594   8.045  67.914  1.00  0.00    -0.112 A  
HETATM   23  C   UNL     1      -9.867  10.316  65.741  1.00  0.00    -0.320 C  
HETATM   24  C   UNL     1      -9.330   9.050  66.243  1.00  0.00    -0.225 C  
HETATM   25  C   UNL     1      -8.411   9.091  67.421  1.00  0.00    -0.115 A  
HETATM   26  C   UNL     1      -8.427  10.319  68.124  1.00  0.00    -0.123 A  
HETATM   27  C   UNL     1      -9.755  11.409  66.492  1.00  0.00    -0.200 C  
HETATM   28  C   UNL     1      -7.739  10.481  69.332  1.00  0.00    -0.157 A  
HETATM   29  O   UNL     1      -9.104  11.448  67.707  1.00  0.00    -0.151 OA 
HETATM   30  C   UNL     1      -7.004   9.429  69.853  1.00  0.00    -0.071 A  
HETATM   31  C   UNL     1     -10.438  12.634  65.999  1.00  0.00    -0.268 C  
HETATM   32  O   UNL     1     -10.276  13.681  66.836  1.00  0.00    -0.254 OA 
HETATM   33  C   UNL     1      -6.916   8.237  69.137  1.00  0.00    -0.063 A  
HETATM   34  O   UNL     1      -9.757   8.040  65.706  1.00  0.00     0.069 OA 
HETATM   35  O   UNL     1     -11.084  12.699  64.965  1.00  0.00    -0.279 OA 
ENDBRANCH  21  22
ENDBRANCH  20  21
ENDBRANCH   2  20
TORSDOF 6
ENDMDL
MODEL      219
REMARK 921   NORMALIZED FREE ENERGY PREDICTED BY IDOCK:   -5.24 KCAL/MOL
REMARK 922        TOTAL FREE ENERGY PREDICTED BY IDOCK:   -8.37 KCAL/MOL
REMARK 923 INTER-LIGAND FREE ENERGY PREDICTED BY IDOCK:   -7.97 KCAL/MOL
REMARK 924 INTRA-LIGAND FREE ENERGY PREDICTED BY IDOCK:   -0.40 KCAL/MOL
REMARK 927      BINDING AFFINITY PREDICTED BY RF-SCORE:    0.00 PKD
ROOT
HETATM    1  O   UNL     1     -10.612  10.595  65.908  1.00  0.00    -0.199 OA 
HETATM    2  C   UNL     1     -10.166  11.099  67.182  1.00  0.00    -0.200 C  
HETATM    3  H   UNL     1     -10.949  11.330  65.408  1.00  0.00     0.000 HD 
ENDROOT
BRANCH   2   4
HETATM    4  C   UNL     1      -9.102  12.170  66.939  1.00  0.00    -0.203 C  
BRANCH   4   5
HETATM    5  O   UNL     1      -8.960  12.972  68.119  1.00  0.00    -0.191 OA 
BRANCH   5   6
HETATM    6  C   UNL     1      -9.623  14.167  68.172  1.00  0.00    -0.218 A  
HETATM    7  O   UNL     1      -5.977  19.136  66.110  1.00  0.00    -0.160 OA 
HETATM    8  O   UNL     1      -7.881  20.070  66.896  1.00  0.00    -0.282 OA 
HETATM    9  C   UNL     1     -10.964  14.281  68.570  1.00  0.00    -0.267 A  
HETATM   10  C   UNL     1     -11.587  15.526  68.659  1.00  0.00    -0.379 A  
HETATM   11  C   UNL     1      -7.066  19.021  66.645  1.00  0.00    -0.211 C  
HETATM   12  C   UNL     1     -10.878  16.678  68.350  1.00  0.00    -0.361 A  
HETATM   13  O   UNL     1      -8.940  17.774  67.619  1.00  0.00    -0.245 OA 
HETATM   14  C   UNL     1      -7.669  17.735  67.085  1.00  0.00    -0.205 C  
HETATM   15  C   UNL     1      -9.550  16.583  67.934  1.00  0.00    -0.233 A  
HETATM   16  C   UNL     1      -6.946  16.620  66.932  1.00  0.00    -0.262 C  
HETATM   17  C   UNL     1      -8.913  15.338  67.841  1.00  0.00    -0.170 A  
HETATM   18  O   UNL     1      -6.817  14.324  67.242  1.00  0.00    -0.234 OA 
HETATM   19  C   UNL     1      -7.510  15.324  67.349  1.00  0.00    -0.209 C  
ENDBRANCH   5   6
ENDBRANCH   4   5
ENDBRANCH   2   4
BRANCH   2  20
HETATM   20  C   UNL     1      -9.622   9.913  67.988  1.00  0.00    -0.138 C  
BRANCH  20  21
HETATM   21  O   UNL     1     -10.591   8.940  68.321  1.00  0.00    -0.212 OA 
BRANCH  21  22
HETATM   22  C   UNL     1     -10.757   8.575  69.637  1.00  0.00    -0.197 A  
HETATM   23  C   UNL     1      -9.860   4.925  70.596  1.00  0.00    -0.289 C  
HETATM   24  C   UNL     1      -9.760   6.171  69.833  1.00  0.00    -0.163 C  
HETATM   25  C   UNL     1     -10.511   7.363  70.328  1.00  0.00    -0.229 A  
HETATM   26  C   UNL     1     -10.969   7.246  71.661  1.00  0.00    -0.226 A  
HETATM   27  C   UNL     1     -10.373   4.959  71.824  1.00  0.00    -0.179 C  
HETATM   28  C   UNL     1     -11.563   8.323  72.330  1.00  0.00    -0.464 A  
HETATM   29  O   UNL     1     -10.879   6.095  72.419  1.00  0.00    -0.220 OA 
HETATM   30  C   UNL     1     -11.730   9.533  71.677  1.00  0.00    -0.460 A  
HETATM   31  C   UNL     1     -10.324   3.695  72.606  1.00  0.00    -0.147 C  
HETATM   32  O   UNL     1     -10.854   3.837  73.839  1.00  0.00    -0.211 OA 
HETATM   33  C   UNL     1     -11.353   9.644  70.340  1.00  0.00    -0.337 A  
HETATM   34  O   UNL     1      -8.983   6.156  68.890  1.00  0.00    -0.124 OA 
HETATM   35  O   UNL     1      -9.853   2.646  72.198  1.00  0.00    -0.144 OA 
ENDBRANCH  21  22
ENDBRANCH  20  21
ENDBRANCH   2  20
TORSDOF 6
ENDMDL
MODEL      220
REMARK 921   NORMALIZED FREE ENERGY PREDICTED BY IDOCK:   -5.21 KCAL/MOL
REMARK 922        TOTAL FREE ENERGY PREDICTED BY IDOCK:   -8.33 KCAL/MOL
REMARK 923 INTER-LIGAND FREE ENERGY PREDICTED BY IDOCK:   -7.75 KCAL/MOL
REMARK 924 INTRA-LIGAND FREE ENERGY PREDICTED BY IDOCK:   -0.58 KCAL/MOL
REMARK 927      BINDING AFFINITY PREDICTED BY RF-SCORE:    0.00 PKD
ROOT
HETATM    1  O   UNL     1     -11.805  11.955  70.205  1.00  0.00    -0.408 OA 
HETATM    2  C   UNL     1     -11.394  10.829  69.406  1.00  0.00    -0.285 C  
HETATM    3  H   UNL     1     -12.479  11.654  70.804  1.00  0.00     0.000 HD 
ENDROOT
BRANCH   2   4
HETATM    4  C   UNL     1     -10.890   9.726  70.336  1.00  0.00    -0.311 C  
BRANCH   4   5
HETATM    5  O   UNL     1     -11.704   8.558  70.169  1.00  0.00    -0.018 OA 
BRANCH   5   6
HETATM    6  C   UNL     1     -11.205   7.357  70.594  1.00  0.00    -0.270 A  
HETATM    7  O   UNL     1      -8.682   3.846  65.741  1.00  0.00    -0.110 OA 
HETATM    8  O   UNL     1      -8.619   2.499  67.556  1.00  0.00    -0.088 OA 
HETATM    9  C   UNL     1     -11.191   6.968  71.942  1.00  0.00    -0.282 A  
HETATM   10  C   UNL     1     -10.720   5.713  72.326  1.00  0.00    -0.281 A  
HETATM   11  C   UNL     1      -8.929   3.650  66.918  1.00  0.00    -0.144 C  
HETATM   12  C   UNL     1     -10.256   4.825  71.366  1.00  0.00    -0.237 A  
HETATM   13  O   UNL     1      -9.736   4.268  69.151  1.00  0.00    -0.183 OA 
HETATM   14  C   UNL     1      -9.584   4.628  67.828  1.00  0.00    -0.159 C  
HETATM   15  C   UNL     1     -10.244   5.201  70.023  1.00  0.00    -0.284 A  
HETATM   16  C   UNL     1      -9.981   5.796  67.310  1.00  0.00    -0.178 C  
HETATM   17  C   UNL     1     -10.715   6.459  69.625  1.00  0.00    -0.339 A  
HETATM   18  O   UNL     1     -11.022   7.836  67.678  1.00  0.00    -0.118 OA 
HETATM   19  C   UNL     1     -10.627   6.794  68.179  1.00  0.00    -0.230 C  
ENDBRANCH   5   6
ENDBRANCH   4   5
ENDBRANCH   2   4
BRANCH   2  20
HETATM   20  C   UNL     1     -10.307  11.314  68.440  1.00  0.00    -0.192 C  
BRANCH  20  21
HETATM   21  O   UNL     1     -10.485  12.638  67.977  1.00  0.00    -0.212 OA 
BRANCH  21  22
HETATM   22  C   UNL     1      -9.437  13.527  68.053  1.00  0.00    -0.220 A  
HETATM   23  C   UNL     1     -10.313  17.263  68.618  1.00  0.00    -0.357 C  
HETATM   24  C   UNL     1     -10.501  15.814  68.723  1.00  0.00    -0.228 C  
HETATM   25  C   UNL     1      -9.388  14.925  68.273  1.00  0.00    -0.195 A  
HETATM   26  C   UNL     1      -8.149  15.587  68.105  1.00  0.00    -0.132 A  
HETATM   27  C   UNL     1      -9.091  17.742  68.396  1.00  0.00    -0.278 C  
HETATM   28  C   UNL     1      -6.973  14.882  67.827  1.00  0.00    -0.193 A  
HETATM   29  O   UNL     1      -7.977  16.955  68.196  1.00  0.00    -0.183 OA 
HETATM   30  C   UNL     1      -7.010  13.504  67.693  1.00  0.00    -0.176 A  
HETATM   31  C   UNL     1      -8.933  19.220  68.437  1.00  0.00    -0.352 C  
HETATM   32  O   UNL     1      -7.658  19.603  68.214  1.00  0.00    -0.301 OA 
HETATM   33  C   UNL     1      -8.233  12.843  67.780  1.00  0.00    -0.174 A  
HETATM   34  O   UNL     1     -11.532  15.450  69.266  1.00  0.00    -0.288 OA 
HETATM   35  O   UNL     1      -9.838  20.008  68.657  1.00  0.00    -0.349 OA 
ENDBRANCH  21  22
ENDBRANCH  20  21
ENDBRANCH   2  20
TORSDOF 6
ENDMDL
MODEL      221
REMARK 921   NORMALIZED FREE ENERGY PREDICTED BY IDOCK:   -5.21 KCAL/MOL
REMARK 922        TOTAL FREE ENERGY PREDICTED BY IDOCK:   -8.33 KCAL/MOL
REMARK 923 INTER-LIGAND FREE ENERGY PREDICTED BY IDOCK:   -7.82 KCAL/MOL
REMARK 924 INTRA-LIGAND FREE ENERGY PREDICTED BY IDOCK:   -0.50 KCAL/MOL
REMARK 927      BINDING AFFINITY PREDICTED BY RF-SCORE:    0.00 PKD
ROOT
HETATM    1  O   UNL     1     -13.883  14.247  65.478  1.00  0.00    -0.304 OA 
HETATM    2  C   UNL     1     -12.526  13.781  65.607  1.00  0.00    -0.503 C  
HETATM    3  H   UNL     1     -13.979  15.015  66.029  1.00  0.00     0.000 HD 
ENDROOT
BRANCH   2   4
HETATM    4  C   UNL     1     -11.580  14.909  65.198  1.00  0.00    -0.330 C  
BRANCH   4   5
HETATM    5  O   UNL     1     -10.423  14.887  66.043  1.00  0.00    -0.290 OA 
BRANCH   5   6
HETATM    6  C   UNL     1     -10.507  15.484  67.271  1.00  0.00    -0.279 A  
HETATM    7  O   UNL     1      -6.106  20.200  68.063  1.00  0.00    -0.221 OA 
HETATM    8  O   UNL     1      -7.120  19.978  70.072  1.00  0.00    -0.175 OA 
HETATM    9  C   UNL     1     -11.484  15.146  68.220  1.00  0.00    -0.350 A  
HETATM   10  C   UNL     1     -11.504  15.744  69.480  1.00  0.00    -0.356 A  
HETATM   11  C   UNL     1      -6.912  19.635  68.780  1.00  0.00    -0.339 C  
HETATM   12  C   UNL     1     -10.545  16.691  69.811  1.00  0.00    -0.227 A  
HETATM   13  O   UNL     1      -8.691  18.022  69.282  1.00  0.00     0.059 OA 
HETATM   14  C   UNL     1      -7.789  18.509  68.359  1.00  0.00    -0.310 C  
HETATM   15  C   UNL     1      -9.577  17.054  68.874  1.00  0.00    -0.248 A  
HETATM   16  C   UNL     1      -7.653  18.044  67.112  1.00  0.00    -0.226 C  
HETATM   17  C   UNL     1      -9.547  16.459  67.605  1.00  0.00    -0.227 A  
HETATM   18  O   UNL     1      -8.339  16.495  65.527  1.00  0.00    -0.014 OA 
HETATM   19  C   UNL     1      -8.508  16.935  66.653  1.00  0.00    -0.250 C  
ENDBRANCH   5   6
ENDBRANCH   4   5
ENDBRANCH   2   4
BRANCH   2  20
HETATM   20  C   UNL     1     -12.371  12.542  64.718  1.00  0.00    -0.474 C  
BRANCH  20  21
HETATM   21  O   UNL     1     -11.702  11.460  65.335  1.00  0.00    -0.052 OA 
BRANCH  21  22
HETATM   22  C   UNL     1     -10.628  10.879  64.699  1.00  0.00    -0.262 A  
HETATM   23  C   UNL     1      -8.588   8.253  66.696  1.00  0.00    -0.135 C  
HETATM   24  C   UNL     1      -9.782   9.009  66.311  1.00  0.00    -0.275 C  
HETATM   25  C   UNL     1      -9.702   9.888  65.107  1.00  0.00    -0.376 A  
HETATM   26  C   UNL     1      -8.582   9.637  64.279  1.00  0.00    -0.191 A  
HETATM   27  C   UNL     1      -7.581   8.151  65.831  1.00  0.00    -0.082 C  
HETATM   28  C   UNL     1      -8.429  10.268  63.040  1.00  0.00    -0.180 A  
HETATM   29  O   UNL     1      -7.556   8.768  64.598  1.00  0.00    -0.101 OA 
HETATM   30  C   UNL     1      -9.380  11.178  62.607  1.00  0.00    -0.336 A  
HETATM   31  C   UNL     1      -6.455   7.259  66.215  1.00  0.00    -0.048 C  
HETATM   32  O   UNL     1      -5.494   7.214  65.268  1.00  0.00    -0.027 OA 
HETATM   33  C   UNL     1     -10.450  11.494  63.441  1.00  0.00    -0.466 A  
HETATM   34  O   UNL     1     -10.788   8.782  66.965  1.00  0.00    -0.193 OA 
HETATM   35  O   UNL     1      -6.397   6.626  67.257  1.00  0.00    -0.034 OA 
ENDBRANCH  21  22
ENDBRANCH  20  21
ENDBRANCH   2  20
TORSDOF 6
ENDMDL
MODEL      222
REMARK 921   NORMALIZED FREE ENERGY PREDICTED BY IDOCK:   -5.19 KCAL/MOL
REMARK 922        TOTAL FREE ENERGY PREDICTED BY IDOCK:   -8.31 KCAL/MOL
REMARK 923 INTER-LIGAND FREE ENERGY PREDICTED BY IDOCK:   -7.58 KCAL/MOL
REMARK 924 INTRA-LIGAND FREE ENERGY PREDICTED BY IDOCK:   -0.73 KCAL/MOL
REMARK 927      BINDING AFFINITY PREDICTED BY RF-SCORE:    0.00 PKD
ROOT
HETATM    1  O   UNL     1      -9.399   6.559  65.388  1.00  0.00    -0.352 OA 
HETATM    2  C   UNL     1      -8.322   7.466  65.698  1.00  0.00    -0.140 C  
HETATM    3  H   UNL     1      -9.034   5.836  64.890  1.00  0.00     0.000 HD 
ENDROOT
BRANCH   2   4
HETATM    4  C   UNL     1      -7.252   6.705  66.481  1.00  0.00    -0.073 C  
BRANCH   4   5
HETATM    5  O   UNL     1      -7.691   6.527  67.833  1.00  0.00    -0.101 OA 
BRANCH   5   6
HETATM    6  C   UNL     1      -7.686   5.262  68.354  1.00  0.00    -0.080 A  
HETATM    7  O   UNL     1     -11.526   4.690  73.565  1.00  0.00    -0.314 OA 
HETATM    8  O   UNL     1     -10.448   2.709  73.390  1.00  0.00    -0.123 OA 
HETATM    9  C   UNL     1      -6.972   4.201  67.776  1.00  0.00    -0.056 A  
HETATM   10  C   UNL     1      -6.952   2.938  68.368  1.00  0.00    -0.048 A  
HETATM   11  C   UNL     1     -10.709   3.980  73.006  1.00  0.00    -0.165 C  
HETATM   12  C   UNL     1      -7.646   2.717  69.549  1.00  0.00    -0.043 A  
HETATM   13  O   UNL     1      -9.057   3.431  71.278  1.00  0.00    -0.090 OA 
HETATM   14  C   UNL     1      -9.894   4.380  71.828  1.00  0.00    -0.185 C  
HETATM   15  C   UNL     1      -8.377   3.754  70.128  1.00  0.00    -0.059 A  
HETATM   16  C   UNL     1     -10.026   5.631  71.372  1.00  0.00    -0.237 C  
HETATM   17  C   UNL     1      -8.404   5.028  69.543  1.00  0.00    -0.088 A  
HETATM   18  O   UNL     1      -9.342   7.223  69.829  1.00  0.00    -0.151 OA 
HETATM   19  C   UNL     1      -9.242   6.064  70.203  1.00  0.00    -0.154 C  
ENDBRANCH   5   6
ENDBRANCH   4   5
ENDBRANCH   2   4
BRANCH   2  20
HETATM   20  C   UNL     1      -8.910   8.631  66.501  1.00  0.00    -0.138 C  
BRANCH  20  21
HETATM   21  O   UNL     1      -9.289   9.746  65.721  1.00  0.00    -0.186 OA 
BRANCH  21  22
HETATM   22  C   UNL     1      -9.267  11.003  66.282  1.00  0.00    -0.182 A  
HETATM   23  C   UNL     1     -11.115  13.833  64.379  1.00  0.00    -0.356 C  
HETATM   24  C   UNL     1     -10.862  12.458  64.816  1.00  0.00    -0.304 C  
HETATM   25  C   UNL     1      -9.843  12.234  65.884  1.00  0.00    -0.266 A  
HETATM   26  C   UNL     1      -9.474  13.405  66.588  1.00  0.00    -0.260 A  
HETATM   27  C   UNL     1     -10.651  14.841  65.115  1.00  0.00    -0.417 C  
HETATM   28  C   UNL     1      -8.641  13.354  67.711  1.00  0.00    -0.194 A  
HETATM   29  O   UNL     1      -9.885  14.680  66.250  1.00  0.00    -0.271 OA 
HETATM   30  C   UNL     1      -8.144  12.136  68.146  1.00  0.00    -0.161 A  
HETATM   31  C   UNL     1     -11.053  16.212  64.703  1.00  0.00    -0.296 C  
HETATM   32  O   UNL     1     -10.544  17.160  65.519  1.00  0.00    -0.563 OA 
HETATM   33  C   UNL     1      -8.435  10.983  67.423  1.00  0.00    -0.132 A  
HETATM   34  O   UNL     1     -11.585  11.604  64.327  1.00  0.00    -0.311 OA 
HETATM   35  O   UNL     1     -11.768  16.467  63.748  1.00  0.00    -1.086 OA 
ENDBRANCH  21  22
ENDBRANCH  20  21
ENDBRANCH   2  20
TORSDOF 6
ENDMDL
MODEL      223
REMARK 921   NORMALIZED FREE ENERGY PREDICTED BY IDOCK:   -5.19 KCAL/MOL
REMARK 922        TOTAL FREE ENERGY PREDICTED BY IDOCK:   -8.31 KCAL/MOL
REMARK 923 INTER-LIGAND FREE ENERGY PREDICTED BY IDOCK:   -7.64 KCAL/MOL
REMARK 924 INTRA-LIGAND FREE ENERGY PREDICTED BY IDOCK:   -0.66 KCAL/MOL
REMARK 927      BINDING AFFINITY PREDICTED BY RF-SCORE:    0.00 PKD
ROOT
HETATM    1  O   UNL     1      -9.146  11.347  64.819  1.00  0.00    -0.386 OA 
HETATM    2  C   UNL     1      -9.108  11.496  66.251  1.00  0.00    -0.208 C  
HETATM    3  H   UNL     1      -8.249  11.304  64.508  1.00  0.00     0.000 HD 
ENDROOT
BRANCH   2   4
HETATM    4  C   UNL     1      -8.347  10.312  66.846  1.00  0.00    -0.123 C  
BRANCH   4   5
HETATM    5  O   UNL     1      -8.594   9.143  66.054  1.00  0.00    -0.134 OA 
BRANCH   5   6
HETATM    6  C   UNL     1      -7.593   8.219  65.934  1.00  0.00    -0.082 A  
HETATM    7  O   UNL     1      -9.425   2.287  67.856  1.00  0.00    -0.200 OA 
HETATM    8  O   UNL     1      -7.212   2.124  67.422  1.00  0.00    -0.053 OA 
HETATM    9  C   UNL     1      -6.333   8.522  65.394  1.00  0.00    -0.055 A  
HETATM   10  C   UNL     1      -5.323   7.563  65.336  1.00  0.00    -0.029 A  
HETATM   11  C   UNL     1      -8.374   2.808  67.526  1.00  0.00    -0.084 C  
HETATM   12  C   UNL     1      -5.556   6.283  65.820  1.00  0.00    -0.017 A  
HETATM   13  O   UNL     1      -6.954   4.658  66.766  1.00  0.00    -0.057 OA 
HETATM   14  C   UNL     1      -8.203   4.244  67.178  1.00  0.00    -0.100 C  
HETATM   15  C   UNL     1      -6.808   5.957  66.342  1.00  0.00    -0.059 A  
HETATM   16  C   UNL     1      -9.272   5.043  67.281  1.00  0.00    -0.127 C  
HETATM   17  C   UNL     1      -7.831   6.913  66.406  1.00  0.00    -0.103 A  
HETATM   18  O   UNL     1     -10.121   7.192  67.082  1.00  0.00    -0.182 OA 
HETATM   19  C   UNL     1      -9.147   6.470  66.938  1.00  0.00    -0.138 C  
ENDBRANCH   5   6
ENDBRANCH   4   5
ENDBRANCH   2   4
BRANCH   2  20
HETATM   20  C   UNL     1     -10.555  11.565  66.752  1.00  0.00    -0.250 C  
BRANCH  20  21
HETATM   21  O   UNL     1     -11.242  12.747  66.392  1.00  0.00    -0.277 OA 
BRANCH  21  22
HETATM   22  C   UNL     1     -11.344  13.774  67.303  1.00  0.00    -0.321 A  
HETATM   23  C   UNL     1     -10.327  17.321  66.107  1.00  0.00    -0.320 C  
HETATM   24  C   UNL     1     -10.843  15.957  65.964  1.00  0.00    -0.225 C  
HETATM   25  C   UNL     1     -11.089  15.163  67.205  1.00  0.00    -0.332 A  
HETATM   26  C   UNL     1     -11.110  15.934  68.392  1.00  0.00    -0.345 A  
HETATM   27  C   UNL     1     -10.355  17.900  67.305  1.00  0.00    -0.369 C  
HETATM   28  C   UNL     1     -11.469  15.375  69.623  1.00  0.00    -0.331 A  
HETATM   29  O   UNL     1     -10.790  17.276  68.455  1.00  0.00    -0.332 OA 
HETATM   30  C   UNL     1     -11.796  14.031  69.702  1.00  0.00    -0.386 A  
HETATM   31  C   UNL     1      -9.950  19.329  67.368  1.00  0.00    -0.368 C  
HETATM   32  O   UNL     1     -10.026  19.827  68.621  1.00  0.00    -0.427 OA 
HETATM   33  C   UNL     1     -11.708  13.240  68.559  1.00  0.00    -0.388 A  
HETATM   34  O   UNL     1     -11.121  15.611  64.827  1.00  0.00    -0.441 OA 
HETATM   35  O   UNL     1      -9.597  19.993  66.406  1.00  0.00    -0.394 OA 
ENDBRANCH  21  22
ENDBRANCH  20  21
ENDBRANCH   2  20
TORSDOF 6
ENDMDL
MODEL      224
REMARK 921   NORMALIZED FREE ENERGY PREDICTED BY IDOCK:   -5.19 KCAL/MOL
REMARK 922        TOTAL FREE ENERGY PREDICTED BY IDOCK:   -8.30 KCAL/MOL
REMARK 923 INTER-LIGAND FREE ENERGY PREDICTED BY IDOCK:   -7.59 KCAL/MOL
REMARK 924 INTRA-LIGAND FREE ENERGY PREDICTED BY IDOCK:   -0.71 KCAL/MOL
REMARK 927      BINDING AFFINITY PREDICTED BY RF-SCORE:    0.00 PKD
ROOT
HETATM    1  O   UNL     1      -8.429  11.415  64.310  1.00  0.00    -0.227 OA 
HETATM    2  C   UNL     1      -8.557  10.920  65.657  1.00  0.00    -0.160 C  
HETATM    3  H   UNL     1      -7.565  11.177  63.994  1.00  0.00     0.000 HD 
ENDROOT
BRANCH   2   4
HETATM    4  C   UNL     1      -8.341   9.407  65.645  1.00  0.00    -0.124 C  
BRANCH   4   5
HETATM    5  O   UNL     1      -8.322   8.921  66.994  1.00  0.00    -0.105 OA 
BRANCH   5   6
HETATM    6  C   UNL     1      -9.095   7.835  67.300  1.00  0.00    -0.131 A  
HETATM    7  O   UNL     1      -6.115   3.710  71.342  1.00  0.00    -0.013 OA 
HETATM    8  O   UNL     1      -8.042   2.687  70.750  1.00  0.00    -0.049 OA 
HETATM    9  C   UNL     1     -10.409   7.675  66.834  1.00  0.00    -0.388 A  
HETATM   10  C   UNL     1     -11.145   6.528  67.129  1.00  0.00    -0.434 A  
HETATM   11  C   UNL     1      -7.146   3.698  70.695  1.00  0.00    -0.034 C  
HETATM   12  C   UNL     1     -10.577   5.519  67.895  1.00  0.00    -0.219 A  
HETATM   13  O   UNL     1      -8.814   4.633  69.158  1.00  0.00    -0.089 OA 
HETATM   14  C   UNL     1      -7.586   4.776  69.769  1.00  0.00    -0.055 C  
HETATM   15  C   UNL     1      -9.279   5.668  68.383  1.00  0.00    -0.118 A  
HETATM   16  C   UNL     1      -6.768   5.820  69.591  1.00  0.00    -0.055 C  
HETATM   17  C   UNL     1      -8.529   6.817  68.093  1.00  0.00    -0.121 A  
HETATM   18  O   UNL     1      -6.390   7.834  68.504  1.00  0.00    -0.042 OA 
HETATM   19  C   UNL     1      -7.170   6.913  68.688  1.00  0.00    -0.088 C  
ENDBRANCH   5   6
ENDBRANCH   4   5
ENDBRANCH   2   4
BRANCH   2  20
HETATM   20  C   UNL     1      -9.951  11.303  66.165  1.00  0.00    -0.228 C  
BRANCH  20  21
HETATM   21  O   UNL     1     -10.363  12.608  65.812  1.00  0.00    -0.268 OA 
BRANCH  21  22
HETATM   22  C   UNL     1     -10.717  13.496  66.803  1.00  0.00    -0.278 A  
HETATM   23  C   UNL     1     -10.016  17.255  66.154  1.00  0.00    -0.288 C  
HETATM   24  C   UNL     1     -10.328  15.871  65.793  1.00  0.00    -0.376 C  
HETATM   25  C   UNL     1     -10.633  14.907  66.892  1.00  0.00    -0.300 A  
HETATM   26  C   UNL     1     -10.911  15.518  68.137  1.00  0.00    -0.312 A  
HETATM   27  C   UNL     1     -10.278  17.676  67.390  1.00  0.00    -0.345 C  
HETATM   28  C   UNL     1     -11.356  14.774  69.236  1.00  0.00    -0.317 A  
HETATM   29  O   UNL     1     -10.778  16.870  68.390  1.00  0.00    -0.344 OA 
HETATM   30  C   UNL     1     -11.515  13.402  69.122  1.00  0.00    -0.351 A  
HETATM   31  C   UNL     1     -10.072  19.123  67.664  1.00  0.00    -0.377 C  
HETATM   32  O   UNL     1     -10.378  19.450  68.937  1.00  0.00    -0.334 OA 
HETATM   33  C   UNL     1     -11.174  12.774  67.927  1.00  0.00    -0.315 A  
HETATM   34  O   UNL     1     -10.405  15.639  64.596  1.00  0.00    -0.352 OA 
HETATM   35  O   UNL     1      -9.683  19.935  66.841  1.00  0.00    -0.353 OA 
ENDBRANCH  21  22
ENDBRANCH  20  21
ENDBRANCH   2  20
TORSDOF 6
ENDMDL
MODEL      225
REMARK 921   NORMALIZED FREE ENERGY PREDICTED BY IDOCK:   -5.18 KCAL/MOL
REMARK 922        TOTAL FREE ENERGY PREDICTED BY IDOCK:   -8.30 KCAL/MOL
REMARK 923 INTER-LIGAND FREE ENERGY PREDICTED BY IDOCK:   -7.36 KCAL/MOL
REMARK 924 INTRA-LIGAND FREE ENERGY PREDICTED BY IDOCK:   -0.94 KCAL/MOL
REMARK 927      BINDING AFFINITY PREDICTED BY RF-SCORE:    0.00 PKD
ROOT
HETATM    1  O   UNL     1     -12.596  13.772  65.714  1.00  0.00    -0.484 OA 
HETATM    2  C   UNL     1     -11.392  14.265  65.094  1.00  0.00    -0.345 C  
HETATM    3  H   UNL     1     -12.899  13.028  65.206  1.00  0.00     0.000 HD 
ENDROOT
BRANCH   2   4
HETATM    4  C   UNL     1     -10.364  13.134  65.053  1.00  0.00    -0.330 C  
BRANCH   4   5
HETATM    5  O   UNL     1     -10.511  12.318  66.222  1.00  0.00    -0.231 OA 
BRANCH   5   6
HETATM    6  C   UNL     1      -9.413  12.117  67.013  1.00  0.00    -0.201 A  
HETATM    7  O   UNL     1      -7.964   5.820  67.716  1.00  0.00    -0.097 OA 
HETATM    8  O   UNL     1      -6.553   6.922  69.097  1.00  0.00    -0.045 OA 
HETATM    9  C   UNL     1      -8.657  13.168  67.553  1.00  0.00    -0.196 A  
HETATM   10  C   UNL     1      -7.574  12.919  68.396  1.00  0.00    -0.133 A  
HETATM   11  C   UNL     1      -7.572   6.862  68.210  1.00  0.00    -0.107 C  
HETATM   12  C   UNL     1      -7.230  11.612  68.713  1.00  0.00    -0.116 A  
HETATM   13  O   UNL     1      -7.524   9.296  68.515  1.00  0.00    -0.079 OA 
HETATM   14  C   UNL     1      -8.126   8.210  67.914  1.00  0.00    -0.128 C  
HETATM   15  C   UNL     1      -7.958  10.553  68.170  1.00  0.00    -0.111 A  
HETATM   16  C   UNL     1      -9.169   8.288  67.079  1.00  0.00    -0.187 C  
HETATM   17  C   UNL     1      -9.049  10.791  67.322  1.00  0.00    -0.151 A  
HETATM   18  O   UNL     1     -10.723   9.651  66.026  1.00  0.00     0.046 OA 
HETATM   19  C   UNL     1      -9.743   9.605  66.754  1.00  0.00    -0.197 C  
ENDBRANCH   5   6
ENDBRANCH   4   5
ENDBRANCH   2   4
BRANCH   2  20
HETATM   20  C   UNL     1     -10.902  15.464  65.913  1.00  0.00    -0.325 C  
BRANCH  20  21
HETATM   21  O   UNL     1     -10.226  16.450  65.159  1.00  0.00    -0.582 OA 
BRANCH  21  22
HETATM   22  C   UNL     1      -9.800  17.601  65.780  1.00  0.00     0.052 A  
HETATM   23  C   UNL     1      -6.954  17.264  68.394  1.00  0.00    -0.202 C  
HETATM   24  C   UNL     1      -7.719  16.910  67.196  1.00  0.00    -0.179 C  
HETATM   25  C   UNL     1      -8.790  17.848  66.742  1.00  0.00    -0.271 A  
HETATM   26  C   UNL     1      -8.723  19.133  67.330  1.00  0.00    -0.286 A  
HETATM   27  C   UNL     1      -7.037  18.503  68.872  1.00  0.00    -0.282 C  
HETATM   28  C   UNL     1      -9.558  20.175  66.912  1.00  0.00    -0.564 A  
HETATM   29  O   UNL     1      -7.852  19.482  68.344  1.00  0.00    -0.319 OA 
HETATM   30  C   UNL     1     -10.491  19.953  65.913  1.00  0.00    -0.567 A  
HETATM   31  C   UNL     1      -6.136  18.847  70.004  1.00  0.00    -0.178 C  
HETATM   32  O   UNL     1      -6.286  20.127  70.405  1.00  0.00    -0.365 OA 
HETATM   33  C   UNL     1     -10.623  18.675  65.375  1.00  0.00     0.209 A  
HETATM   34  O   UNL     1      -7.349  15.908  66.605  1.00  0.00    -0.166 OA 
HETATM   35  O   UNL     1      -5.340  18.076  70.515  1.00  0.00    -0.243 OA 
ENDBRANCH  21  22
ENDBRANCH  20  21
ENDBRANCH   2  20
TORSDOF 6
ENDMDL
MODEL      226
REMARK 921   NORMALIZED FREE ENERGY PREDICTED BY IDOCK:   -5.17 KCAL/MOL
REMARK 922        TOTAL FREE ENERGY PREDICTED BY IDOCK:   -8.28 KCAL/MOL
REMARK 923 INTER-LIGAND FREE ENERGY PREDICTED BY IDOCK:   -7.61 KCAL/MOL
REMARK 924 INTRA-LIGAND FREE ENERGY PREDICTED BY IDOCK:   -0.68 KCAL/MOL
REMARK 927      BINDING AFFINITY PREDICTED BY RF-SCORE:    0.00 PKD
ROOT
HETATM    1  O   UNL     1      -9.352   9.601  65.196  1.00  0.00    -0.233 OA 
HETATM    2  C   UNL     1     -10.061  10.085  66.353  1.00  0.00    -0.241 C  
HETATM    3  H   UNL     1      -9.569  10.168  64.465  1.00  0.00     0.000 HD 
ENDROOT
BRANCH   2   4
HETATM    4  C   UNL     1      -9.653  11.536  66.606  1.00  0.00    -0.197 C  
BRANCH   4   5
HETATM    5  O   UNL     1     -10.792  12.387  66.424  1.00  0.00    -0.245 OA 
BRANCH   5   6
HETATM    6  C   UNL     1     -11.113  13.261  67.427  1.00  0.00    -0.278 A  
HETATM    7  O   UNL     1     -10.161  19.463  65.733  1.00  0.00    -0.438 OA 
HETATM    8  O   UNL     1     -10.712  19.514  67.925  1.00  0.00    -0.416 OA 
HETATM    9  C   UNL     1     -11.647  12.850  68.658  1.00  0.00    -0.353 A  
HETATM   10  C   UNL     1     -11.912  13.769  69.672  1.00  0.00    -0.399 A  
HETATM   11  C   UNL     1     -10.442  18.877  66.763  1.00  0.00    -0.428 C  
HETATM   12  C   UNL     1     -11.646  15.117  69.472  1.00  0.00    -0.340 A  
HETATM   13  O   UNL     1     -10.934  16.901  68.132  1.00  0.00    -0.365 OA 
HETATM   14  C   UNL     1     -10.544  17.400  66.906  1.00  0.00    -0.216 C  
HETATM   15  C   UNL     1     -11.134  15.547  68.248  1.00  0.00    -0.322 A  
HETATM   16  C   UNL     1     -10.260  16.647  65.837  1.00  0.00    -0.358 C  
HETATM   17  C   UNL     1     -10.862  14.632  67.221  1.00  0.00    -0.305 A  
HETATM   18  O   UNL     1     -10.050  14.509  64.962  1.00  0.00    -0.393 OA 
HETATM   19  C   UNL     1     -10.357  15.180  65.935  1.00  0.00    -0.327 C  
ENDBRANCH   5   6
ENDBRANCH   4   5
ENDBRANCH   2   4
BRANCH   2  20
HETATM   20  C   UNL     1      -9.711   9.171  67.533  1.00  0.00    -0.160 C  
BRANCH  20  21
HETATM   21  O   UNL     1     -10.453   7.969  67.581  1.00  0.00    -0.231 OA 
BRANCH  21  22
HETATM   22  C   UNL     1      -9.794   6.774  67.752  1.00  0.00    -0.126 A  
HETATM   23  C   UNL     1      -7.861   6.269  71.077  1.00  0.00    -0.111 C  
HETATM   24  C   UNL     1      -8.916   6.798  70.210  1.00  0.00    -0.152 C  
HETATM   25  C   UNL     1      -9.029   6.252  68.824  1.00  0.00    -0.125 A  
HETATM   26  C   UNL     1      -8.314   5.049  68.615  1.00  0.00    -0.087 A  
HETATM   27  C   UNL     1      -7.228   5.154  70.719  1.00  0.00    -0.064 C  
HETATM   28  C   UNL     1      -8.426   4.327  67.421  1.00  0.00    -0.099 A  
HETATM   29  O   UNL     1      -7.460   4.479  69.539  1.00  0.00    -0.051 OA 
HETATM   30  C   UNL     1      -9.239   4.800  66.403  1.00  0.00    -0.135 A  
HETATM   31  C   UNL     1      -6.266   4.585  71.699  1.00  0.00    -0.018 C  
HETATM   32  O   UNL     1      -5.689   3.450  71.249  1.00  0.00    -0.012 OA 
HETATM   33  C   UNL     1      -9.892   6.020  66.562  1.00  0.00    -0.186 A  
HETATM   34  O   UNL     1      -9.688   7.588  70.732  1.00  0.00    -0.174 OA 
HETATM   35  O   UNL     1      -6.022   5.069  72.792  1.00  0.00    -0.023 OA 
ENDBRANCH  21  22
ENDBRANCH  20  21
ENDBRANCH   2  20
TORSDOF 6
ENDMDL
MODEL      227
REMARK 921   NORMALIZED FREE ENERGY PREDICTED BY IDOCK:   -5.17 KCAL/MOL
REMARK 922        TOTAL FREE ENERGY PREDICTED BY IDOCK:   -8.27 KCAL/MOL
REMARK 923 INTER-LIGAND FREE ENERGY PREDICTED BY IDOCK:   -6.43 KCAL/MOL
REMARK 924 INTRA-LIGAND FREE ENERGY PREDICTED BY IDOCK:   -1.84 KCAL/MOL
REMARK 927      BINDING AFFINITY PREDICTED BY RF-SCORE:    0.00 PKD
ROOT
HETATM    1  O   UNL     1      -7.705  18.175  66.929  1.00  0.00    -0.210 OA 
HETATM    2  C   UNL     1      -7.441  17.337  68.071  1.00  0.00    -0.194 C  
HETATM    3  H   UNL     1      -6.883  18.308  66.471  1.00  0.00     0.000 HD 
ENDROOT
BRANCH   2   4
HETATM    4  C   UNL     1      -6.831  16.023  67.583  1.00  0.00    -0.159 C  
BRANCH   4   5
HETATM    5  O   UNL     1      -6.938  15.038  68.619  1.00  0.00    -0.103 OA 
BRANCH   5   6
HETATM    6  C   UNL     1      -7.303  13.767  68.268  1.00  0.00    -0.118 A  
HETATM    7  O   UNL     1      -5.130   9.297  72.455  1.00  0.00    -0.065 OA 
HETATM    8  O   UNL     1      -6.063   8.130  70.758  1.00  0.00    -0.033 OA 
HETATM    9  C   UNL     1      -8.112  13.483  67.156  1.00  0.00    -0.097 A  
HETATM   10  C   UNL     1      -8.418  12.169  66.804  1.00  0.00    -0.138 A  
HETATM   11  C   UNL     1      -5.681   9.275  71.370  1.00  0.00    -0.067 C  
HETATM   12  C   UNL     1      -7.920  11.116  67.558  1.00  0.00    -0.118 A  
HETATM   13  O   UNL     1      -6.710  10.275  69.380  1.00  0.00    -0.049 OA 
HETATM   14  C   UNL     1      -6.031  10.475  70.563  1.00  0.00    -0.117 C  
HETATM   15  C   UNL     1      -7.130  11.379  68.678  1.00  0.00    -0.095 A  
HETATM   16  C   UNL     1      -5.670  11.673  71.037  1.00  0.00     0.065 C  
HETATM   17  C   UNL     1      -6.815  12.696  69.042  1.00  0.00    -0.083 A  
HETATM   18  O   UNL     1      -5.626  13.968  70.699  1.00  0.00    -0.126 OA 
HETATM   19  C   UNL     1      -6.004  12.887  70.273  1.00  0.00    -0.126 C  
ENDBRANCH   5   6
ENDBRANCH   4   5
ENDBRANCH   2   4
BRANCH   2  20
HETATM   20  C   UNL     1      -8.767  17.122  68.810  1.00  0.00    -0.235 C  
BRANCH  20  21
HETATM   21  O   UNL     1      -9.911  17.174  67.982  1.00  0.00    -0.272 OA 
BRANCH  21  22
HETATM   22  C   UNL     1     -10.619  16.019  67.736  1.00  0.00    -0.309 A  
HETATM   23  C   UNL     1     -11.824  13.983  70.810  1.00  0.00    -0.289 C  
HETATM   24  C   UNL     1     -11.445  15.188  70.069  1.00  0.00    -0.286 C  
HETATM   25  C   UNL     1     -11.219  15.068  68.597  1.00  0.00    -0.289 A  
HETATM   26  C   UNL     1     -11.721  13.873  68.030  1.00  0.00    -0.352 A  
HETATM   27  C   UNL     1     -12.221  12.907  70.135  1.00  0.00    -0.266 C  
HETATM   28  C   UNL     1     -11.724  13.663  66.646  1.00  0.00    -0.420 A  
HETATM   29  O   UNL     1     -12.246  12.823  68.759  1.00  0.00    -0.188 OA 
HETATM   30  C   UNL     1     -11.209  14.632  65.800  1.00  0.00    -0.336 A  
HETATM   31  C   UNL     1     -12.726  11.761  70.937  1.00  0.00    -0.235 C  
HETATM   32  O   UNL     1     -13.116  10.727  70.161  1.00  0.00    -0.147 OA 
HETATM   33  C   UNL     1     -10.643  15.781  66.345  1.00  0.00    -0.307 A  
HETATM   34  O   UNL     1     -11.434  16.227  70.711  1.00  0.00    -0.401 OA 
HETATM   35  O   UNL     1     -12.797  11.746  72.155  1.00  0.00    -0.267 OA 
ENDBRANCH  21  22
ENDBRANCH  20  21
ENDBRANCH   2  20
TORSDOF 6
ENDMDL
MODEL      228
REMARK 921   NORMALIZED FREE ENERGY PREDICTED BY IDOCK:   -5.13 KCAL/MOL
REMARK 922        TOTAL FREE ENERGY PREDICTED BY IDOCK:   -8.22 KCAL/MOL
REMARK 923 INTER-LIGAND FREE ENERGY PREDICTED BY IDOCK:   -7.19 KCAL/MOL
REMARK 924 INTRA-LIGAND FREE ENERGY PREDICTED BY IDOCK:   -1.04 KCAL/MOL
REMARK 927      BINDING AFFINITY PREDICTED BY RF-SCORE:    0.00 PKD
ROOT
HETATM    1  O   UNL     1      -6.138  12.812  69.314  1.00  0.00    -0.085 OA 
HETATM    2  C   UNL     1      -7.367  12.143  68.971  1.00  0.00     0.000 C  
HETATM    3  H   UNL     1      -6.010  12.720  70.251  1.00  0.00     0.000 HD 
ENDROOT
BRANCH   2   4
HETATM    4  C   UNL     1      -7.264  10.679  69.400  1.00  0.00    -0.126 C  
BRANCH   4   5
HETATM    5  O   UNL     1      -8.321   9.930  68.787  1.00  0.00    -0.107 OA 
BRANCH   5   6
HETATM    6  C   UNL     1      -9.038   9.066  69.568  1.00  0.00    -0.151 A  
HETATM    7  O   UNL     1      -7.800   2.837  68.188  1.00  0.00    -0.055 OA 
HETATM    8  O   UNL     1      -9.489   2.798  69.691  1.00  0.00    -0.140 OA 
HETATM    9  C   UNL     1      -9.896   9.495  70.593  1.00  0.00    -0.328 A  
HETATM   10  C   UNL     1     -10.648   8.582  71.333  1.00  0.00    -0.312 A  
HETATM   11  C   UNL     1      -8.601   3.429  68.889  1.00  0.00    -0.083 C  
HETATM   12  C   UNL     1     -10.555   7.225  71.058  1.00  0.00    -0.235 A  
HETATM   13  O   UNL     1      -9.644   5.417  69.879  1.00  0.00    -0.149 OA 
HETATM   14  C   UNL     1      -8.722   4.908  68.988  1.00  0.00    -0.088 C  
HETATM   15  C   UNL     1      -9.693   6.779  70.056  1.00  0.00    -0.163 A  
HETATM   16  C   UNL     1      -7.926   5.654  68.213  1.00  0.00    -0.100 C  
HETATM   17  C   UNL     1      -8.933   7.686  69.305  1.00  0.00    -0.135 A  
HETATM   18  O   UNL     1      -7.306   7.785  67.538  1.00  0.00    -0.088 OA 
HETATM   19  C   UNL     1      -8.009   7.123  68.286  1.00  0.00    -0.123 C  
ENDBRANCH   5   6
ENDBRANCH   4   5
ENDBRANCH   2   4
BRANCH   2  20
HETATM   20  C   UNL     1      -7.574  12.291  67.459  1.00  0.00    -0.155 C  
BRANCH  20  21
HETATM   21  O   UNL     1      -8.083  13.548  67.060  1.00  0.00    -0.123 OA 
BRANCH  21  22
HETATM   22  C   UNL     1      -9.434  13.793  67.165  1.00  0.00    -0.244 A  
HETATM   23  C   UNL     1     -10.706  15.359  70.477  1.00  0.00    -0.290 C  
HETATM   24  C   UNL     1      -9.743  15.094  69.406  1.00  0.00    -0.202 C  
HETATM   25  C   UNL     1     -10.221  14.366  68.193  1.00  0.00    -0.232 A  
HETATM   26  C   UNL     1     -11.630  14.306  68.071  1.00  0.00    -0.332 A  
HETATM   27  C   UNL     1     -12.005  15.201  70.233  1.00  0.00    -0.319 C  
HETATM   28  C   UNL     1     -12.245  13.789  66.925  1.00  0.00    -0.408 A  
HETATM   29  O   UNL     1     -12.515  14.740  69.038  1.00  0.00    -0.097 OA 
HETATM   30  C   UNL     1     -11.470  13.303  65.885  1.00  0.00    -0.359 A  
HETATM   31  C   UNL     1     -12.945  15.616  71.307  1.00  0.00    -0.492 C  
HETATM   32  O   UNL     1     -14.235  15.429  70.957  1.00  0.00    -0.460 OA 
HETATM   33  C   UNL     1     -10.084  13.284  66.019  1.00  0.00    -0.301 A  
HETATM   34  O   UNL     1      -8.633  15.580  69.557  1.00  0.00    -0.260 OA 
HETATM   35  O   UNL     1     -12.605  16.084  72.382  1.00  0.00    -0.443 OA 
ENDBRANCH  21  22
ENDBRANCH  20  21
ENDBRANCH   2  20
TORSDOF 6
ENDMDL
MODEL      229
REMARK 921   NORMALIZED FREE ENERGY PREDICTED BY IDOCK:   -5.12 KCAL/MOL
REMARK 922        TOTAL FREE ENERGY PREDICTED BY IDOCK:   -8.21 KCAL/MOL
REMARK 923 INTER-LIGAND FREE ENERGY PREDICTED BY IDOCK:   -7.37 KCAL/MOL
REMARK 924 INTRA-LIGAND FREE ENERGY PREDICTED BY IDOCK:   -0.84 KCAL/MOL
REMARK 927      BINDING AFFINITY PREDICTED BY RF-SCORE:    0.00 PKD
ROOT
HETATM    1  O   UNL     1     -14.014   9.433  70.495  1.00  0.00    -0.383 OA 
HETATM    2  C   UNL     1     -12.782  10.136  70.749  1.00  0.00    -0.311 C  
HETATM    3  H   UNL     1     -14.542   9.973  69.917  1.00  0.00     0.000 HD 
ENDROOT
BRANCH   2   4
HETATM    4  C   UNL     1     -12.088  10.405  69.415  1.00  0.00    -0.013 C  
BRANCH   4   5
HETATM    5  O   UNL     1     -11.892  11.817  69.259  1.00  0.00    -0.296 OA 
BRANCH   5   6
HETATM    6  C   UNL     1     -10.981  12.245  68.333  1.00  0.00    -0.236 A  
HETATM    7  O   UNL     1     -11.036  18.699  67.576  1.00  0.00    -0.392 OA 
HETATM    8  O   UNL     1      -9.620  17.919  65.995  1.00  0.00    -0.502 OA 
HETATM    9  C   UNL     1     -10.095  11.378  67.674  1.00  0.00    -0.200 A  
HETATM   10  C   UNL     1      -9.216  11.850  66.700  1.00  0.00    -0.206 A  
HETATM   11  C   UNL     1     -10.498  17.763  67.012  1.00  0.00    -0.322 C  
HETATM   12  C   UNL     1      -9.209  13.197  66.367  1.00  0.00    -0.134 A  
HETATM   13  O   UNL     1      -9.967  15.396  66.652  1.00  0.00    -0.246 OA 
HETATM   14  C   UNL     1     -10.703  16.330  67.351  1.00  0.00    -0.287 C  
HETATM   15  C   UNL     1     -10.069  14.077  67.025  1.00  0.00    -0.255 A  
HETATM   16  C   UNL     1     -11.582  16.034  68.316  1.00  0.00    -0.232 C  
HETATM   17  C   UNL     1     -10.957  13.615  68.006  1.00  0.00    -0.270 A  
HETATM   18  O   UNL     1     -12.647  14.375  69.538  1.00  0.00    -0.217 OA 
HETATM   19  C   UNL     1     -11.808  14.627  68.687  1.00  0.00    -0.311 C  
ENDBRANCH   5   6
ENDBRANCH   4   5
ENDBRANCH   2   4
BRANCH   2  20
HETATM   20  C   UNL     1     -11.932   9.265  71.681  1.00  0.00    -0.378 C  
BRANCH  20  21
HETATM   21  O   UNL     1     -10.537   9.411  71.505  1.00  0.00    -0.341 OA 
BRANCH  21  22
HETATM   22  C   UNL     1      -9.700   8.374  71.850  1.00  0.00    -0.261 A  
HETATM   23  C   UNL     1      -9.295   5.488  69.291  1.00  0.00    -0.153 C  
HETATM   24  C   UNL     1      -9.533   6.865  69.727  1.00  0.00    -0.145 C  
HETATM   25  C   UNL     1      -9.307   7.199  71.166  1.00  0.00    -0.157 A  
HETATM   26  C   UNL     1      -8.569   6.223  71.877  1.00  0.00    -0.128 A  
HETATM   27  C   UNL     1      -8.635   4.659  70.098  1.00  0.00    -0.078 C  
HETATM   28  C   UNL     1      -8.144   6.440  73.193  1.00  0.00    -0.108 A  
HETATM   29  O   UNL     1      -8.202   4.995  71.363  1.00  0.00    -0.108 OA 
HETATM   30  C   UNL     1      -8.463   7.627  73.834  1.00  0.00    -0.270 A  
HETATM   31  C   UNL     1      -8.299   3.318  69.552  1.00  0.00    -0.059 C  
HETATM   32  O   UNL     1      -7.620   2.560  70.439  1.00  0.00    -0.042 OA 
HETATM   33  C   UNL     1      -9.251   8.567  73.175  1.00  0.00    -0.093 A  
HETATM   34  O   UNL     1      -9.812   7.662  68.844  1.00  0.00    -0.158 OA 
HETATM   35  O   UNL     1      -8.587   2.934  68.430  1.00  0.00    -0.076 OA 
ENDBRANCH  21  22
ENDBRANCH  20  21
ENDBRANCH   2  20
TORSDOF 6
ENDMDL
MODEL      230
REMARK 921   NORMALIZED FREE ENERGY PREDICTED BY IDOCK:   -5.12 KCAL/MOL
REMARK 922        TOTAL FREE ENERGY PREDICTED BY IDOCK:   -8.21 KCAL/MOL
REMARK 923 INTER-LIGAND FREE ENERGY PREDICTED BY IDOCK:   -7.42 KCAL/MOL
REMARK 924 INTRA-LIGAND FREE ENERGY PREDICTED BY IDOCK:   -0.79 KCAL/MOL
REMARK 927      BINDING AFFINITY PREDICTED BY RF-SCORE:    0.00 PKD
ROOT
HETATM    1  O   UNL     1     -10.258  11.583  64.951  1.00  0.00    -0.247 OA 
HETATM    2  C   UNL     1     -10.129  11.066  66.289  1.00  0.00    -0.235 C  
HETATM    3  H   UNL     1     -10.978  12.203  64.948  1.00  0.00     0.000 HD 
ENDROOT
BRANCH   2   4
HETATM    4  C   UNL     1      -9.890  12.235  67.245  1.00  0.00    -0.205 C  
BRANCH   4   5
HETATM    5  O   UNL     1     -10.956  13.183  67.108  1.00  0.00    -0.261 OA 
BRANCH   5   6
HETATM    6  C   UNL     1     -11.232  14.004  68.166  1.00  0.00    -0.275 A  
HETATM    7  O   UNL     1      -9.708  20.209  66.976  1.00  0.00    -0.383 OA 
HETATM    8  O   UNL     1     -10.318  20.145  69.152  1.00  0.00    -0.314 OA 
HETATM    9  C   UNL     1     -11.835  13.551  69.350  1.00  0.00    -0.389 A  
HETATM   10  C   UNL     1     -12.052  14.412  70.425  1.00  0.00    -0.399 A  
HETATM   11  C   UNL     1     -10.068  19.575  67.952  1.00  0.00    -0.417 C  
HETATM   12  C   UNL     1     -11.667  15.742  70.335  1.00  0.00    -0.390 A  
HETATM   13  O   UNL     1     -10.766  17.553  69.153  1.00  0.00    -0.204 OA 
HETATM   14  C   UNL     1     -10.299  18.106  67.978  1.00  0.00    -0.391 C  
HETATM   15  C   UNL     1     -11.083  16.216  69.160  1.00  0.00    -0.329 A  
HETATM   16  C   UNL     1     -10.048  17.413  66.862  1.00  0.00    -0.314 C  
HETATM   17  C   UNL     1     -10.860  15.360  68.072  1.00  0.00    -0.292 A  
HETATM   18  O   UNL     1      -9.993  15.336  65.830  1.00  0.00    -0.291 OA 
HETATM   19  C   UNL     1     -10.272  15.957  66.844  1.00  0.00    -0.277 C  
ENDBRANCH   5   6
ENDBRANCH   4   5
ENDBRANCH   2   4
BRANCH   2  20
HETATM   20  C   UNL     1      -8.966  10.067  66.294  1.00  0.00    -0.148 C  
BRANCH  20  21
HETATM   21  O   UNL     1      -9.022   9.110  67.332  1.00  0.00    -0.118 OA 
BRANCH  21  22
HETATM   22  C   UNL     1      -8.097   9.162  68.350  1.00  0.00    -0.104 A  
HETATM   23  C   UNL     1      -9.030   7.428  71.692  1.00  0.00    -0.133 C  
HETATM   24  C   UNL     1      -9.043   7.633  70.241  1.00  0.00    -0.149 C  
HETATM   25  C   UNL     1      -8.093   8.629  69.662  1.00  0.00    -0.112 A  
HETATM   26  C   UNL     1      -7.058   9.023  70.542  1.00  0.00    -0.073 A  
HETATM   27  C   UNL     1      -8.014   7.911  72.404  1.00  0.00    -0.117 C  
HETATM   28  C   UNL     1      -6.002   9.837  70.116  1.00  0.00    -0.053 A  
HETATM   29  O   UNL     1      -6.982   8.655  71.872  1.00  0.00    -0.092 OA 
HETATM   30  C   UNL     1      -5.966  10.291  68.807  1.00  0.00    -0.040 A  
HETATM   31  C   UNL     1      -7.979   7.557  73.847  1.00  0.00    -0.143 C  
HETATM   32  O   UNL     1      -6.906   8.082  74.476  1.00  0.00    -0.116 OA 
HETATM   33  C   UNL     1      -7.015   9.976  67.947  1.00  0.00    -0.084 A  
HETATM   34  O   UNL     1      -9.777   6.892  69.606  1.00  0.00    -0.156 OA 
HETATM   35  O   UNL     1      -8.811   6.864  74.411  1.00  0.00    -0.165 OA 
ENDBRANCH  21  22
ENDBRANCH  20  21
ENDBRANCH   2  20
TORSDOF 6
ENDMDL
MODEL      231
REMARK 921   NORMALIZED FREE ENERGY PREDICTED BY IDOCK:   -5.10 KCAL/MOL
REMARK 922        TOTAL FREE ENERGY PREDICTED BY IDOCK:   -8.19 KCAL/MOL
REMARK 923 INTER-LIGAND FREE ENERGY PREDICTED BY IDOCK:   -6.97 KCAL/MOL
REMARK 924 INTRA-LIGAND FREE ENERGY PREDICTED BY IDOCK:   -1.22 KCAL/MOL
REMARK 927      BINDING AFFINITY PREDICTED BY RF-SCORE:    0.00 PKD
ROOT
HETATM    1  O   UNL     1     -11.763   5.447  73.009  1.00  0.00    -0.503 OA 
HETATM    2  C   UNL     1     -10.839   5.903  72.001  1.00  0.00    -0.252 C  
HETATM    3  H   UNL     1     -12.144   6.214  73.421  1.00  0.00     0.000 HD 
ENDROOT
BRANCH   2   4
HETATM    4  C   UNL     1     -11.596   6.780  71.004  1.00  0.00    -0.339 C  
BRANCH   4   5
HETATM    5  O   UNL     1     -10.916   8.033  70.863  1.00  0.00    -0.234 OA 
BRANCH   5   6
HETATM    6  C   UNL     1     -11.644   9.183  70.999  1.00  0.00    -0.306 A  
HETATM    7  O   UNL     1      -9.885  13.772  66.746  1.00  0.00    -0.258 OA 
HETATM    8  O   UNL     1     -11.385  14.764  68.117  1.00  0.00    -0.280 OA 
HETATM    9  C   UNL     1     -12.694   9.319  71.920  1.00  0.00    -0.474 A  
HETATM   10  C   UNL     1     -13.378  10.526  72.062  1.00  0.00    -0.420 A  
HETATM   11  C   UNL     1     -10.622  13.722  67.714  1.00  0.00    -0.246 C  
HETATM   12  C   UNL     1     -13.021  11.619  71.286  1.00  0.00    -0.368 A  
HETATM   13  O   UNL     1     -11.732  12.624  69.606  1.00  0.00    -0.303 OA 
HETATM   14  C   UNL     1     -10.811  12.530  68.584  1.00  0.00    -0.248 C  
HETATM   15  C   UNL     1     -11.992  11.498  70.351  1.00  0.00    -0.368 A  
HETATM   16  C   UNL     1     -10.081  11.440  68.318  1.00  0.00    -0.204 C  
HETATM   17  C   UNL     1     -11.297  10.290  70.199  1.00  0.00    -0.388 A  
HETATM   18  O   UNL     1      -9.537   9.267  68.921  1.00  0.00    -0.152 OA 
HETATM   19  C   UNL     1     -10.244  10.236  69.151  1.00  0.00    -0.218 C  
ENDBRANCH   5   6
ENDBRANCH   4   5
ENDBRANCH   2   4
BRANCH   2  20
HETATM   20  C   UNL     1     -10.225   4.666  71.336  1.00  0.00    -0.141 C  
BRANCH  20  21
HETATM   21  O   UNL     1      -8.812   4.632  71.360  1.00  0.00    -0.119 OA 
BRANCH  21  22
HETATM   22  C   UNL     1      -8.101   5.654  70.773  1.00  0.00    -0.117 A  
HETATM   23  C   UNL     1      -8.296   5.965  66.911  1.00  0.00    -0.108 C  
HETATM   24  C   UNL     1      -8.777   5.626  68.252  1.00  0.00    -0.106 C  
HETATM   25  C   UNL     1      -7.967   6.070  69.426  1.00  0.00    -0.103 A  
HETATM   26  C   UNL     1      -6.999   7.055  69.121  1.00  0.00    -0.078 A  
HETATM   27  C   UNL     1      -7.330   6.873  66.782  1.00  0.00    -0.078 C  
HETATM   28  C   UNL     1      -6.254   7.686  70.124  1.00  0.00    -0.033 A  
HETATM   29  O   UNL     1      -6.699   7.486  67.843  1.00  0.00    -0.061 OA 
HETATM   30  C   UNL     1      -6.445   7.333  71.450  1.00  0.00    -0.036 A  
HETATM   31  C   UNL     1      -6.976   7.282  65.397  1.00  0.00    -0.060 C  
HETATM   32  O   UNL     1      -6.000   8.214  65.374  1.00  0.00    -0.044 OA 
HETATM   33  C   UNL     1      -7.339   6.312  71.762  1.00  0.00    -0.093 A  
HETATM   34  O   UNL     1      -9.868   5.078  68.302  1.00  0.00    -0.149 OA 
HETATM   35  O   UNL     1      -7.505   6.844  64.388  1.00  0.00    -0.085 OA 
ENDBRANCH  21  22
ENDBRANCH  20  21
ENDBRANCH   2  20
TORSDOF 6
ENDMDL
MODEL      232
REMARK 921   NORMALIZED FREE ENERGY PREDICTED BY IDOCK:   -5.10 KCAL/MOL
REMARK 922        TOTAL FREE ENERGY PREDICTED BY IDOCK:   -8.18 KCAL/MOL
REMARK 923 INTER-LIGAND FREE ENERGY PREDICTED BY IDOCK:   -8.20 KCAL/MOL
REMARK 924 INTRA-LIGAND FREE ENERGY PREDICTED BY IDOCK:    0.01 KCAL/MOL
REMARK 927      BINDING AFFINITY PREDICTED BY RF-SCORE:    0.00 PKD
ROOT
HETATM    1  O   UNL     1      -5.195  12.898  67.003  1.00  0.00    -0.334 OA 
HETATM    2  C   UNL     1      -6.118  12.109  67.778  1.00  0.00    -0.090 C  
HETATM    3  H   UNL     1      -4.720  12.308  66.429  1.00  0.00     0.000 HD 
ENDROOT
BRANCH   2   4
HETATM    4  C   UNL     1      -7.046  11.361  66.821  1.00  0.00    -0.132 C  
BRANCH   4   5
HETATM    5  O   UNL     1      -8.069  10.698  67.575  1.00  0.00    -0.110 OA 
BRANCH   5   6
HETATM    6  C   UNL     1      -7.898   9.374  67.872  1.00  0.00    -0.091 A  
HETATM    7  O   UNL     1     -12.638   7.029  71.651  1.00  0.00    -0.352 OA 
HETATM    8  O   UNL     1     -11.125   5.358  71.474  1.00  0.00    -0.159 OA 
HETATM    9  C   UNL     1      -6.843   8.605  67.357  1.00  0.00    -0.071 A  
HETATM   10  C   UNL     1      -6.677   7.270  67.725  1.00  0.00    -0.065 A  
HETATM   11  C   UNL     1     -11.570   6.613  71.237  1.00  0.00    -0.323 C  
HETATM   12  C   UNL     1      -7.563   6.682  68.616  1.00  0.00    -0.101 A  
HETATM   13  O   UNL     1      -9.472   6.749  69.974  1.00  0.00    -0.158 OA 
HETATM   14  C   UNL     1     -10.611   7.393  70.411  1.00  0.00    -0.228 C  
HETATM   15  C   UNL     1      -8.629   7.425  69.124  1.00  0.00    -0.136 A  
HETATM   16  C   UNL     1     -10.913   8.668  70.138  1.00  0.00    -0.234 C  
HETATM   17  C   UNL     1      -8.807   8.768  68.762  1.00  0.00    -0.134 A  
HETATM   18  O   UNL     1     -10.264  10.646  69.116  1.00  0.00    -0.204 OA 
HETATM   19  C   UNL     1      -9.993   9.473  69.316  1.00  0.00    -0.187 C  
ENDBRANCH   5   6
ENDBRANCH   4   5
ENDBRANCH   2   4
BRANCH   2  20
HETATM   20  C   UNL     1      -6.884  13.061  68.704  1.00  0.00    -0.099 C  
BRANCH  20  21
HETATM   21  O   UNL     1      -6.410  14.393  68.693  1.00  0.00    -0.080 OA 
BRANCH  21  22
HETATM   22  C   UNL     1      -7.000  15.313  67.857  1.00  0.00    -0.146 A  
HETATM   23  C   UNL     1     -10.447  14.385  66.340  1.00  0.00    -0.295 C  
HETATM   24  C   UNL     1      -9.381  14.376  67.345  1.00  0.00    -0.199 C  
HETATM   25  C   UNL     1      -8.236  15.318  67.166  1.00  0.00    -0.250 A  
HETATM   26  C   UNL     1      -8.473  16.345  66.223  1.00  0.00    -0.337 A  
HETATM   27  C   UNL     1     -10.509  15.393  65.473  1.00  0.00    -0.380 C  
HETATM   28  C   UNL     1      -7.566  17.394  66.037  1.00  0.00    -0.246 A  
HETATM   29  O   UNL     1      -9.591  16.419  65.414  1.00  0.00    -0.455 OA 
HETATM   30  C   UNL     1      -6.393  17.430  66.774  1.00  0.00    -0.237 A  
HETATM   31  C   UNL     1     -11.688  15.425  64.567  1.00  0.00    -0.277 C  
HETATM   32  O   UNL     1     -11.665  16.491  63.738  1.00  0.00    -1.086 OA 
HETATM   33  C   UNL     1      -6.108  16.388  67.653  1.00  0.00    -0.166 A  
HETATM   34  O   UNL     1      -9.567  13.652  68.311  1.00  0.00    -0.209 OA 
HETATM   35  O   UNL     1     -12.586  14.599  64.567  1.00  0.00    -0.626 OA 
ENDBRANCH  21  22
ENDBRANCH  20  21
ENDBRANCH   2  20
TORSDOF 6
ENDMDL
MODEL      233
REMARK 921   NORMALIZED FREE ENERGY PREDICTED BY IDOCK:   -5.07 KCAL/MOL
REMARK 922        TOTAL FREE ENERGY PREDICTED BY IDOCK:   -8.15 KCAL/MOL
REMARK 923 INTER-LIGAND FREE ENERGY PREDICTED BY IDOCK:   -7.56 KCAL/MOL
REMARK 924 INTRA-LIGAND FREE ENERGY PREDICTED BY IDOCK:   -0.59 KCAL/MOL
REMARK 927      BINDING AFFINITY PREDICTED BY RF-SCORE:    0.00 PKD
ROOT
HETATM    1  O   UNL     1      -9.023  10.520  70.041  1.00  0.00    -0.338 OA 
HETATM    2  C   UNL     1      -9.944   9.812  70.894  1.00  0.00    -0.001 C  
HETATM    3  H   UNL     1      -8.145  10.358  70.366  1.00  0.00     0.000 HD 
ENDROOT
BRANCH   2   4
HETATM    4  C   UNL     1      -9.585   8.327  70.875  1.00  0.00    -0.165 C  
BRANCH   4   5
HETATM    5  O   UNL     1      -8.654   8.078  69.814  1.00  0.00    -0.129 OA 
BRANCH   5   6
HETATM    6  C   UNL     1      -9.143   7.635  68.616  1.00  0.00    -0.135 A  
HETATM    7  O   UNL     1      -5.696   9.813  63.555  1.00  0.00    -0.092 OA 
HETATM    8  O   UNL     1      -7.471   8.736  62.657  1.00  0.00    -0.101 OA 
HETATM    9  C   UNL     1     -10.233   6.756  68.512  1.00  0.00    -0.186 A  
HETATM   10  C   UNL     1     -10.732   6.369  67.269  1.00  0.00    -0.426 A  
HETATM   11  C   UNL     1      -6.742   9.204  63.696  1.00  0.00    -0.090 C  
HETATM   12  C   UNL     1     -10.149   6.857  66.107  1.00  0.00     0.248 A  
HETATM   13  O   UNL     1      -8.524   8.120  64.988  1.00  0.00    -0.157 OA 
HETATM   14  C   UNL     1      -7.366   8.870  65.004  1.00  0.00    -0.095 C  
HETATM   15  C   UNL     1      -9.053   7.716  66.190  1.00  0.00    -0.144 A  
HETATM   16  C   UNL     1      -6.765   9.311  66.115  1.00  0.00    -0.074 C  
HETATM   17  C   UNL     1      -8.543   8.112  67.434  1.00  0.00    -0.125 A  
HETATM   18  O   UNL     1      -6.809   9.446  68.430  1.00  0.00    -0.062 OA 
HETATM   19  C   UNL     1      -7.347   8.996  67.431  1.00  0.00    -0.084 C  
ENDBRANCH   5   6
ENDBRANCH   4   5
ENDBRANCH   2   4
BRANCH   2  20
HETATM   20  C   UNL     1     -11.361  10.074  70.371  1.00  0.00    -0.320 C  
BRANCH  20  21
HETATM   21  O   UNL     1     -12.058  11.093  71.058  1.00  0.00    -0.335 OA 
BRANCH  21  22
HETATM   22  C   UNL     1     -12.138  12.350  70.502  1.00  0.00    -0.275 A  
HETATM   23  C   UNL     1     -11.250  12.692  66.742  1.00  0.00    -0.347 C  
HETATM   24  C   UNL     1     -11.745  12.017  67.944  1.00  0.00    -0.323 C  
HETATM   25  C   UNL     1     -11.916  12.826  69.188  1.00  0.00    -0.296 A  
HETATM   26  C   UNL     1     -11.897  14.225  68.975  1.00  0.00    -0.335 A  
HETATM   27  C   UNL     1     -11.233  14.023  66.709  1.00  0.00    -0.315 C  
HETATM   28  C   UNL     1     -12.186  15.127  70.005  1.00  0.00    -0.379 A  
HETATM   29  O   UNL     1     -11.601  14.827  67.767  1.00  0.00    -0.335 OA 
HETATM   30  C   UNL     1     -12.482  14.654  71.274  1.00  0.00    -0.408 A  
HETATM   31  C   UNL     1     -10.855  14.657  65.419  1.00  0.00    -0.356 C  
HETATM   32  O   UNL     1     -10.882  16.005  65.485  1.00  0.00    -0.339 OA 
HETATM   33  C   UNL     1     -12.433  13.284  71.519  1.00  0.00    -0.224 A  
HETATM   34  O   UNL     1     -12.069  10.848  67.801  1.00  0.00    -0.433 OA 
HETATM   35  O   UNL     1     -10.561  14.044  64.405  1.00  0.00    -0.382 OA 
ENDBRANCH  21  22
ENDBRANCH  20  21
ENDBRANCH   2  20
TORSDOF 6
ENDMDL
MODEL      234
REMARK 921   NORMALIZED FREE ENERGY PREDICTED BY IDOCK:   -5.07 KCAL/MOL
REMARK 922        TOTAL FREE ENERGY PREDICTED BY IDOCK:   -8.14 KCAL/MOL
REMARK 923 INTER-LIGAND FREE ENERGY PREDICTED BY IDOCK:   -6.16 KCAL/MOL
REMARK 924 INTRA-LIGAND FREE ENERGY PREDICTED BY IDOCK:   -1.98 KCAL/MOL
REMARK 927      BINDING AFFINITY PREDICTED BY RF-SCORE:    0.00 PKD
ROOT
HETATM    1  O   UNL     1     -10.658   5.115  71.051  1.00  0.00    -0.212 OA 
HETATM    2  C   UNL     1      -9.627   5.690  70.224  1.00  0.00    -0.168 C  
HETATM    3  H   UNL     1     -10.341   5.111  71.947  1.00  0.00     0.000 HD 
ENDROOT
BRANCH   2   4
HETATM    4  C   UNL     1      -9.318   7.097  70.735  1.00  0.00    -0.160 C  
BRANCH   4   5
HETATM    5  O   UNL     1      -7.911   7.212  70.983  1.00  0.00    -0.100 OA 
BRANCH   5   6
HETATM    6  C   UNL     1      -7.060   7.162  69.913  1.00  0.00    -0.073 A  
HETATM    7  O   UNL     1      -6.212  12.967  67.118  1.00  0.00    -0.286 OA 
HETATM    8  O   UNL     1      -5.128  11.494  65.789  1.00  0.00    -0.314 OA 
HETATM    9  C   UNL     1      -6.401   5.988  69.515  1.00  0.00    -0.041 A  
HETATM   10  C   UNL     1      -5.581   5.968  68.388  1.00  0.00    -0.012 A  
HETATM   11  C   UNL     1      -5.894  11.822  66.854  1.00  0.00    -0.143 C  
HETATM   12  C   UNL     1      -5.406   7.123  67.638  1.00  0.00    -0.020 A  
HETATM   13  O   UNL     1      -5.779   9.402  67.245  1.00  0.00    -0.041 OA 
HETATM   14  C   UNL     1      -6.275  10.624  67.650  1.00  0.00    -0.055 C  
HETATM   15  C   UNL     1      -6.037   8.304  68.029  1.00  0.00    -0.047 A  
HETATM   16  C   UNL     1      -7.070  10.805  68.711  1.00  0.00    -0.079 C  
HETATM   17  C   UNL     1      -6.865   8.336  69.160  1.00  0.00    -0.051 A  
HETATM   18  O   UNL     1      -8.226   9.826  70.467  1.00  0.00    -0.209 OA 
HETATM   19  C   UNL     1      -7.464   9.646  69.530  1.00  0.00    -0.096 C  
ENDBRANCH   5   6
ENDBRANCH   4   5
ENDBRANCH   2   4
BRANCH   2  20
HETATM   20  C   UNL     1     -10.138   5.696  68.779  1.00  0.00    -0.186 C  
BRANCH  20  21
HETATM   21  O   UNL     1     -10.794   6.888  68.396  1.00  0.00    -0.215 OA 
BRANCH  21  22
HETATM   22  C   UNL     1     -10.185   7.736  67.498  1.00  0.00    -0.235 A  
HETATM   23  C   UNL     1     -11.297  11.452  67.527  1.00  0.00    -0.362 C  
HETATM   24  C   UNL     1     -11.037  10.129  68.098  1.00  0.00    -0.230 C  
HETATM   25  C   UNL     1     -10.323   9.124  67.255  1.00  0.00    -0.338 A  
HETATM   26  C   UNL     1      -9.683   9.672  66.118  1.00  0.00    -0.252 A  
HETATM   27  C   UNL     1     -10.663  11.810  66.412  1.00  0.00    -0.266 C  
HETATM   28  C   UNL     1      -8.851   8.899  65.301  1.00  0.00    -0.227 A  
HETATM   29  O   UNL     1      -9.808  10.987  65.711  1.00  0.00    -0.214 OA 
HETATM   30  C   UNL     1      -8.654   7.558  65.588  1.00  0.00    -0.131 A  
HETATM   31  C   UNL     1     -10.856  13.211  65.952  1.00  0.00    -0.273 C  
HETATM   32  O   UNL     1     -10.163  13.478  64.825  1.00  0.00    -0.379 OA 
HETATM   33  C   UNL     1      -9.335   6.984  66.659  1.00  0.00    -0.203 A  
HETATM   34  O   UNL     1     -11.350   9.985  69.270  1.00  0.00    -0.203 OA 
HETATM   35  O   UNL     1     -11.548  14.038  66.522  1.00  0.00    -0.341 OA 
ENDBRANCH  21  22
ENDBRANCH  20  21
ENDBRANCH   2  20
TORSDOF 6
ENDMDL
MODEL      235
REMARK 921   NORMALIZED FREE ENERGY PREDICTED BY IDOCK:   -5.06 KCAL/MOL
REMARK 922        TOTAL FREE ENERGY PREDICTED BY IDOCK:   -8.14 KCAL/MOL
REMARK 923 INTER-LIGAND FREE ENERGY PREDICTED BY IDOCK:   -7.45 KCAL/MOL
REMARK 924 INTRA-LIGAND FREE ENERGY PREDICTED BY IDOCK:   -0.68 KCAL/MOL
REMARK 927      BINDING AFFINITY PREDICTED BY RF-SCORE:    0.00 PKD
ROOT
HETATM    1  O   UNL     1     -11.388   9.956  69.045  1.00  0.00    -0.429 OA 
HETATM    2  C   UNL     1     -10.788  10.210  67.760  1.00  0.00    -0.292 C  
HETATM    3  H   UNL     1     -11.094   9.101  69.338  1.00  0.00     0.000 HD 
ENDROOT
BRANCH   2   4
HETATM    4  C   UNL     1      -9.268  10.139  67.906  1.00  0.00    -0.138 C  
BRANCH   4   5
HETATM    5  O   UNL     1      -8.914   8.926  68.582  1.00  0.00    -0.137 OA 
BRANCH   5   6
HETATM    6  C   UNL     1      -7.827   8.228  68.132  1.00  0.00    -0.118 A  
HETATM    7  O   UNL     1      -9.446   2.512  65.496  1.00  0.00    -0.069 OA 
HETATM    8  O   UNL     1      -7.186   2.536  65.542  1.00  0.00    -0.062 OA 
HETATM    9  C   UNL     1      -6.519   8.734  68.183  1.00  0.00    -0.060 A  
HETATM   10  C   UNL     1      -5.433   7.968  67.760  1.00  0.00    -0.034 A  
HETATM   11  C   UNL     1      -8.404   3.066  65.797  1.00  0.00    -0.101 C  
HETATM   12  C   UNL     1      -5.637   6.683  67.278  1.00  0.00    -0.013 A  
HETATM   13  O   UNL     1      -7.039   4.903  66.680  1.00  0.00    -0.066 OA 
HETATM   14  C   UNL     1      -8.302   4.391  66.465  1.00  0.00    -0.105 C  
HETATM   15  C   UNL     1      -6.933   6.171  67.201  1.00  0.00    -0.068 A  
HETATM   16  C   UNL     1      -9.438   5.007  66.810  1.00  0.00    -0.148 C  
HETATM   17  C   UNL     1      -8.032   6.930  67.624  1.00  0.00    -0.113 A  
HETATM   18  O   UNL     1     -10.427   6.848  67.815  1.00  0.00    -0.184 OA 
HETATM   19  C   UNL     1      -9.381   6.324  67.467  1.00  0.00    -0.113 C  
ENDBRANCH   5   6
ENDBRANCH   4   5
ENDBRANCH   2   4
BRANCH   2  20
HETATM   20  C   UNL     1     -11.262  11.590  67.289  1.00  0.00    -0.301 C  
BRANCH  20  21
HETATM   21  O   UNL     1     -10.234  12.421  66.789  1.00  0.00    -0.217 OA 
BRANCH  21  22
HETATM   22  C   UNL     1     -10.562  13.504  66.006  1.00  0.00    -0.285 A  
HETATM   23  C   UNL     1      -9.306  16.985  67.171  1.00  0.00    -0.241 C  
HETATM   24  C   UNL     1      -9.266  15.528  67.024  1.00  0.00    -0.225 C  
HETATM   25  C   UNL     1     -10.257  14.883  66.112  1.00  0.00    -0.314 A  
HETATM   26  C   UNL     1     -10.910  15.784  65.237  1.00  0.00    -0.395 A  
HETATM   27  C   UNL     1     -10.017  17.702  66.303  1.00  0.00    -0.318 C  
HETATM   28  C   UNL     1     -11.761  15.333  64.222  1.00  0.00    -0.223 A  
HETATM   29  O   UNL     1     -10.778  17.158  65.291  1.00  0.00    -0.629 OA 
HETATM   30  C   UNL     1     -11.994  13.975  64.069  1.00  0.00    -0.388 A  
HETATM   31  C   UNL     1      -9.912  19.181  66.413  1.00  0.00    -0.395 C  
HETATM   32  O   UNL     1     -10.656  19.816  65.482  1.00  0.00    -0.468 OA 
HETATM   33  C   UNL     1     -11.420  13.080  64.968  1.00  0.00    -0.345 A  
HETATM   34  O   UNL     1      -8.348  14.961  67.598  1.00  0.00    -0.147 OA 
HETATM   35  O   UNL     1      -9.229  19.769  67.236  1.00  0.00    -0.314 OA 
ENDBRANCH  21  22
ENDBRANCH  20  21
ENDBRANCH   2  20
TORSDOF 6
ENDMDL
MODEL      236
REMARK 921   NORMALIZED FREE ENERGY PREDICTED BY IDOCK:   -5.05 KCAL/MOL
REMARK 922        TOTAL FREE ENERGY PREDICTED BY IDOCK:   -8.12 KCAL/MOL
REMARK 923 INTER-LIGAND FREE ENERGY PREDICTED BY IDOCK:   -6.59 KCAL/MOL
REMARK 924 INTRA-LIGAND FREE ENERGY PREDICTED BY IDOCK:   -1.53 KCAL/MOL
REMARK 927      BINDING AFFINITY PREDICTED BY RF-SCORE:    0.00 PKD
ROOT
HETATM    1  O   UNL     1      -6.011  10.940  69.430  1.00  0.00    -0.042 OA 
HETATM    2  C   UNL     1      -6.802   9.992  68.687  1.00  0.00    -0.054 C  
HETATM    3  H   UNL     1      -6.101  10.732  70.353  1.00  0.00     0.000 HD 
ENDROOT
BRANCH   2   4
HETATM    4  C   UNL     1      -6.310   8.582  69.013  1.00  0.00    -0.044 C  
BRANCH   4   5
HETATM    5  O   UNL     1      -7.422   7.774  69.419  1.00  0.00    -0.084 OA 
BRANCH   5   6
HETATM    6  C   UNL     1      -7.861   7.879  70.710  1.00  0.00    -0.091 A  
HETATM    7  O   UNL     1     -14.293   8.720  71.104  1.00  0.00    -0.257 OA 
HETATM    8  O   UNL     1     -13.526   8.937  73.220  1.00  0.00    -0.095 OA 
HETATM    9  C   UNL     1      -7.009   7.754  71.820  1.00  0.00    -0.064 A  
HETATM   10  C   UNL     1      -7.489   7.920  73.119  1.00  0.00    -0.150 A  
HETATM   11  C   UNL     1     -13.363   8.751  71.890  1.00  0.00    -0.389 C  
HETATM   12  C   UNL     1      -8.828   8.213  73.330  1.00  0.00    -0.322 A  
HETATM   13  O   UNL     1     -11.007   8.583  72.551  1.00  0.00    -0.353 OA 
HETATM   14  C   UNL     1     -11.931   8.581  71.527  1.00  0.00    -0.303 C  
HETATM   15  C   UNL     1      -9.693   8.322  72.242  1.00  0.00    -0.292 A  
HETATM   16  C   UNL     1     -11.628   8.429  70.233  1.00  0.00     0.016 C  
HETATM   17  C   UNL     1      -9.224   8.159  70.931  1.00  0.00    -0.171 A  
HETATM   18  O   UNL     1      -9.961   8.159  68.643  1.00  0.00    -0.179 OA 
HETATM   19  C   UNL     1     -10.221   8.250  69.832  1.00  0.00    -0.201 C  
ENDBRANCH   5   6
ENDBRANCH   4   5
ENDBRANCH   2   4
BRANCH   2  20
HETATM   20  C   UNL     1      -6.657  10.327  67.199  1.00  0.00    -0.073 C  
BRANCH  20  21
HETATM   21  O   UNL     1      -7.189  11.583  66.829  1.00  0.00    -0.141 OA 
BRANCH  21  22
HETATM   22  C   UNL     1      -8.533  11.825  66.998  1.00  0.00    -0.175 A  
HETATM   23  C   UNL     1      -9.531  14.874  69.177  1.00  0.00    -0.158 C  
HETATM   24  C   UNL     1      -8.687  14.102  68.263  1.00  0.00    -0.181 C  
HETATM   25  C   UNL     1      -9.239  12.838  67.690  1.00  0.00    -0.192 A  
HETATM   26  C   UNL     1     -10.640  12.700  67.836  1.00  0.00    -0.220 A  
HETATM   27  C   UNL     1     -10.829  14.590  69.254  1.00  0.00    -0.252 C  
HETATM   28  C   UNL     1     -11.340  11.649  67.233  1.00  0.00    -0.372 A  
HETATM   29  O   UNL     1     -11.437  13.563  68.564  1.00  0.00    -0.266 OA 
HETATM   30  C   UNL     1     -10.655  10.702  66.488  1.00  0.00    -0.257 A  
HETATM   31  C   UNL     1     -11.665  15.492  70.090  1.00  0.00    -0.347 C  
HETATM   32  O   UNL     1     -12.965  15.128  70.091  1.00  0.00    -0.222 OA 
HETATM   33  C   UNL     1      -9.268  10.780  66.396  1.00  0.00    -0.191 A  
HETATM   34  O   UNL     1      -7.617  14.614  67.967  1.00  0.00    -0.107 OA 
HETATM   35  O   UNL     1     -11.242  16.459  70.702  1.00  0.00    -0.358 OA 
ENDBRANCH  21  22
ENDBRANCH  20  21
ENDBRANCH   2  20
TORSDOF 6
ENDMDL
MODEL      237
REMARK 921   NORMALIZED FREE ENERGY PREDICTED BY IDOCK:   -5.04 KCAL/MOL
REMARK 922        TOTAL FREE ENERGY PREDICTED BY IDOCK:   -8.11 KCAL/MOL
REMARK 923 INTER-LIGAND FREE ENERGY PREDICTED BY IDOCK:   -6.08 KCAL/MOL
REMARK 924 INTRA-LIGAND FREE ENERGY PREDICTED BY IDOCK:   -2.02 KCAL/MOL
REMARK 927      BINDING AFFINITY PREDICTED BY RF-SCORE:    0.00 PKD
ROOT
HETATM    1  O   UNL     1      -6.535   6.017  66.849  1.00  0.00    -0.046 OA 
HETATM    2  C   UNL     1      -7.643   6.304  65.974  1.00  0.00    -0.087 C  
HETATM    3  H   UNL     1      -6.835   5.394  67.501  1.00  0.00     0.000 HD 
ENDROOT
BRANCH   2   4
HETATM    4  C   UNL     1      -8.123   4.996  65.346  1.00  0.00    -0.116 C  
BRANCH   4   5
HETATM    5  O   UNL     1      -9.293   4.540  66.037  1.00  0.00    -0.137 OA 
BRANCH   5   6
HETATM    6  C   UNL     1      -9.131   3.936  67.253  1.00  0.00    -0.156 A  
HETATM    7  O   UNL     1     -12.479   6.895  71.973  1.00  0.00    -0.312 OA 
HETATM    8  O   UNL     1     -11.244   5.311  73.012  1.00  0.00    -0.290 OA 
HETATM    9  C   UNL     1      -8.373   2.769  67.433  1.00  0.00    -0.093 A  
HETATM   10  C   UNL     1      -8.192   2.215  68.700  1.00  0.00    -0.074 A  
HETATM   11  C   UNL     1     -11.648   6.006  71.924  1.00  0.00    -0.252 C  
HETATM   12  C   UNL     1      -8.767   2.819  69.809  1.00  0.00    -0.130 A  
HETATM   13  O   UNL     1     -10.095   4.477  70.798  1.00  0.00    -0.214 OA 
HETATM   14  C   UNL     1     -10.968   5.539  70.687  1.00  0.00    -0.120 C  
HETATM   15  C   UNL     1      -9.540   3.969  69.648  1.00  0.00    -0.200 A  
HETATM   16  C   UNL     1     -11.249   6.173  69.542  1.00  0.00    -0.482 C  
HETATM   17  C   UNL     1      -9.729   4.536  68.380  1.00  0.00    -0.188 A  
HETATM   18  O   UNL     1     -10.837   6.356  67.267  1.00  0.00    -0.299 OA 
HETATM   19  C   UNL     1     -10.602   5.736  68.292  1.00  0.00    -0.217 C  
ENDBRANCH   5   6
ENDBRANCH   4   5
ENDBRANCH   2   4
BRANCH   2  20
HETATM   20  C   UNL     1      -7.159   7.309  64.922  1.00  0.00    -0.064 C  
BRANCH  20  21
HETATM   21  O   UNL     1      -7.139   8.652  65.363  1.00  0.00    -0.080 OA 
BRANCH  21  22
HETATM   22  C   UNL     1      -8.139   9.105  66.194  1.00  0.00    -0.107 A  
HETATM   23  C   UNL     1      -7.691   8.513  70.001  1.00  0.00    -0.086 C  
HETATM   24  C   UNL     1      -7.254   8.745  68.623  1.00  0.00    -0.073 C  
HETATM   25  C   UNL     1      -8.290   9.083  67.602  1.00  0.00    -0.117 A  
HETATM   26  C   UNL     1      -9.538   9.466  68.148  1.00  0.00    -0.142 A  
HETATM   27  C   UNL     1      -8.922   8.872  70.358  1.00  0.00    -0.182 C  
HETATM   28  C   UNL     1     -10.573   9.952  67.342  1.00  0.00    -0.338 A  
HETATM   29  O   UNL     1      -9.853   9.404  69.492  1.00  0.00    -0.167 OA 
HETATM   30  C   UNL     1     -10.393  10.049  65.972  1.00  0.00    -0.222 A  
HETATM   31  C   UNL     1      -9.267   8.742  71.799  1.00  0.00    -0.262 C  
HETATM   32  O   UNL     1     -10.529   9.144  72.059  1.00  0.00    -0.322 OA 
HETATM   33  C   UNL     1      -9.199   9.606  65.408  1.00  0.00    -0.295 A  
HETATM   34  O   UNL     1      -6.046   8.734  68.439  1.00  0.00    -0.048 OA 
HETATM   35  O   UNL     1      -8.505   8.333  72.660  1.00  0.00    -0.168 OA 
ENDBRANCH  21  22
ENDBRANCH  20  21
ENDBRANCH   2  20
TORSDOF 6
ENDMDL
MODEL      238
REMARK 921   NORMALIZED FREE ENERGY PREDICTED BY IDOCK:   -5.04 KCAL/MOL
REMARK 922        TOTAL FREE ENERGY PREDICTED BY IDOCK:   -8.10 KCAL/MOL
REMARK 923 INTER-LIGAND FREE ENERGY PREDICTED BY IDOCK:   -6.97 KCAL/MOL
REMARK 924 INTRA-LIGAND FREE ENERGY PREDICTED BY IDOCK:   -1.13 KCAL/MOL
REMARK 927      BINDING AFFINITY PREDICTED BY RF-SCORE:    0.00 PKD
ROOT
HETATM    1  O   UNL     1     -11.833  10.555  67.105  1.00  0.00    -0.132 OA 
HETATM    2  C   UNL     1     -10.844  10.986  66.150  1.00  0.00    -0.146 C  
HETATM    3  H   UNL     1     -11.619   9.666  67.362  1.00  0.00     0.000 HD 
ENDROOT
BRANCH   2   4
HETATM    4  C   UNL     1      -9.463  10.887  66.797  1.00  0.00    -0.177 C  
BRANCH   4   5
HETATM    5  O   UNL     1      -9.609  10.850  68.222  1.00  0.00    -0.155 OA 
BRANCH   5   6
HETATM    6  C   UNL     1      -8.585  10.328  68.964  1.00  0.00    -0.162 A  
HETATM    7  O   UNL     1     -10.692   6.652  73.891  1.00  0.00    -0.288 OA 
HETATM    8  O   UNL     1      -8.452   6.796  74.162  1.00  0.00    -0.128 OA 
HETATM    9  C   UNL     1      -7.233  10.524  68.644  1.00  0.00    -0.087 A  
HETATM   10  C   UNL     1      -6.219  10.017  69.457  1.00  0.00    -0.046 A  
HETATM   11  C   UNL     1      -9.614   7.090  73.534  1.00  0.00    -0.208 C  
HETATM   12  C   UNL     1      -6.542   9.305  70.604  1.00  0.00    -0.079 A  
HETATM   13  O   UNL     1      -8.102   8.342  72.063  1.00  0.00    -0.119 OA 
HETATM   14  C   UNL     1      -9.399   7.987  72.367  1.00  0.00    -0.208 C  
HETATM   15  C   UNL     1      -7.881   9.084  70.927  1.00  0.00    -0.146 A  
HETATM   16  C   UNL     1     -10.476   8.388  71.681  1.00  0.00    -0.321 C  
HETATM   17  C   UNL     1      -8.909   9.589  70.119  1.00  0.00    -0.266 A  
HETATM   18  O   UNL     1     -11.304   9.663  69.929  1.00  0.00    -0.230 OA 
HETATM   19  C   UNL     1     -10.306   9.271  70.514  1.00  0.00    -0.254 C  
ENDBRANCH   5   6
ENDBRANCH   4   5
ENDBRANCH   2   4
BRANCH   2  20
HETATM   20  C   UNL     1     -11.189  12.421  65.736  1.00  0.00    -0.333 C  
BRANCH  20  21
HETATM   21  O   UNL     1     -10.964  13.389  66.741  1.00  0.00    -0.283 OA 
BRANCH  21  22
HETATM   22  C   UNL     1     -10.675  14.685  66.378  1.00  0.00    -0.309 A  
HETATM   23  C   UNL     1      -8.107  16.610  68.557  1.00  0.00    -0.226 C  
HETATM   24  C   UNL     1      -8.719  15.433  67.936  1.00  0.00    -0.160 C  
HETATM   25  C   UNL     1      -9.789  15.650  66.917  1.00  0.00    -0.245 A  
HETATM   26  C   UNL     1      -9.860  16.974  66.424  1.00  0.00    -0.299 A  
HETATM   27  C   UNL     1      -8.313  17.808  68.014  1.00  0.00    -0.249 C  
HETATM   28  C   UNL     1     -10.707  17.318  65.364  1.00  0.00    -0.074 A  
HETATM   29  O   UNL     1      -9.124  18.032  66.922  1.00  0.00    -0.255 OA 
HETATM   30  C   UNL     1     -11.514  16.353  64.785  1.00  0.00    -0.061 A  
HETATM   31  C   UNL     1      -7.559  18.947  68.600  1.00  0.00    -0.331 C  
HETATM   32  O   UNL     1      -7.826  20.113  67.972  1.00  0.00    -0.281 OA 
HETATM   33  C   UNL     1     -11.513  15.061  65.306  1.00  0.00    -0.308 A  
HETATM   34  O   UNL     1      -8.229  14.356  68.240  1.00  0.00    -0.134 OA 
HETATM   35  O   UNL     1      -6.777  18.855  69.532  1.00  0.00    -0.268 OA 
ENDBRANCH  21  22
ENDBRANCH  20  21
ENDBRANCH   2  20
TORSDOF 6
ENDMDL
MODEL      239
REMARK 921   NORMALIZED FREE ENERGY PREDICTED BY IDOCK:   -5.00 KCAL/MOL
REMARK 922        TOTAL FREE ENERGY PREDICTED BY IDOCK:   -8.04 KCAL/MOL
REMARK 923 INTER-LIGAND FREE ENERGY PREDICTED BY IDOCK:   -6.40 KCAL/MOL
REMARK 924 INTRA-LIGAND FREE ENERGY PREDICTED BY IDOCK:   -1.64 KCAL/MOL
REMARK 927      BINDING AFFINITY PREDICTED BY RF-SCORE:    0.00 PKD
ROOT
HETATM    1  O   UNL     1      -9.808   5.284  65.210  1.00  0.00    -0.368 OA 
HETATM    2  C   UNL     1      -8.530   5.948  65.252  1.00  0.00    -0.144 C  
HETATM    3  H   UNL     1      -9.648   4.348  65.195  1.00  0.00     0.000 HD 
ENDROOT
BRANCH   2   4
HETATM    4  C   UNL     1      -7.772   5.471  66.491  1.00  0.00    -0.100 C  
BRANCH   4   5
HETATM    5  O   UNL     1      -8.688   4.833  67.390  1.00  0.00    -0.104 OA 
BRANCH   5   6
HETATM    6  C   UNL     1      -8.517   5.029  68.733  1.00  0.00    -0.086 A  
HETATM    7  O   UNL     1     -13.538   8.121  71.466  1.00  0.00    -0.337 OA 
HETATM    8  O   UNL     1     -11.979   7.945  73.094  1.00  0.00    -0.161 OA 
HETATM    9  C   UNL     1      -7.402   4.552  69.439  1.00  0.00    -0.052 A  
HETATM   10  C   UNL     1      -7.242   4.817  70.799  1.00  0.00    -0.049 A  
HETATM   11  C   UNL     1     -12.428   7.776  71.829  1.00  0.00    -0.320 C  
HETATM   12  C   UNL     1      -8.195   5.566  71.475  1.00  0.00    -0.119 A  
HETATM   13  O   UNL     1     -10.223   6.735  71.554  1.00  0.00    -0.193 OA 
HETATM   14  C   UNL     1     -11.412   7.116  70.967  1.00  0.00    -0.297 C  
HETATM   15  C   UNL     1      -9.319   6.032  70.794  1.00  0.00    -0.154 A  
HETATM   16  C   UNL     1     -11.715   6.927  69.677  1.00  0.00    -0.076 C  
HETATM   17  C   UNL     1      -9.491   5.772  69.427  1.00  0.00    -0.162 A  
HETATM   18  O   UNL     1     -11.016   6.147  67.607  1.00  0.00    -0.312 OA 
HETATM   19  C   UNL     1     -10.739   6.270  68.790  1.00  0.00    -0.297 C  
ENDBRANCH   5   6
ENDBRANCH   4   5
ENDBRANCH   2   4
BRANCH   2  20
HETATM   20  C   UNL     1      -8.789   7.459  65.276  1.00  0.00     0.181 C  
BRANCH  20  21
HETATM   21  O   UNL     1      -7.963   8.179  66.169  1.00  0.00    -0.095 OA 
BRANCH  21  22
HETATM   22  C   UNL     1      -8.529   9.107  67.013  1.00  0.00    -0.123 A  
HETATM   23  C   UNL     1     -10.433  12.066  65.381  1.00  0.00    -0.313 C  
HETATM   24  C   UNL     1      -9.919  10.699  65.481  1.00  0.00    -0.272 C  
HETATM   25  C   UNL     1      -9.298  10.271  66.771  1.00  0.00    -0.187 A  
HETATM   26  C   UNL     1      -9.576  11.130  67.860  1.00  0.00    -0.175 A  
HETATM   27  C   UNL     1     -10.586  12.782  66.493  1.00  0.00    -0.254 C  
HETATM   28  C   UNL     1      -9.195  10.805  69.167  1.00  0.00    -0.131 A  
HETATM   29  O   UNL     1     -10.234  12.341  67.751  1.00  0.00    -0.196 OA 
HETATM   30  C   UNL     1      -8.512   9.625  69.412  1.00  0.00    -0.156 A  
HETATM   31  C   UNL     1     -11.241  14.109  66.351  1.00  0.00    -0.328 C  
HETATM   32  O   UNL     1     -11.361  14.748  67.534  1.00  0.00    -0.319 OA 
HETATM   33  C   UNL     1      -8.164   8.803  68.343  1.00  0.00    -0.118 A  
HETATM   34  O   UNL     1     -10.127   9.981  64.515  1.00  0.00    -0.243 OA 
HETATM   35  O   UNL     1     -11.639  14.577  65.297  1.00  0.00    -0.341 OA 
ENDBRANCH  21  22
ENDBRANCH  20  21
ENDBRANCH   2  20
TORSDOF 6
ENDMDL
MODEL      240
REMARK 921   NORMALIZED FREE ENERGY PREDICTED BY IDOCK:   -4.99 KCAL/MOL
REMARK 922        TOTAL FREE ENERGY PREDICTED BY IDOCK:   -8.04 KCAL/MOL
REMARK 923 INTER-LIGAND FREE ENERGY PREDICTED BY IDOCK:   -7.30 KCAL/MOL
REMARK 924 INTRA-LIGAND FREE ENERGY PREDICTED BY IDOCK:   -0.74 KCAL/MOL
REMARK 927      BINDING AFFINITY PREDICTED BY RF-SCORE:    0.00 PKD
ROOT
HETATM    1  O   UNL     1      -8.651   9.624  66.610  1.00  0.00    -0.129 OA 
HETATM    2  C   UNL     1      -9.789   9.640  67.494  1.00  0.00    -0.169 C  
HETATM    3  H   UNL     1      -8.962   9.399  65.741  1.00  0.00     0.000 HD 
ENDROOT
BRANCH   2   4
HETATM    4  C   UNL     1     -10.807  10.650  66.964  1.00  0.00    -0.238 C  
BRANCH   4   5
HETATM    5  O   UNL     1     -10.441  11.965  67.402  1.00  0.00    -0.210 OA 
BRANCH   5   6
HETATM    6  C   UNL     1     -10.722  13.021  66.579  1.00  0.00    -0.278 A  
HETATM    7  O   UNL     1      -6.039  17.528  66.617  1.00  0.00    -0.160 OA 
HETATM    8  O   UNL     1      -7.711  18.406  65.374  1.00  0.00    -0.343 OA 
HETATM    9  C   UNL     1     -11.870  13.080  65.775  1.00  0.00    -0.453 A  
HETATM   10  C   UNL     1     -12.144  14.199  64.989  1.00  0.00    -0.428 A  
HETATM   11  C   UNL     1      -7.161  17.445  66.150  1.00  0.00    -0.284 C  
HETATM   12  C   UNL     1     -11.273  15.279  64.995  1.00  0.00    -0.409 A  
HETATM   13  O   UNL     1      -9.299  16.333  65.691  1.00  0.00    -0.457 OA 
HETATM   14  C   UNL     1      -8.083  16.294  66.341  1.00  0.00    -0.299 C  
HETATM   15  C   UNL     1     -10.116  15.231  65.774  1.00  0.00    -0.356 A  
HETATM   16  C   UNL     1      -7.675  15.289  67.125  1.00  0.00    -0.238 C  
HETATM   17  C   UNL     1      -9.831  14.112  66.569  1.00  0.00    -0.298 A  
HETATM   18  O   UNL     1      -8.185  13.242  68.089  1.00  0.00    -0.144 OA 
HETATM   19  C   UNL     1      -8.556  14.127  67.334  1.00  0.00    -0.210 C  
ENDBRANCH   5   6
ENDBRANCH   4   5
ENDBRANCH   2   4
BRANCH   2  20
HETATM   20  C   UNL     1      -9.286  10.005  68.896  1.00  0.00    -0.172 C  
BRANCH  20  21
HETATM   21  O   UNL     1      -9.629   9.072  69.900  1.00  0.00    -0.169 OA 
BRANCH  21  22
HETATM   22  C   UNL     1      -8.771   8.032  70.178  1.00  0.00    -0.135 A  
HETATM   23  C   UNL     1     -10.336   4.744  71.515  1.00  0.00    -0.203 C  
HETATM   24  C   UNL     1     -10.297   5.993  70.751  1.00  0.00    -0.224 C  
HETATM   25  C   UNL     1      -8.992   6.713  70.643  1.00  0.00    -0.151 A  
HETATM   26  C   UNL     1      -7.870   5.935  71.013  1.00  0.00    -0.110 A  
HETATM   27  C   UNL     1      -9.190   4.153  71.847  1.00  0.00    -0.126 C  
HETATM   28  C   UNL     1      -6.563   6.404  70.837  1.00  0.00    -0.053 A  
HETATM   29  O   UNL     1      -7.944   4.672  71.568  1.00  0.00    -0.095 OA 
HETATM   30  C   UNL     1      -6.348   7.665  70.305  1.00  0.00    -0.034 A  
HETATM   31  C   UNL     1      -9.288   2.821  72.499  1.00  0.00    -0.099 C  
HETATM   32  O   UNL     1      -8.075   2.301  72.783  1.00  0.00    -0.053 OA 
HETATM   33  C   UNL     1      -7.441   8.474  70.005  1.00  0.00    -0.060 A  
HETATM   34  O   UNL     1     -11.331   6.299  70.178  1.00  0.00    -0.372 OA 
HETATM   35  O   UNL     1     -10.335   2.245  72.746  1.00  0.00    -0.140 OA 
ENDBRANCH  21  22
ENDBRANCH  20  21
ENDBRANCH   2  20
TORSDOF 6
ENDMDL
MODEL      241
REMARK 921   NORMALIZED FREE ENERGY PREDICTED BY IDOCK:   -4.99 KCAL/MOL
REMARK 922        TOTAL FREE ENERGY PREDICTED BY IDOCK:   -8.04 KCAL/MOL
REMARK 923 INTER-LIGAND FREE ENERGY PREDICTED BY IDOCK:   -7.68 KCAL/MOL
REMARK 924 INTRA-LIGAND FREE ENERGY PREDICTED BY IDOCK:   -0.36 KCAL/MOL
REMARK 927      BINDING AFFINITY PREDICTED BY RF-SCORE:    0.00 PKD
ROOT
HETATM    1  O   UNL     1     -10.067   4.758  69.360  1.00  0.00    -0.218 OA 
HETATM    2  C   UNL     1     -10.587   5.981  68.803  1.00  0.00    -0.282 C  
HETATM    3  H   UNL     1      -9.538   4.337  68.691  1.00  0.00     0.000 HD 
ENDROOT
BRANCH   2   4
HETATM    4  C   UNL     1      -9.413   6.854  68.359  1.00  0.00    -0.128 C  
BRANCH   4   5
HETATM    5  O   UNL     1      -8.221   6.420  69.026  1.00  0.00    -0.113 OA 
BRANCH   5   6
HETATM    6  C   UNL     1      -7.877   7.034  70.198  1.00  0.00    -0.109 A  
HETATM    7  O   UNL     1      -5.726  13.101  69.304  1.00  0.00    -0.076 OA 
HETATM    8  O   UNL     1      -5.415  12.669  71.501  1.00  0.00    -0.373 OA 
HETATM    9  C   UNL     1      -8.036   6.427  71.454  1.00  0.00    -0.105 A  
HETATM   10  C   UNL     1      -7.624   7.069  72.622  1.00  0.00    -0.089 A  
HETATM   11  C   UNL     1      -5.787  12.331  70.245  1.00  0.00    -0.166 C  
HETATM   12  C   UNL     1      -7.045   8.328  72.553  1.00  0.00    -0.122 A  
HETATM   13  O   UNL     1      -6.343  10.212  71.350  1.00  0.00    -0.320 OA 
HETATM   14  C   UNL     1      -6.283  10.931  70.174  1.00  0.00    -0.142 C  
HETATM   15  C   UNL     1      -6.896   8.955  71.316  1.00  0.00    -0.090 A  
HETATM   16  C   UNL     1      -6.646  10.456  68.977  1.00  0.00    -0.058 C  
HETATM   17  C   UNL     1      -7.306   8.320  70.135  1.00  0.00    -0.056 A  
HETATM   18  O   UNL     1      -7.433   8.647  67.756  1.00  0.00    -0.094 OA 
HETATM   19  C   UNL     1      -7.150   9.076  68.864  1.00  0.00    -0.069 C  
ENDBRANCH   5   6
ENDBRANCH   4   5
ENDBRANCH   2   4
BRANCH   2  20
HETATM   20  C   UNL     1     -11.439   6.660  69.881  1.00  0.00    -0.354 C  
BRANCH  20  21
HETATM   21  O   UNL     1     -10.856   7.817  70.444  1.00  0.00    -0.237 OA 
BRANCH  21  22
HETATM   22  C   UNL     1     -11.650   8.905  70.726  1.00  0.00    -0.259 A  
HETATM   23  C   UNL     1     -10.846  12.220  68.881  1.00  0.00    -0.238 C  
HETATM   24  C   UNL     1     -10.916  10.767  69.052  1.00  0.00    -0.240 C  
HETATM   25  C   UNL     1     -11.659  10.232  70.232  1.00  0.00    -0.396 A  
HETATM   26  C   UNL     1     -12.494  11.180  70.869  1.00  0.00    -0.409 A  
HETATM   27  C   UNL     1     -11.656  12.996  69.598  1.00  0.00    -0.253 C  
HETATM   28  C   UNL     1     -13.368  10.812  71.898  1.00  0.00    -0.445 A  
HETATM   29  O   UNL     1     -12.533  12.524  70.551  1.00  0.00    -0.277 OA 
HETATM   30  C   UNL     1     -13.415   9.495  72.326  1.00  0.00    -0.521 A  
HETATM   31  C   UNL     1     -11.642  14.449  69.286  1.00  0.00    -0.304 C  
HETATM   32  O   UNL     1     -12.506  15.145  70.056  1.00  0.00    -0.322 OA 
HETATM   33  C   UNL     1     -12.548   8.564  71.762  1.00  0.00    -0.387 A  
HETATM   34  O   UNL     1     -10.431  10.102  68.150  1.00  0.00    -0.181 OA 
HETATM   35  O   UNL     1     -10.945  14.968  68.429  1.00  0.00    -0.246 OA 
ENDBRANCH  21  22
ENDBRANCH  20  21
ENDBRANCH   2  20
TORSDOF 6
ENDMDL
MODEL      242
REMARK 921   NORMALIZED FREE ENERGY PREDICTED BY IDOCK:   -4.98 KCAL/MOL
REMARK 922        TOTAL FREE ENERGY PREDICTED BY IDOCK:   -8.02 KCAL/MOL
REMARK 923 INTER-LIGAND FREE ENERGY PREDICTED BY IDOCK:   -7.31 KCAL/MOL
REMARK 924 INTRA-LIGAND FREE ENERGY PREDICTED BY IDOCK:   -0.71 KCAL/MOL
REMARK 927      BINDING AFFINITY PREDICTED BY RF-SCORE:    0.00 PKD
ROOT
HETATM    1  O   UNL     1      -9.236  10.233  68.832  1.00  0.00    -0.156 OA 
HETATM    2  C   UNL     1      -8.908   9.884  67.473  1.00  0.00    -0.128 C  
HETATM    3  H   UNL     1      -8.534  10.776  69.170  1.00  0.00     0.000 HD 
ENDROOT
BRANCH   2   4
HETATM    4  C   UNL     1      -8.733  11.171  66.666  1.00  0.00    -0.166 C  
BRANCH   4   5
HETATM    5  O   UNL     1      -8.842  12.299  67.544  1.00  0.00    -0.166 OA 
BRANCH   5   6
HETATM    6  C   UNL     1      -9.828  13.215  67.299  1.00  0.00    -0.232 A  
HETATM    7  O   UNL     1      -7.565  19.302  67.034  1.00  0.00    -0.230 OA 
HETATM    8  O   UNL     1      -9.815  19.489  66.904  1.00  0.00    -0.326 OA 
HETATM    9  C   UNL     1     -11.165  12.857  67.069  1.00  0.00    -0.329 A  
HETATM   10  C   UNL     1     -12.148  13.827  66.873  1.00  0.00    -0.454 A  
HETATM   11  C   UNL     1      -8.668  18.785  67.037  1.00  0.00    -0.283 C  
HETATM   12  C   UNL     1     -11.809  15.173  66.905  1.00  0.00    -0.006 A  
HETATM   13  O   UNL     1     -10.237  16.900  67.095  1.00  0.00    -0.285 OA 
HETATM   14  C   UNL     1      -8.927  17.326  67.172  1.00  0.00    -0.226 C  
HETATM   15  C   UNL     1     -10.481  15.547  67.112  1.00  0.00    -0.286 A  
HETATM   16  C   UNL     1      -7.876  16.518  67.353  1.00  0.00    -0.181 C  
HETATM   17  C   UNL     1      -9.484  14.582  67.311  1.00  0.00    -0.218 A  
HETATM   18  O   UNL     1      -7.122  14.351  67.693  1.00  0.00    -0.160 OA 
HETATM   19  C   UNL     1      -8.089  15.066  67.483  1.00  0.00    -0.181 C  
ENDBRANCH   5   6
ENDBRANCH   4   5
ENDBRANCH   2   4
BRANCH   2  20
HETATM   20  C   UNL     1     -10.041   9.008  66.929  1.00  0.00    -0.267 C  
BRANCH  20  21
HETATM   21  O   UNL     1     -10.771   8.315  67.920  1.00  0.00    -0.178 OA 
BRANCH  21  22
HETATM   22  C   UNL     1     -10.527   6.976  68.127  1.00  0.00    -0.201 A  
HETATM   23  C   UNL     1     -10.666   5.686  71.782  1.00  0.00    -0.305 C  
HETATM   24  C   UNL     1     -11.019   6.551  70.654  1.00  0.00    -0.287 C  
HETATM   25  C   UNL     1     -10.521   6.178  69.296  1.00  0.00    -0.314 A  
HETATM   26  C   UNL     1     -10.040   4.851  69.200  1.00  0.00    -0.159 A  
HETATM   27  C   UNL     1     -10.162   4.478  71.537  1.00  0.00    -0.125 C  
HETATM   28  C   UNL     1      -9.670   4.292  67.972  1.00  0.00    -0.168 A  
HETATM   29  O   UNL     1      -9.891   3.995  70.275  1.00  0.00    -0.201 OA 
HETATM   30  C   UNL     1      -9.754   5.050  66.816  1.00  0.00    -0.188 A  
HETATM   31  C   UNL     1      -9.952   3.590  72.711  1.00  0.00    -0.154 C  
HETATM   32  O   UNL     1      -9.453   2.386  72.357  1.00  0.00    -0.085 OA 
HETATM   33  C   UNL     1     -10.154   6.382  66.901  1.00  0.00    -0.244 A  
HETATM   34  O   UNL     1     -11.783   7.469  70.908  1.00  0.00    -0.289 OA 
HETATM   35  O   UNL     1     -10.205   3.894  73.865  1.00  0.00    -0.129 OA 
ENDBRANCH  21  22
ENDBRANCH  20  21
ENDBRANCH   2  20
TORSDOF 6
ENDMDL
MODEL      243
REMARK 921   NORMALIZED FREE ENERGY PREDICTED BY IDOCK:   -4.95 KCAL/MOL
REMARK 922        TOTAL FREE ENERGY PREDICTED BY IDOCK:   -7.98 KCAL/MOL
REMARK 923 INTER-LIGAND FREE ENERGY PREDICTED BY IDOCK:   -7.29 KCAL/MOL
REMARK 924 INTRA-LIGAND FREE ENERGY PREDICTED BY IDOCK:   -0.69 KCAL/MOL
REMARK 927      BINDING AFFINITY PREDICTED BY RF-SCORE:    0.00 PKD
ROOT
HETATM    1  O   UNL     1      -7.098  10.807  67.305  1.00  0.00    -0.085 OA 
HETATM    2  C   UNL     1      -7.484  11.243  68.623  1.00  0.00    -0.118 C  
HETATM    3  H   UNL     1      -7.671  11.234  66.679  1.00  0.00     0.000 HD 
ENDROOT
BRANCH   2   4
HETATM    4  C   UNL     1      -7.376  12.766  68.686  1.00  0.00    -0.099 C  
BRANCH   4   5
HETATM    5  O   UNL     1      -8.224  13.342  67.684  1.00  0.00    -0.151 OA 
BRANCH   5   6
HETATM    6  C   UNL     1      -9.292  14.091  68.095  1.00  0.00    -0.201 A  
HETATM    7  O   UNL     1      -8.400  20.456  67.129  1.00  0.00    -0.333 OA 
HETATM    8  O   UNL     1     -10.345  20.286  68.269  1.00  0.00    -0.365 OA 
HETATM    9  C   UNL     1     -10.470  13.526  68.608  1.00  0.00    -0.242 A  
HETATM   10  C   UNL     1     -11.516  14.328  69.063  1.00  0.00    -0.318 A  
HETATM   11  C   UNL     1      -9.234  19.772  67.694  1.00  0.00    -0.338 C  
HETATM   12  C   UNL     1     -11.401  15.710  69.013  1.00  0.00    -0.332 A  
HETATM   13  O   UNL     1     -10.237  17.664  68.449  1.00  0.00    -0.337 OA 
HETATM   14  C   UNL     1      -9.177  18.292  67.830  1.00  0.00    -0.270 C  
HETATM   15  C   UNL     1     -10.246  16.290  68.488  1.00  0.00    -0.247 A  
HETATM   16  C   UNL     1      -8.104  17.660  67.338  1.00  0.00    -0.217 C  
HETATM   17  C   UNL     1      -9.188  15.495  68.028  1.00  0.00    -0.187 A  
HETATM   18  O   UNL     1      -7.005  15.641  67.032  1.00  0.00    -0.214 OA 
HETATM   19  C   UNL     1      -8.012  16.194  67.445  1.00  0.00    -0.160 C  
ENDBRANCH   5   6
ENDBRANCH   4   5
ENDBRANCH   2   4
BRANCH   2  20
HETATM   20  C   UNL     1      -6.559  10.554  69.633  1.00  0.00    -0.098 C  
BRANCH  20  21
HETATM   21  O   UNL     1      -7.140  10.333  70.902  1.00  0.00    -0.278 OA 
BRANCH  21  22
HETATM   22  C   UNL     1      -7.706   9.110  71.181  1.00  0.00    -0.078 A  
HETATM   23  C   UNL     1     -11.576   8.870  71.060  1.00  0.00    -0.347 C  
HETATM   24  C   UNL     1     -10.255   9.382  70.688  1.00  0.00    -0.288 C  
HETATM   25  C   UNL     1      -9.050   8.664  71.204  1.00  0.00    -0.263 A  
HETATM   26  C   UNL     1      -9.321   7.376  71.722  1.00  0.00    -0.145 A  
HETATM   27  C   UNL     1     -11.671   7.656  71.597  1.00  0.00    -0.281 C  
HETATM   28  C   UNL     1      -8.293   6.511  72.113  1.00  0.00    -0.107 A  
HETATM   29  O   UNL     1     -10.589   6.853  71.888  1.00  0.00    -0.210 OA 
HETATM   30  C   UNL     1      -6.973   6.920  72.014  1.00  0.00    -0.069 A  
HETATM   31  C   UNL     1     -13.043   7.131  71.827  1.00  0.00    -0.314 C  
HETATM   32  O   UNL     1     -13.032   5.891  72.360  1.00  0.00     0.110 OA 
HETATM   33  C   UNL     1      -6.690   8.212  71.577  1.00  0.00    -0.058 A  
HETATM   34  O   UNL     1     -10.248  10.313  69.898  1.00  0.00    -0.246 OA 
HETATM   35  O   UNL     1     -14.070   7.734  71.560  1.00  0.00    -0.401 OA 
ENDBRANCH  21  22
ENDBRANCH  20  21
ENDBRANCH   2  20
TORSDOF 6
ENDMDL
MODEL      244
REMARK 921   NORMALIZED FREE ENERGY PREDICTED BY IDOCK:   -4.92 KCAL/MOL
REMARK 922        TOTAL FREE ENERGY PREDICTED BY IDOCK:   -7.94 KCAL/MOL
REMARK 923 INTER-LIGAND FREE ENERGY PREDICTED BY IDOCK:   -7.13 KCAL/MOL
REMARK 924 INTRA-LIGAND FREE ENERGY PREDICTED BY IDOCK:   -0.81 KCAL/MOL
REMARK 927      BINDING AFFINITY PREDICTED BY RF-SCORE:    0.00 PKD
ROOT
HETATM    1  O   UNL     1     -10.663  11.273  65.720  1.00  0.00    -0.263 OA 
HETATM    2  C   UNL     1     -10.662  11.307  67.161  1.00  0.00    -0.253 C  
HETATM    3  H   UNL     1     -10.471  12.150  65.409  1.00  0.00     0.000 HD 
ENDROOT
BRANCH   2   4
HETATM    4  C   UNL     1      -9.298  11.805  67.637  1.00  0.00    -0.180 C  
BRANCH   4   5
HETATM    5  O   UNL     1      -8.935  12.976  66.896  1.00  0.00    -0.220 OA 
BRANCH   5   6
HETATM    6  C   UNL     1      -8.530  14.082  67.591  1.00  0.00    -0.191 A  
HETATM    7  O   UNL     1     -11.161  19.569  65.307  1.00  0.00    -0.406 OA 
HETATM    8  O   UNL     1      -9.677  20.222  66.883  1.00  0.00    -0.407 OA 
HETATM    9  C   UNL     1      -7.689  14.015  68.712  1.00  0.00    -0.112 A  
HETATM   10  C   UNL     1      -7.259  15.172  69.362  1.00  0.00    -0.198 A  
HETATM   11  C   UNL     1     -10.303  19.292  66.126  1.00  0.00    -0.494 C  
HETATM   12  C   UNL     1      -7.664  16.417  68.900  1.00  0.00    -0.230 A  
HETATM   13  O   UNL     1      -8.889  17.774  67.435  1.00  0.00    -0.236 OA 
HETATM   14  C   UNL     1      -9.825  17.918  66.432  1.00  0.00    -0.337 C  
HETATM   15  C   UNL     1      -8.516  16.503  67.799  1.00  0.00    -0.175 A  
HETATM   16  C   UNL     1     -10.336  16.905  65.722  1.00  0.00    -0.298 C  
HETATM   17  C   UNL     1      -8.954  15.347  67.137  1.00  0.00    -0.236 A  
HETATM   18  O   UNL     1     -10.338  14.623  65.310  1.00  0.00    -0.349 OA 
HETATM   19  C   UNL     1      -9.894  15.528  65.999  1.00  0.00    -0.335 C  
ENDBRANCH   5   6
ENDBRANCH   4   5
ENDBRANCH   2   4
BRANCH   2  20
HETATM   20  C   UNL     1     -10.971   9.892  67.661  1.00  0.00    -0.200 C  
BRANCH  20  21
HETATM   21  O   UNL     1     -10.339   8.862  66.928  1.00  0.00    -0.262 OA 
BRANCH  21  22
HETATM   22  C   UNL     1      -9.363   8.103  67.533  1.00  0.00    -0.140 A  
HETATM   23  C   UNL     1     -10.333   6.221  70.783  1.00  0.00    -0.256 C  
HETATM   24  C   UNL     1     -10.561   6.827  69.470  1.00  0.00    -0.232 C  
HETATM   25  C   UNL     1      -9.373   7.284  68.688  1.00  0.00    -0.138 A  
HETATM   26  C   UNL     1      -8.139   6.777  69.162  1.00  0.00    -0.120 A  
HETATM   27  C   UNL     1      -9.100   5.847  71.118  1.00  0.00    -0.143 C  
HETATM   28  C   UNL     1      -6.944   6.987  68.464  1.00  0.00    -0.075 A  
HETATM   29  O   UNL     1      -7.991   6.045  70.324  1.00  0.00    -0.102 OA 
HETATM   30  C   UNL     1      -6.951   7.722  67.290  1.00  0.00    -0.078 A  
HETATM   31  C   UNL     1      -8.948   5.113  72.401  1.00  0.00    -0.131 C  
HETATM   32  O   UNL     1      -7.666   4.766  72.642  1.00  0.00    -0.088 OA 
HETATM   33  C   UNL     1      -8.143   8.291  66.848  1.00  0.00    -0.103 A  
HETATM   34  O   UNL     1     -11.717   6.824  69.076  1.00  0.00    -0.001 OA 
HETATM   35  O   UNL     1      -9.867   4.838  73.156  1.00  0.00    -0.142 OA 
ENDBRANCH  21  22
ENDBRANCH  20  21
ENDBRANCH   2  20
TORSDOF 6
ENDMDL
MODEL      245
REMARK 921   NORMALIZED FREE ENERGY PREDICTED BY IDOCK:   -4.89 KCAL/MOL
REMARK 922        TOTAL FREE ENERGY PREDICTED BY IDOCK:   -7.90 KCAL/MOL
REMARK 923 INTER-LIGAND FREE ENERGY PREDICTED BY IDOCK:   -7.61 KCAL/MOL
REMARK 924 INTRA-LIGAND FREE ENERGY PREDICTED BY IDOCK:   -0.29 KCAL/MOL
REMARK 927      BINDING AFFINITY PREDICTED BY RF-SCORE:    0.00 PKD
ROOT
HETATM    1  O   UNL     1      -8.054   8.670  72.860  1.00  0.00    -0.388 OA 
HETATM    2  C   UNL     1      -9.279   8.035  72.444  1.00  0.00    -0.202 C  
HETATM    3  H   UNL     1      -7.662   9.073  72.095  1.00  0.00     0.000 HD 
ENDROOT
BRANCH   2   4
HETATM    4  C   UNL     1     -10.189   9.092  71.817  1.00  0.00    -0.319 C  
BRANCH   4   5
HETATM    5  O   UNL     1     -11.013   8.475  70.820  1.00  0.00    -0.235 OA 
BRANCH   5   6
HETATM    6  C   UNL     1     -10.662   8.626  69.506  1.00  0.00    -0.182 A  
HETATM    7  O   UNL     1     -12.188  14.496  67.172  1.00  0.00    -0.355 OA 
HETATM    8  O   UNL     1     -11.441  13.316  65.394  1.00  0.00    -0.298 OA 
HETATM    9  C   UNL     1      -9.990   7.634  68.776  1.00  0.00    -0.178 A  
HETATM   10  C   UNL     1      -9.696   7.809  67.424  1.00  0.00    -0.211 A  
HETATM   11  C   UNL     1     -11.774  13.454  66.698  1.00  0.00    -0.385 C  
HETATM   12  C   UNL     1     -10.070   8.979  66.779  1.00  0.00    -0.344 A  
HETATM   13  O   UNL     1     -11.024  11.119  66.779  1.00  0.00    -0.275 OA 
HETATM   14  C   UNL     1     -11.558  12.195  67.459  1.00  0.00    -0.343 C  
HETATM   15  C   UNL     1     -10.722   9.985  67.494  1.00  0.00    -0.281 A  
HETATM   16  C   UNL     1     -11.888  12.184  68.756  1.00  0.00    -0.356 C  
HETATM   17  C   UNL     1     -11.024   9.821  68.853  1.00  0.00    -0.183 A  
HETATM   18  O   UNL     1     -12.031  10.955  70.718  1.00  0.00    -0.325 OA 
HETATM   19  C   UNL     1     -11.682  10.959  69.548  1.00  0.00    -0.328 C  
ENDBRANCH   5   6
ENDBRANCH   4   5
ENDBRANCH   2   4
BRANCH   2  20
HETATM   20  C   UNL     1      -9.912   7.385  73.679  1.00  0.00    -0.328 C  
BRANCH  20  21
HETATM   21  O   UNL     1      -9.272   6.200  74.108  1.00  0.00    -0.128 OA 
BRANCH  21  22
HETATM   22  C   UNL     1      -9.568   5.009  73.484  1.00  0.00    -0.133 A  
HETATM   23  C   UNL     1      -8.139   4.467  69.919  1.00  0.00    -0.064 C  
HETATM   24  C   UNL     1      -8.164   4.999  71.283  1.00  0.00    -0.116 C  
HETATM   25  C   UNL     1      -9.201   4.477  72.224  1.00  0.00    -0.157 A  
HETATM   26  C   UNL     1      -9.831   3.287  71.789  1.00  0.00    -0.159 A  
HETATM   27  C   UNL     1      -8.834   3.366  69.641  1.00  0.00    -0.090 C  
HETATM   28  C   UNL     1     -10.720   2.586  72.611  1.00  0.00    -0.096 A  
HETATM   29  O   UNL     1      -9.638   2.710  70.549  1.00  0.00    -0.144 OA 
HETATM   30  C   UNL     1     -11.015   3.067  73.877  1.00  0.00    -0.281 A  
HETATM   31  C   UNL     1      -8.662   2.791  68.281  1.00  0.00    -0.101 C  
HETATM   32  O   UNL     1      -9.396   1.671  68.104  1.00  0.00    -0.162 OA 
HETATM   33  C   UNL     1     -10.463   4.276  74.292  1.00  0.00    -0.307 A  
HETATM   34  O   UNL     1      -7.262   5.770  71.570  1.00  0.00    -0.077 OA 
HETATM   35  O   UNL     1      -7.938   3.258  67.417  1.00  0.00    -0.077 OA 
ENDBRANCH  21  22
ENDBRANCH  20  21
ENDBRANCH   2  20
TORSDOF 6
ENDMDL
MODEL      246
REMARK 921   NORMALIZED FREE ENERGY PREDICTED BY IDOCK:   -4.85 KCAL/MOL
REMARK 922        TOTAL FREE ENERGY PREDICTED BY IDOCK:   -7.84 KCAL/MOL
REMARK 923 INTER-LIGAND FREE ENERGY PREDICTED BY IDOCK:   -6.83 KCAL/MOL
REMARK 924 INTRA-LIGAND FREE ENERGY PREDICTED BY IDOCK:   -1.01 KCAL/MOL
REMARK 927      BINDING AFFINITY PREDICTED BY RF-SCORE:    0.00 PKD
ROOT
HETATM    1  O   UNL     1      -9.881  12.253  66.376  1.00  0.00    -0.219 OA 
HETATM    2  C   UNL     1      -8.832  11.493  67.007  1.00  0.00    -0.173 C  
HETATM    3  H   UNL     1     -10.287  11.698  65.720  1.00  0.00     0.000 HD 
ENDROOT
BRANCH   2   4
HETATM    4  C   UNL     1      -9.441  10.230  67.615  1.00  0.00    -0.151 C  
BRANCH   4   5
HETATM    5  O   UNL     1      -8.817   9.964  68.878  1.00  0.00    -0.131 OA 
BRANCH   5   6
HETATM    6  C   UNL     1      -9.613   9.596  69.927  1.00  0.00    -0.230 A  
HETATM    7  O   UNL     1      -7.176   4.586  73.274  1.00  0.00    -0.075 OA 
HETATM    8  O   UNL     1      -9.221   4.966  74.161  1.00  0.00    -0.114 OA 
HETATM    9  C   UNL     1     -10.793  10.277  70.268  1.00  0.00    -0.349 A  
HETATM   10  C   UNL     1     -11.602   9.837  71.315  1.00  0.00    -0.465 A  
HETATM   11  C   UNL     1      -8.226   5.204  73.277  1.00  0.00    -0.111 C  
HETATM   12  C   UNL     1     -11.246   8.708  72.039  1.00  0.00    -0.434 A  
HETATM   13  O   UNL     1      -9.781   6.943  72.519  1.00  0.00    -0.153 OA 
HETATM   14  C   UNL     1      -8.571   6.306  72.339  1.00  0.00    -0.121 C  
HETATM   15  C   UNL     1     -10.068   8.029  71.727  1.00  0.00    -0.191 A  
HETATM   16  C   UNL     1      -7.686   6.615  71.384  1.00  0.00    -0.094 C  
HETATM   17  C   UNL     1      -9.246   8.461  70.677  1.00  0.00    -0.177 A  
HETATM   18  O   UNL     1      -7.187   7.942  69.548  1.00  0.00    -0.076 OA 
HETATM   19  C   UNL     1      -7.987   7.705  70.440  1.00  0.00    -0.097 C  
ENDBRANCH   5   6
ENDBRANCH   4   5
ENDBRANCH   2   4
BRANCH   2  20
HETATM   20  C   UNL     1      -8.177  12.388  68.065  1.00  0.00    -0.168 C  
BRANCH  20  21
HETATM   21  O   UNL     1      -7.165  13.239  67.565  1.00  0.00    -0.151 OA 
BRANCH  21  22
HETATM   22  C   UNL     1      -7.042  14.512  68.072  1.00  0.00    -0.140 A  
HETATM   23  C   UNL     1      -8.970  17.345  66.255  1.00  0.00    -0.239 C  
HETATM   24  C   UNL     1      -8.724  15.978  66.717  1.00  0.00    -0.253 C  
HETATM   25  C   UNL     1      -7.610  15.751  67.687  1.00  0.00    -0.177 A  
HETATM   26  C   UNL     1      -7.131  16.930  68.304  1.00  0.00    -0.179 A  
HETATM   27  C   UNL     1      -8.398  18.359  66.901  1.00  0.00    -0.253 C  
HETATM   28  C   UNL     1      -6.192  16.886  69.341  1.00  0.00    -0.226 A  
HETATM   29  O   UNL     1      -7.529  18.208  67.960  1.00  0.00    -0.228 OA 
HETATM   30  C   UNL     1      -5.697  15.665  69.771  1.00  0.00    -0.132 A  
HETATM   31  C   UNL     1      -8.791  19.730  66.479  1.00  0.00    -0.365 C  
HETATM   32  O   UNL     1      -8.169  20.684  67.203  1.00  0.00    -0.319 OA 
HETATM   33  C   UNL     1      -6.100  14.499  69.124  1.00  0.00    -0.096 A  
HETATM   34  O   UNL     1      -9.523  15.136  66.336  1.00  0.00    -0.257 OA 
HETATM   35  O   UNL     1      -9.589  19.979  65.591  1.00  0.00    -0.289 OA 
ENDBRANCH  21  22
ENDBRANCH  20  21
ENDBRANCH   2  20
TORSDOF 6
ENDMDL
MODEL      247
REMARK 921   NORMALIZED FREE ENERGY PREDICTED BY IDOCK:   -4.82 KCAL/MOL
REMARK 922        TOTAL FREE ENERGY PREDICTED BY IDOCK:   -7.81 KCAL/MOL
REMARK 923 INTER-LIGAND FREE ENERGY PREDICTED BY IDOCK:   -6.82 KCAL/MOL
REMARK 924 INTRA-LIGAND FREE ENERGY PREDICTED BY IDOCK:   -0.99 KCAL/MOL
REMARK 927      BINDING AFFINITY PREDICTED BY RF-SCORE:    0.00 PKD
ROOT
HETATM    1  O   UNL     1      -6.960  11.588  66.262  1.00  0.00    -0.355 OA 
HETATM    2  C   UNL     1      -7.426  10.299  65.818  1.00  0.00    -0.144 C  
HETATM    3  H   UNL     1      -7.455  12.252  65.797  1.00  0.00     0.000 HD 
ENDROOT
BRANCH   2   4
HETATM    4  C   UNL     1      -8.926  10.200  66.093  1.00  0.00    -0.150 C  
BRANCH   4   5
HETATM    5  O   UNL     1      -9.413  11.475  66.531  1.00  0.00    -0.193 OA 
BRANCH   5   6
HETATM    6  C   UNL     1     -10.185  12.204  65.669  1.00  0.00    -0.256 A  
HETATM    7  O   UNL     1      -9.567  18.611  66.565  1.00  0.00    -0.315 OA 
HETATM    8  O   UNL     1     -11.212  18.372  65.032  1.00  0.00    -0.408 OA 
HETATM    9  C   UNL     1     -10.972  11.617  64.665  1.00  0.00    -0.363 A  
HETATM   10  C   UNL     1     -11.785  12.394  63.840  1.00  0.00    -0.529 A  
HETATM   11  C   UNL     1     -10.291  17.893  65.899  1.00  0.00    -0.259 C  
HETATM   12  C   UNL     1     -11.825  13.771  64.005  1.00  0.00    -0.410 A  
HETATM   13  O   UNL     1     -11.118  15.744  65.053  1.00  0.00    -0.393 OA 
HETATM   14  C   UNL     1     -10.272  16.406  65.917  1.00  0.00    -0.359 C  
HETATM   15  C   UNL     1     -11.036  14.374  64.985  1.00  0.00    -0.380 A  
HETATM   16  C   UNL     1      -9.431  15.802  66.766  1.00  0.00    -0.259 C  
HETATM   17  C   UNL     1     -10.215  13.604  65.821  1.00  0.00    -0.317 A  
HETATM   18  O   UNL     1      -8.635  13.799  67.622  1.00  0.00    -0.163 OA 
HETATM   19  C   UNL     1      -9.375  14.331  66.810  1.00  0.00    -0.276 C  
ENDBRANCH   5   6
ENDBRANCH   4   5
ENDBRANCH   2   4
BRANCH   2  20
HETATM   20  C   UNL     1      -6.627   9.229  66.570  1.00  0.00    -0.067 C  
BRANCH  20  21
HETATM   21  O   UNL     1      -7.407   8.394  67.401  1.00  0.00    -0.086 OA 
BRANCH  21  22
HETATM   22  C   UNL     1      -7.060   8.244  68.725  1.00  0.00    -0.071 A  
HETATM   23  C   UNL     1      -8.301   5.047  70.538  1.00  0.00    -0.101 C  
HETATM   24  C   UNL     1      -7.858   5.851  69.397  1.00  0.00    -0.094 C  
HETATM   25  C   UNL     1      -7.312   7.216  69.665  1.00  0.00    -0.085 A  
HETATM   26  C   UNL     1      -6.976   7.449  71.020  1.00  0.00    -0.059 A  
HETATM   27  C   UNL     1      -7.957   5.425  71.767  1.00  0.00    -0.113 C  
HETATM   28  C   UNL     1      -6.321   8.618  71.422  1.00  0.00    -0.060 A  
HETATM   29  O   UNL     1      -7.250   6.573  72.053  1.00  0.00    -0.083 OA 
HETATM   30  C   UNL     1      -6.003   9.588  70.485  1.00  0.00    -0.060 A  
HETATM   31  C   UNL     1      -8.313   4.501  72.876  1.00  0.00    -0.103 C  
HETATM   32  O   UNL     1      -7.911   4.967  74.078  1.00  0.00    -0.099 OA 
HETATM   33  C   UNL     1      -6.392   9.409  69.160  1.00  0.00    -0.042 A  
HETATM   34  O   UNL     1      -7.886   5.294  68.310  1.00  0.00    -0.086 OA 
HETATM   35  O   UNL     1      -8.892   3.436  72.733  1.00  0.00    -0.084 OA 
ENDBRANCH  21  22
ENDBRANCH  20  21
ENDBRANCH   2  20
TORSDOF 6
ENDMDL
MODEL      248
REMARK 921   NORMALIZED FREE ENERGY PREDICTED BY IDOCK:   -4.81 KCAL/MOL
REMARK 922        TOTAL FREE ENERGY PREDICTED BY IDOCK:   -7.79 KCAL/MOL
REMARK 923 INTER-LIGAND FREE ENERGY PREDICTED BY IDOCK:   -6.22 KCAL/MOL
REMARK 924 INTRA-LIGAND FREE ENERGY PREDICTED BY IDOCK:   -1.57 KCAL/MOL
REMARK 927      BINDING AFFINITY PREDICTED BY RF-SCORE:    0.00 PKD
ROOT
HETATM    1  O   UNL     1      -6.680   9.555  67.750  1.00  0.00    -0.066 OA 
HETATM    2  C   UNL     1      -7.422   9.923  66.571  1.00  0.00    -0.100 C  
HETATM    3  H   UNL     1      -5.934  10.139  67.817  1.00  0.00     0.000 HD 
ENDROOT
BRANCH   2   4
HETATM    4  C   UNL     1      -7.841  11.388  66.693  1.00  0.00    -0.137 C  
BRANCH   4   5
HETATM    5  O   UNL     1      -8.223  11.659  68.048  1.00  0.00    -0.131 OA 
BRANCH   5   6
HETATM    6  C   UNL     1      -9.544  11.896  68.312  1.00  0.00    -0.201 A  
HETATM    7  O   UNL     1     -11.879   8.058  73.009  1.00  0.00    -0.264 OA 
HETATM    8  O   UNL     1     -13.666   9.194  72.214  1.00  0.00    -0.443 OA 
HETATM    9  C   UNL     1     -10.283  12.904  67.673  1.00  0.00    -0.220 A  
HETATM   10  C   UNL     1     -11.642  13.079  67.935  1.00  0.00    -0.385 A  
HETATM   11  C   UNL     1     -12.356   8.856  72.221  1.00  0.00    -0.360 C  
HETATM   12  C   UNL     1     -12.285  12.246  68.840  1.00  0.00    -0.009 A  
HETATM   13  O   UNL     1     -12.277  10.499  70.401  1.00  0.00    -0.290 OA 
HETATM   14  C   UNL     1     -11.592   9.582  71.172  1.00  0.00    -0.367 C  
HETATM   15  C   UNL     1     -11.563  11.251  69.500  1.00  0.00    -0.328 A  
HETATM   16  C   UNL     1     -10.289   9.307  71.044  1.00  0.00    -0.388 C  
HETATM   17  C   UNL     1     -10.197  11.066  69.245  1.00  0.00    -0.153 A  
HETATM   18  O   UNL     1      -8.318   9.712  69.890  1.00  0.00    -0.147 OA 
HETATM   19  C   UNL     1      -9.495  10.010  70.022  1.00  0.00    -0.136 C  
ENDBRANCH   5   6
ENDBRANCH   4   5
ENDBRANCH   2   4
BRANCH   2  20
HETATM   20  C   UNL     1      -8.627   8.982  66.464  1.00  0.00    -0.120 C  
BRANCH  20  21
HETATM   21  O   UNL     1      -8.312   7.677  66.024  1.00  0.00    -0.120 OA 
BRANCH  21  22
HETATM   22  C   UNL     1      -8.083   6.687  66.953  1.00  0.00    -0.113 A  
HETATM   23  C   UNL     1     -10.722   6.240  69.760  1.00  0.00    -0.358 C  
HETATM   24  C   UNL     1     -10.238   6.589  68.423  1.00  0.00    -0.172 C  
HETATM   25  C   UNL     1      -8.829   6.238  68.070  1.00  0.00    -0.112 A  
HETATM   26  C   UNL     1      -8.225   5.311  68.951  1.00  0.00    -0.089 A  
HETATM   27  C   UNL     1     -10.012   5.396  70.505  1.00  0.00    -0.221 C  
HETATM   28  C   UNL     1      -6.963   4.765  68.689  1.00  0.00    -0.052 A  
HETATM   29  O   UNL     1      -8.800   4.862  70.124  1.00  0.00    -0.098 OA 
HETATM   30  C   UNL     1      -6.270   5.146  67.552  1.00  0.00    -0.038 A  
HETATM   31  C   UNL     1     -10.617   4.968  71.794  1.00  0.00    -0.134 C  
HETATM   32  O   UNL     1      -9.827   4.104  72.467  1.00  0.00    -0.142 OA 
HETATM   33  C   UNL     1      -6.816   6.113  66.712  1.00  0.00    -0.062 A  
HETATM   34  O   UNL     1     -11.068   7.063  67.663  1.00  0.00    -0.206 OA 
HETATM   35  O   UNL     1     -11.705   5.337  72.206  1.00  0.00    -0.056 OA 
ENDBRANCH  21  22
ENDBRANCH  20  21
ENDBRANCH   2  20
TORSDOF 6
ENDMDL
MODEL      249
REMARK 921   NORMALIZED FREE ENERGY PREDICTED BY IDOCK:   -4.81 KCAL/MOL
REMARK 922        TOTAL FREE ENERGY PREDICTED BY IDOCK:   -7.79 KCAL/MOL
REMARK 923 INTER-LIGAND FREE ENERGY PREDICTED BY IDOCK:   -6.78 KCAL/MOL
REMARK 924 INTRA-LIGAND FREE ENERGY PREDICTED BY IDOCK:   -1.01 KCAL/MOL
REMARK 927      BINDING AFFINITY PREDICTED BY RF-SCORE:    0.00 PKD
ROOT
HETATM    1  O   UNL     1      -8.329  10.278  66.568  1.00  0.00    -0.123 OA 
HETATM    2  C   UNL     1      -9.761  10.117  66.608  1.00  0.00    -0.192 C  
HETATM    3  H   UNL     1      -8.052  10.183  65.664  1.00  0.00     0.000 HD 
ENDROOT
BRANCH   2   4
HETATM    4  C   UNL     1     -10.397  11.164  65.693  1.00  0.00    -0.254 C  
BRANCH   4   5
HETATM    5  O   UNL     1     -10.650  12.358  66.445  1.00  0.00    -0.238 OA 
BRANCH   5   6
HETATM    6  C   UNL     1     -10.917  13.510  65.758  1.00  0.00    -0.278 A  
HETATM    7  O   UNL     1      -8.337  18.760  68.589  1.00  0.00    -0.332 OA 
HETATM    8  O   UNL     1      -9.587  19.551  66.879  1.00  0.00    -0.314 OA 
HETATM    9  C   UNL     1     -11.619  13.531  64.543  1.00  0.00    -0.410 A  
HETATM   10  C   UNL     1     -11.914  14.733  63.901  1.00  0.00     0.016 A  
HETATM   11  C   UNL     1      -9.100  18.561  67.662  1.00  0.00    -0.281 C  
HETATM   12  C   UNL     1     -11.512  15.936  64.464  1.00  0.00    -0.287 A  
HETATM   13  O   UNL     1     -10.413  17.170  66.125  1.00  0.00    -0.332 OA 
HETATM   14  C   UNL     1      -9.600  17.225  67.238  1.00  0.00    -0.254 C  
HETATM   15  C   UNL     1     -10.797  15.934  65.662  1.00  0.00    -0.284 A  
HETATM   16  C   UNL     1      -9.225  16.161  67.957  1.00  0.00    -0.195 C  
HETATM   17  C   UNL     1     -10.494  14.732  66.317  1.00  0.00    -0.300 A  
HETATM   18  O   UNL     1      -9.376  13.866  68.261  1.00  0.00    -0.201 OA 
HETATM   19  C   UNL     1      -9.692  14.819  67.566  1.00  0.00    -0.213 C  
ENDBRANCH   5   6
ENDBRANCH   4   5
ENDBRANCH   2   4
BRANCH   2  20
HETATM   20  C   UNL     1     -10.207  10.272  68.066  1.00  0.00    -0.169 C  
BRANCH  20  21
HETATM   21  O   UNL     1     -10.694   9.084  68.657  1.00  0.00    -0.188 OA 
BRANCH  21  22
HETATM   22  C   UNL     1     -10.147   8.646  69.841  1.00  0.00    -0.194 A  
HETATM   23  C   UNL     1      -7.223   6.108  69.619  1.00  0.00    -0.074 C  
HETATM   24  C   UNL     1      -8.068   7.218  69.173  1.00  0.00    -0.121 C  
HETATM   25  C   UNL     1      -9.079   7.763  70.128  1.00  0.00    -0.153 A  
HETATM   26  C   UNL     1      -8.880   7.364  71.471  1.00  0.00    -0.124 A  
HETATM   27  C   UNL     1      -7.182   5.807  70.915  1.00  0.00    -0.080 C  
HETATM   28  C   UNL     1      -9.646   7.895  72.515  1.00  0.00    -0.278 A  
HETATM   29  O   UNL     1      -7.938   6.439  71.879  1.00  0.00    -0.103 OA 
HETATM   30  C   UNL     1     -10.639   8.822  72.240  1.00  0.00    -0.319 A  
HETATM   31  C   UNL     1      -6.205   4.766  71.331  1.00  0.00    -0.018 C  
HETATM   32  O   UNL     1      -6.232   4.543  72.662  1.00  0.00    -0.016 OA 
HETATM   33  C   UNL     1     -10.899   9.169  70.916  1.00  0.00    -0.345 A  
HETATM   34  O   UNL     1      -7.807   7.675  68.070  1.00  0.00    -0.116 OA 
HETATM   35  O   UNL     1      -5.452   4.179  70.571  1.00  0.00    -0.010 OA 
ENDBRANCH  21  22
ENDBRANCH  20  21
ENDBRANCH   2  20
TORSDOF 6
ENDMDL
MODEL      250
REMARK 921   NORMALIZED FREE ENERGY PREDICTED BY IDOCK:   -4.78 KCAL/MOL
REMARK 922        TOTAL FREE ENERGY PREDICTED BY IDOCK:   -7.75 KCAL/MOL
REMARK 923 INTER-LIGAND FREE ENERGY PREDICTED BY IDOCK:   -6.73 KCAL/MOL
REMARK 924 INTRA-LIGAND FREE ENERGY PREDICTED BY IDOCK:   -1.02 KCAL/MOL
REMARK 927      BINDING AFFINITY PREDICTED BY RF-SCORE:    0.00 PKD
ROOT
HETATM    1  O   UNL     1      -6.906  12.254  70.273  1.00  0.00    -0.327 OA 
HETATM    2  C   UNL     1      -6.874  11.091  69.423  1.00  0.00    -0.119 C  
HETATM    3  H   UNL     1      -6.591  12.993  69.766  1.00  0.00     0.000 HD 
ENDROOT
BRANCH   2   4
HETATM    4  C   UNL     1      -7.742  11.361  68.193  1.00  0.00    -0.118 C  
BRANCH   4   5
HETATM    5  O   UNL     1      -8.576  12.499  68.443  1.00  0.00    -0.172 OA 
BRANCH   5   6
HETATM    6  C   UNL     1      -9.064  13.191  67.369  1.00  0.00    -0.208 A  
HETATM    7  O   UNL     1      -7.432  19.481  67.503  1.00  0.00    -0.236 OA 
HETATM    8  O   UNL     1      -8.840  19.261  65.748  1.00  0.00    -0.395 OA 
HETATM    9  C   UNL     1      -9.782  12.582  66.328  1.00  0.00    -0.259 A  
HETATM   10  C   UNL     1     -10.305  13.334  65.277  1.00  0.00    -0.324 A  
HETATM   11  C   UNL     1      -8.164  18.788  66.820  1.00  0.00    -0.278 C  
HETATM   12  C   UNL     1     -10.119  14.709  65.249  1.00  0.00    -0.393 A  
HETATM   13  O   UNL     1      -9.231  16.688  66.134  1.00  0.00    -0.300 OA 
HETATM   14  C   UNL     1      -8.419  17.339  67.039  1.00  0.00    -0.219 C  
HETATM   15  C   UNL     1      -9.391  15.330  66.264  1.00  0.00    -0.310 A  
HETATM   16  C   UNL     1      -7.841  16.755  68.095  1.00  0.00    -0.182 C  
HETATM   17  C   UNL     1      -8.861  14.585  67.327  1.00  0.00    -0.221 A  
HETATM   18  O   UNL     1      -7.563  14.816  69.337  1.00  0.00    -0.163 OA 
HETATM   19  C   UNL     1      -8.062  15.320  68.343  1.00  0.00    -0.137 C  
ENDBRANCH   5   6
ENDBRANCH   4   5
ENDBRANCH   2   4
BRANCH   2  20
HETATM   20  C   UNL     1      -7.382   9.899  70.241  1.00  0.00    -0.157 C  
BRANCH  20  21
HETATM   21  O   UNL     1      -8.568   9.312  69.745  1.00  0.00    -0.133 OA 
BRANCH  21  22
HETATM   22  C   UNL     1      -8.892   8.027  70.115  1.00  0.00    -0.143 A  
HETATM   23  C   UNL     1      -8.378   5.233  67.473  1.00  0.00    -0.106 C  
HETATM   24  C   UNL     1      -8.106   6.507  68.144  1.00  0.00    -0.113 C  
HETATM   25  C   UNL     1      -8.809   6.789  69.431  1.00  0.00    -0.135 A  
HETATM   26  C   UNL     1      -9.406   5.653  70.027  1.00  0.00    -0.149 A  
HETATM   27  C   UNL     1      -9.006   4.271  68.144  1.00  0.00    -0.122 C  
HETATM   28  C   UNL     1      -9.979   5.709  71.302  1.00  0.00    -0.248 A  
HETATM   29  O   UNL     1      -9.481   4.409  69.431  1.00  0.00    -0.147 OA 
HETATM   30  C   UNL     1      -9.987   6.905  72.003  1.00  0.00    -0.179 A  
HETATM   31  C   UNL     1      -9.133   2.954  67.466  1.00  0.00    -0.181 C  
HETATM   32  O   UNL     1      -9.771   2.044  68.232  1.00  0.00    -0.167 OA 
HETATM   33  C   UNL     1      -9.471   8.051  71.402  1.00  0.00    -0.194 A  
HETATM   34  O   UNL     1      -7.243   7.203  67.633  1.00  0.00    -0.085 OA 
HETATM   35  O   UNL     1      -8.705   2.705  66.350  1.00  0.00    -0.110 OA 
ENDBRANCH  21  22
ENDBRANCH  20  21
ENDBRANCH   2  20
TORSDOF 6
ENDMDL
MODEL      251
REMARK 921   NORMALIZED FREE ENERGY PREDICTED BY IDOCK:   -4.77 KCAL/MOL
REMARK 922        TOTAL FREE ENERGY PREDICTED BY IDOCK:   -7.74 KCAL/MOL
REMARK 923 INTER-LIGAND FREE ENERGY PREDICTED BY IDOCK:   -6.73 KCAL/MOL
REMARK 924 INTRA-LIGAND FREE ENERGY PREDICTED BY IDOCK:   -1.01 KCAL/MOL
REMARK 927      BINDING AFFINITY PREDICTED BY RF-SCORE:    0.00 PKD
ROOT
HETATM    1  O   UNL     1      -6.922  10.390  63.788  1.00  0.00    -0.279 OA 
HETATM    2  C   UNL     1      -7.868   9.432  63.273  1.00  0.00    -0.131 C  
HETATM    3  H   UNL     1      -7.073  11.215  63.342  1.00  0.00     0.000 HD 
ENDROOT
BRANCH   2   4
HETATM    4  C   UNL     1      -9.281   9.967  63.506  1.00  0.00    -0.238 C  
BRANCH   4   5
HETATM    5  O   UNL     1      -9.297  10.760  64.699  1.00  0.00    -0.207 OA 
BRANCH   5   6
HETATM    6  C   UNL     1     -10.220  11.764  64.796  1.00  0.00    -0.282 A  
HETATM    7  O   UNL     1      -8.967  15.847  69.695  1.00  0.00    -0.204 OA 
HETATM    8  O   UNL     1     -10.971  16.493  68.869  1.00  0.00    -0.319 OA 
HETATM    9  C   UNL     1     -11.281  11.918  63.889  1.00  0.00    -0.497 A  
HETATM   10  C   UNL     1     -12.231  12.926  64.054  1.00  0.00    -0.500 A  
HETATM   11  C   UNL     1      -9.887  15.685  68.913  1.00  0.00    -0.219 C  
HETATM   12  C   UNL     1     -12.135  13.798  65.130  1.00  0.00    -0.416 A  
HETATM   13  O   UNL     1     -11.048  14.601  67.043  1.00  0.00    -0.315 OA 
HETATM   14  C   UNL     1      -9.961  14.605  67.893  1.00  0.00    -0.221 C  
HETATM   15  C   UNL     1     -11.077  13.673  66.030  1.00  0.00    -0.293 A  
HETATM   16  C   UNL     1      -8.968  13.710  67.857  1.00  0.00    -0.195 C  
HETATM   17  C   UNL     1     -10.117  12.664  65.876  1.00  0.00    -0.276 A  
HETATM   18  O   UNL     1      -8.107  11.795  66.869  1.00  0.00    -0.163 OA 
HETATM   19  C   UNL     1      -8.999  12.629  66.856  1.00  0.00    -0.213 C  
ENDBRANCH   5   6
ENDBRANCH   4   5
ENDBRANCH   2   4
BRANCH   2  20
HETATM   20  C   UNL     1      -7.625   8.102  63.994  1.00  0.00    -0.130 C  
BRANCH  20  21
HETATM   21  O   UNL     1      -8.666   7.712  64.867  1.00  0.00     0.039 OA 
BRANCH  21  22
HETATM   22  C   UNL     1      -8.362   7.332  66.154  1.00  0.00    -0.133 A  
HETATM   23  C   UNL     1      -9.194   3.683  67.175  1.00  0.00    -0.212 C  
HETATM   24  C   UNL     1      -8.824   4.765  66.260  1.00  0.00    -0.114 C  
HETATM   25  C   UNL     1      -8.501   6.102  66.843  1.00  0.00    -0.105 A  
HETATM   26  C   UNL     1      -8.266   6.084  68.238  1.00  0.00    -0.110 A  
HETATM   27  C   UNL     1      -8.968   3.833  68.478  1.00  0.00    -0.124 C  
HETATM   28  C   UNL     1      -7.812   7.218  68.920  1.00  0.00    -0.118 A  
HETATM   29  O   UNL     1      -8.454   4.979  69.046  1.00  0.00    -0.083 OA 
HETATM   30  C   UNL     1      -7.600   8.400  68.228  1.00  0.00    -0.098 A  
HETATM   31  C   UNL     1      -9.232   2.654  69.344  1.00  0.00    -0.128 C  
HETATM   32  O   UNL     1      -8.960   2.903  70.643  1.00  0.00    -0.081 OA 
HETATM   33  C   UNL     1      -7.897   8.457  66.869  1.00  0.00    -0.095 A  
HETATM   34  O   UNL     1      -8.719   4.454  65.083  1.00  0.00    -0.121 OA 
HETATM   35  O   UNL     1      -9.638   1.576  68.942  1.00  0.00    -0.146 OA 
ENDBRANCH  21  22
ENDBRANCH  20  21
ENDBRANCH   2  20
TORSDOF 6
ENDMDL
MODEL      252
REMARK 921   NORMALIZED FREE ENERGY PREDICTED BY IDOCK:   -4.76 KCAL/MOL
REMARK 922        TOTAL FREE ENERGY PREDICTED BY IDOCK:   -7.73 KCAL/MOL
REMARK 923 INTER-LIGAND FREE ENERGY PREDICTED BY IDOCK:   -6.17 KCAL/MOL
REMARK 924 INTRA-LIGAND FREE ENERGY PREDICTED BY IDOCK:   -1.56 KCAL/MOL
REMARK 927      BINDING AFFINITY PREDICTED BY RF-SCORE:    0.00 PKD
ROOT
HETATM    1  O   UNL     1     -11.510   8.030  72.138  1.00  0.00    -0.289 OA 
HETATM    2  C   UNL     1     -10.376   7.199  72.455  1.00  0.00    -0.208 C  
HETATM    3  H   UNL     1     -11.306   8.916  72.414  1.00  0.00     0.000 HD 
ENDROOT
BRANCH   2   4
HETATM    4  C   UNL     1      -9.146   7.758  71.742  1.00  0.00    -0.137 C  
BRANCH   4   5
HETATM    5  O   UNL     1      -9.483   9.006  71.123  1.00  0.00    -0.241 OA 
BRANCH   5   6
HETATM    6  C   UNL     1      -9.037   9.238  69.851  1.00  0.00    -0.191 A  
HETATM    7  O   UNL     1     -13.008  13.126  66.482  1.00  0.00     0.162 OA 
HETATM    8  O   UNL     1     -11.441  12.439  65.004  1.00  0.00    -0.313 OA 
HETATM    9  C   UNL     1      -7.820   8.736  69.364  1.00  0.00    -0.095 A  
HETATM   10  C   UNL     1      -7.426   8.954  68.044  1.00  0.00    -0.092 A  
HETATM   11  C   UNL     1     -12.024  12.456  66.225  1.00  0.00    -0.298 C  
HETATM   12  C   UNL     1      -8.244   9.679  67.188  1.00  0.00    -0.120 A  
HETATM   13  O   UNL     1     -10.174  10.933  66.750  1.00  0.00    -0.214 OA 
HETATM   14  C   UNL     1     -11.311  11.578  67.190  1.00  0.00    -0.284 C  
HETATM   15  C   UNL     1      -9.448  10.203  67.660  1.00  0.00    -0.148 A  
HETATM   16  C   UNL     1     -11.812  11.472  68.427  1.00  0.00    -0.353 C  
HETATM   17  C   UNL     1      -9.855   9.990  68.985  1.00  0.00    -0.203 A  
HETATM   18  O   UNL     1     -11.629  10.500  70.525  1.00  0.00    -0.306 OA 
HETATM   19  C   UNL     1     -11.131  10.619  69.416  1.00  0.00    -0.260 C  
ENDBRANCH   5   6
ENDBRANCH   4   5
ENDBRANCH   2   4
BRANCH   2  20
HETATM   20  C   UNL     1     -10.706   5.769  72.011  1.00  0.00    -0.233 C  
BRANCH  20  21
HETATM   21  O   UNL     1     -10.793   5.599  70.610  1.00  0.00    -0.273 OA 
BRANCH  21  22
HETATM   22  C   UNL     1     -10.157   4.532  70.019  1.00  0.00    -0.134 A  
HETATM   23  C   UNL     1      -9.736   4.627  66.164  1.00  0.00    -0.211 C  
HETATM   24  C   UNL     1      -9.861   5.190  67.510  1.00  0.00    -0.162 C  
HETATM   25  C   UNL     1      -9.816   4.253  68.673  1.00  0.00    -0.118 A  
HETATM   26  C   UNL     1      -9.325   2.963  68.359  1.00  0.00    -0.192 A  
HETATM   27  C   UNL     1      -9.318   3.371  66.024  1.00  0.00    -0.142 C  
HETATM   28  C   UNL     1      -9.082   2.009  69.353  1.00  0.00    -0.170 A  
HETATM   29  O   UNL     1      -9.043   2.527  67.079  1.00  0.00    -0.147 OA 
HETATM   30  C   UNL     1      -9.341   2.314  70.680  1.00  0.00    -0.205 A  
HETATM   31  C   UNL     1      -9.075   2.896  64.636  1.00  0.00    -0.133 C  
HETATM   32  O   UNL     1      -8.641   1.618  64.603  1.00  0.00    -0.086 OA 
HETATM   33  C   UNL     1      -9.895   3.551  71.000  1.00  0.00    -0.156 A  
HETATM   34  O   UNL     1      -9.900   6.409  67.576  1.00  0.00    -0.117 OA 
HETATM   35  O   UNL     1      -9.236   3.573  63.634  1.00  0.00    -0.100 OA 
ENDBRANCH  21  22
ENDBRANCH  20  21
ENDBRANCH   2  20
TORSDOF 6
ENDMDL
MODEL      253
REMARK 921   NORMALIZED FREE ENERGY PREDICTED BY IDOCK:   -4.76 KCAL/MOL
REMARK 922        TOTAL FREE ENERGY PREDICTED BY IDOCK:   -7.73 KCAL/MOL
REMARK 923 INTER-LIGAND FREE ENERGY PREDICTED BY IDOCK:   -7.54 KCAL/MOL
REMARK 924 INTRA-LIGAND FREE ENERGY PREDICTED BY IDOCK:   -0.19 KCAL/MOL
REMARK 927      BINDING AFFINITY PREDICTED BY RF-SCORE:    0.00 PKD
ROOT
HETATM    1  O   UNL     1      -6.201  13.397  70.835  1.00  0.00    -0.469 OA 
HETATM    2  C   UNL     1      -6.217  12.665  69.594  1.00  0.00    -0.122 C  
HETATM    3  H   UNL     1      -6.072  14.316  70.628  1.00  0.00     0.000 HD 
ENDROOT
BRANCH   2   4
HETATM    4  C   UNL     1      -7.334  13.223  68.712  1.00  0.00    -0.070 C  
BRANCH   4   5
HETATM    5  O   UNL     1      -8.177  14.074  69.498  1.00  0.00     0.355 OA 
BRANCH   5   6
HETATM    6  C   UNL     1      -9.209  14.717  68.872  1.00  0.00    -0.177 A  
HETATM    7  O   UNL     1      -7.770  20.873  67.365  1.00  0.00    -0.335 OA 
HETATM    8  O   UNL     1      -9.956  20.621  66.847  1.00  0.00    -0.418 OA 
HETATM    9  C   UNL     1     -10.418  14.084  68.542  1.00  0.00    -0.251 A  
HETATM   10  C   UNL     1     -11.464  14.790  67.950  1.00  0.00    -0.361 A  
HETATM   11  C   UNL     1      -8.773  20.184  67.335  1.00  0.00    -0.344 C  
HETATM   12  C   UNL     1     -11.320  16.143  67.678  1.00  0.00    -0.064 A  
HETATM   13  O   UNL     1     -10.058  18.117  67.645  1.00  0.00    -0.325 OA 
HETATM   14  C   UNL     1      -8.857  18.776  67.807  1.00  0.00    -0.290 C  
HETATM   15  C   UNL     1     -10.119  16.786  67.980  1.00  0.00    -0.284 A  
HETATM   16  C   UNL     1      -7.763  18.233  68.353  1.00  0.00    -0.312 C  
HETATM   17  C   UNL     1      -9.060  16.087  68.576  1.00  0.00    -0.203 A  
HETATM   18  O   UNL     1      -6.807  16.376  69.363  1.00  0.00    -0.210 OA 
HETATM   19  C   UNL     1      -7.802  16.839  68.826  1.00  0.00    -0.243 C  
ENDBRANCH   5   6
ENDBRANCH   4   5
ENDBRANCH   2   4
BRANCH   2  20
HETATM   20  C   UNL     1      -6.425  11.184  69.928  1.00  0.00    -0.142 C  
BRANCH  20  21
HETATM   21  O   UNL     1      -7.047  10.436  68.902  1.00  0.00    -0.065 OA 
BRANCH  21  22
HETATM   22  C   UNL     1      -8.393  10.161  68.988  1.00  0.00    -0.138 A  
HETATM   23  C   UNL     1      -9.544   7.773  71.820  1.00  0.00    -0.204 C  
HETATM   24  C   UNL     1      -8.693   8.781  71.182  1.00  0.00    -0.212 C  
HETATM   25  C   UNL     1      -9.149   9.373  69.889  1.00  0.00    -0.221 A  
HETATM   26  C   UNL     1     -10.512   9.136  69.593  1.00  0.00    -0.223 A  
HETATM   27  C   UNL     1     -10.795   7.619  71.392  1.00  0.00    -0.225 C  
HETATM   28  C   UNL     1     -11.139   9.738  68.496  1.00  0.00    -0.138 A  
HETATM   29  O   UNL     1     -11.340   8.313  70.332  1.00  0.00    -0.254 OA 
HETATM   30  C   UNL     1     -10.416  10.574  67.661  1.00  0.00    -0.276 A  
HETATM   31  C   UNL     1     -11.656   6.684  72.162  1.00  0.00    -0.298 C  
HETATM   32  O   UNL     1     -12.906   6.609  71.658  1.00  0.00    -0.323 OA 
HETATM   33  C   UNL     1      -9.055  10.759  67.893  1.00  0.00    -0.150 A  
HETATM   34  O   UNL     1      -7.709   9.126  71.819  1.00  0.00    -0.344 OA 
HETATM   35  O   UNL     1     -11.294   6.058  73.145  1.00  0.00    -0.199 OA 
ENDBRANCH  21  22
ENDBRANCH  20  21
ENDBRANCH   2  20
TORSDOF 6
ENDMDL
MODEL      254
REMARK 921   NORMALIZED FREE ENERGY PREDICTED BY IDOCK:   -4.74 KCAL/MOL
REMARK 922        TOTAL FREE ENERGY PREDICTED BY IDOCK:   -7.69 KCAL/MOL
REMARK 923 INTER-LIGAND FREE ENERGY PREDICTED BY IDOCK:   -6.52 KCAL/MOL
REMARK 924 INTRA-LIGAND FREE ENERGY PREDICTED BY IDOCK:   -1.17 KCAL/MOL
REMARK 927      BINDING AFFINITY PREDICTED BY RF-SCORE:    0.00 PKD
ROOT
HETATM    1  O   UNL     1      -9.474  10.378  70.258  1.00  0.00    -0.308 OA 
HETATM    2  C   UNL     1     -10.874  10.243  70.569  1.00  0.00    -0.211 C  
HETATM    3  H   UNL     1      -9.041  10.740  71.022  1.00  0.00     0.000 HD 
ENDROOT
BRANCH   2   4
HETATM    4  C   UNL     1     -11.018   9.343  71.796  1.00  0.00    -0.217 C  
BRANCH   4   5
HETATM    5  O   UNL     1      -9.883   8.473  71.881  1.00  0.00    -0.231 OA 
BRANCH   5   6
HETATM    6  C   UNL     1     -10.105   7.138  72.083  1.00  0.00    -0.180 A  
HETATM    7  O   UNL     1      -7.996   3.478  67.144  1.00  0.00    -0.082 OA 
HETATM    8  O   UNL     1      -9.074   2.055  68.532  1.00  0.00    -0.116 OA 
HETATM    9  C   UNL     1     -10.670   6.627  73.262  1.00  0.00    -0.315 A  
HETATM   10  C   UNL     1     -10.927   5.264  73.407  1.00  0.00    -0.372 A  
HETATM   11  C   UNL     1      -8.648   3.282  68.154  1.00  0.00    -0.095 C  
HETATM   12  C   UNL     1     -10.622   4.389  72.374  1.00  0.00    -0.172 A  
HETATM   13  O   UNL     1      -9.746   3.930  70.250  1.00  0.00    -0.193 OA 
HETATM   14  C   UNL     1      -9.061   4.332  69.123  1.00  0.00    -0.126 C  
HETATM   15  C   UNL     1     -10.042   4.876  71.203  1.00  0.00    -0.207 A  
HETATM   16  C   UNL     1      -8.738   5.601  68.845  1.00  0.00    -0.107 C  
HETATM   17  C   UNL     1      -9.780   6.244  71.045  1.00  0.00    -0.196 A  
HETATM   18  O   UNL     1      -8.857   7.826  69.488  1.00  0.00    -0.138 OA 
HETATM   19  C   UNL     1      -9.121   6.671  69.782  1.00  0.00    -0.143 C  
ENDBRANCH   5   6
ENDBRANCH   4   5
ENDBRANCH   2   4
BRANCH   2  20
HETATM   20  C   UNL     1     -11.572   9.659  69.336  1.00  0.00     0.199 C  
BRANCH  20  21
HETATM   21  O   UNL     1     -12.135  10.624  68.471  1.00  0.00    -0.420 OA 
BRANCH  21  22
HETATM   22  C   UNL     1     -11.368  11.154  67.459  1.00  0.00    -0.278 A  
HETATM   23  C   UNL     1      -8.922   8.756  65.639  1.00  0.00    -0.248 C  
HETATM   24  C   UNL     1     -10.134   9.127  66.373  1.00  0.00    -0.274 C  
HETATM   25  C   UNL     1     -10.413  10.579  66.586  1.00  0.00    -0.290 A  
HETATM   26  C   UNL     1      -9.647  11.441  65.766  1.00  0.00    -0.233 A  
HETATM   27  C   UNL     1      -8.267   9.693  64.957  1.00  0.00    -0.136 C  
HETATM   28  C   UNL     1      -9.882  12.820  65.732  1.00  0.00    -0.222 A  
HETATM   29  O   UNL     1      -8.622  11.025  64.939  1.00  0.00    -0.088 OA 
HETATM   30  C   UNL     1     -10.873  13.371  66.529  1.00  0.00    -0.286 A  
HETATM   31  C   UNL     1      -7.127   9.238  64.118  1.00  0.00    -0.098 C  
HETATM   32  O   UNL     1      -6.540  10.259  63.458  1.00  0.00    -0.137 OA 
HETATM   33  C   UNL     1     -11.586  12.548  67.397  1.00  0.00    -0.434 A  
HETATM   34  O   UNL     1     -10.875   8.205  66.676  1.00  0.00    -0.100 OA 
HETATM   35  O   UNL     1      -6.759   8.079  64.018  1.00  0.00    -0.064 OA 
ENDBRANCH  21  22
ENDBRANCH  20  21
ENDBRANCH   2  20
TORSDOF 6
ENDMDL
MODEL      255
REMARK 921   NORMALIZED FREE ENERGY PREDICTED BY IDOCK:   -4.72 KCAL/MOL
REMARK 922        TOTAL FREE ENERGY PREDICTED BY IDOCK:   -7.67 KCAL/MOL
REMARK 923 INTER-LIGAND FREE ENERGY PREDICTED BY IDOCK:   -6.37 KCAL/MOL
REMARK 924 INTRA-LIGAND FREE ENERGY PREDICTED BY IDOCK:   -1.29 KCAL/MOL
REMARK 927      BINDING AFFINITY PREDICTED BY RF-SCORE:    0.00 PKD
ROOT
HETATM    1  O   UNL     1     -13.648  14.303  65.406  1.00  0.00    -0.583 OA 
HETATM    2  C   UNL     1     -12.361  13.768  65.776  1.00  0.00    -0.486 C  
HETATM    3  H   UNL     1     -13.637  15.235  65.589  1.00  0.00     0.000 HD 
ENDROOT
BRANCH   2   4
HETATM    4  C   UNL     1     -11.280  14.501  64.982  1.00  0.00    -0.382 C  
BRANCH   4   5
HETATM    5  O   UNL     1     -10.031  14.399  65.677  1.00  0.00    -0.332 OA 
BRANCH   5   6
HETATM    6  C   UNL     1      -9.581  15.495  66.362  1.00  0.00    -0.291 A  
HETATM    7  O   UNL     1      -5.510  13.931  71.180  1.00  0.00    -0.156 OA 
HETATM    8  O   UNL     1      -5.861  16.155  71.385  1.00  0.00     0.434 OA 
HETATM    9  C   UNL     1      -9.922  16.810  66.009  1.00  0.00    -0.334 A  
HETATM   10  C   UNL     1      -9.482  17.896  66.764  1.00  0.00    -0.289 A  
HETATM   11  C   UNL     1      -6.066  14.949  70.808  1.00  0.00    -0.022 C  
HETATM   12  C   UNL     1      -8.694  17.685  67.887  1.00  0.00    -0.245 A  
HETATM   13  O   UNL     1      -7.522  16.279  69.349  1.00  0.00    -0.233 OA 
HETATM   14  C   UNL     1      -7.028  15.033  69.678  1.00  0.00    -0.191 C  
HETATM   15  C   UNL     1      -8.329  16.386  68.242  1.00  0.00    -0.189 A  
HETATM   16  C   UNL     1      -7.352  13.899  69.046  1.00  0.00    -0.055 C  
HETATM   17  C   UNL     1      -8.766  15.286  67.491  1.00  0.00    -0.189 A  
HETATM   18  O   UNL     1      -8.612  12.889  67.381  1.00  0.00    -0.175 OA 
HETATM   19  C   UNL     1      -8.295  13.941  67.915  1.00  0.00    -0.167 C  
ENDBRANCH   5   6
ENDBRANCH   4   5
ENDBRANCH   2   4
BRANCH   2  20
HETATM   20  C   UNL     1     -12.379  12.264  65.480  1.00  0.00    -0.024 C  
BRANCH  20  21
HETATM   21  O   UNL     1     -11.808  11.463  66.495  1.00  0.00    -0.352 OA 
BRANCH  21  22
HETATM   22  C   UNL     1     -10.731  10.661  66.196  1.00  0.00    -0.076 A  
HETATM   23  C   UNL     1      -8.968   8.876  69.155  1.00  0.00    -0.140 C  
HETATM   24  C   UNL     1     -10.092   9.476  68.432  1.00  0.00    -0.175 C  
HETATM   25  C   UNL     1      -9.888   9.858  67.003  1.00  0.00    -0.241 A  
HETATM   26  C   UNL     1      -8.733   9.293  66.412  1.00  0.00    -0.132 A  
HETATM   27  C   UNL     1      -7.915   8.440  68.466  1.00  0.00    -0.121 C  
HETATM   28  C   UNL     1      -8.468   9.429  65.044  1.00  0.00    -0.171 A  
HETATM   29  O   UNL     1      -7.779   8.569  67.100  1.00  0.00    -0.095 OA 
HETATM   30  C   UNL     1      -9.338  10.148  64.241  1.00  0.00    -0.349 A  
HETATM   31  C   UNL     1      -6.867   7.716  69.231  1.00  0.00    -0.052 C  
HETATM   32  O   UNL     1      -5.852   7.304  68.443  1.00  0.00    -0.021 OA 
HETATM   33  C   UNL     1     -10.440  10.775  64.819  1.00  0.00    -0.335 A  
HETATM   34  O   UNL     1     -11.149   9.530  69.043  1.00  0.00    -0.152 OA 
HETATM   35  O   UNL     1      -6.909   7.500  70.432  1.00  0.00    -0.046 OA 
ENDBRANCH  21  22
ENDBRANCH  20  21
ENDBRANCH   2  20
TORSDOF 6
ENDMDL
MODEL      256
REMARK 921   NORMALIZED FREE ENERGY PREDICTED BY IDOCK:   -4.70 KCAL/MOL
REMARK 922        TOTAL FREE ENERGY PREDICTED BY IDOCK:   -7.64 KCAL/MOL
REMARK 923 INTER-LIGAND FREE ENERGY PREDICTED BY IDOCK:   -7.53 KCAL/MOL
REMARK 924 INTRA-LIGAND FREE ENERGY PREDICTED BY IDOCK:   -0.11 KCAL/MOL
REMARK 927      BINDING AFFINITY PREDICTED BY RF-SCORE:    0.00 PKD
ROOT
HETATM    1  O   UNL     1      -7.060  11.068  65.653  1.00  0.00    -0.358 OA 
HETATM    2  C   UNL     1      -7.875  10.117  66.367  1.00  0.00    -0.114 C  
HETATM    3  H   UNL     1      -7.589  11.841  65.495  1.00  0.00     0.000 HD 
ENDROOT
BRANCH   2   4
HETATM    4  C   UNL     1      -8.357  10.763  67.666  1.00  0.00    -0.119 C  
BRANCH   4   5
HETATM    5  O   UNL     1      -9.773  10.975  67.592  1.00  0.00    -0.166 OA 
BRANCH   5   6
HETATM    6  C   UNL     1     -10.535  10.638  68.677  1.00  0.00    -0.191 A  
HETATM    7  O   UNL     1     -13.665  15.738  71.212  1.00  0.00    -0.560 OA 
HETATM    8  O   UNL     1     -14.065  14.021  72.627  1.00  0.00    -0.651 OA 
HETATM    9  C   UNL     1     -10.664   9.319  69.140  1.00  0.00    -0.202 A  
HETATM   10  C   UNL     1     -11.410   9.026  70.281  1.00  0.00    -0.202 A  
HETATM   11  C   UNL     1     -13.493  14.576  71.534  1.00  0.00    -0.374 C  
HETATM   12  C   UNL     1     -12.039  10.048  70.979  1.00  0.00    -0.469 A  
HETATM   13  O   UNL     1     -12.620  12.300  71.259  1.00  0.00    -0.343 OA 
HETATM   14  C   UNL     1     -12.658  13.596  70.789  1.00  0.00    -0.325 C  
HETATM   15  C   UNL     1     -11.937  11.362  70.522  1.00  0.00    -0.356 A  
HETATM   16  C   UNL     1     -12.001  14.030  69.707  1.00  0.00    -0.393 C  
HETATM   17  C   UNL     1     -11.190  11.670  69.377  1.00  0.00    -0.311 A  
HETATM   18  O   UNL     1     -10.542  13.515  67.979  1.00  0.00    -0.229 OA 
HETATM   19  C   UNL     1     -11.169  13.090  68.937  1.00  0.00    -0.278 C  
ENDBRANCH   5   6
ENDBRANCH   4   5
ENDBRANCH   2   4
BRANCH   2  20
HETATM   20  C   UNL     1      -7.021   8.870  66.623  1.00  0.00    -0.080 C  
BRANCH  20  21
HETATM   21  O   UNL     1      -7.330   8.186  67.820  1.00  0.00    -0.089 OA 
BRANCH  21  22
HETATM   22  C   UNL     1      -8.048   7.013  67.762  1.00  0.00    -0.114 A  
HETATM   23  C   UNL     1      -8.498   5.373  64.275  1.00  0.00    -0.092 C  
HETATM   24  C   UNL     1      -7.821   6.168  65.303  1.00  0.00    -0.105 C  
HETATM   25  C   UNL     1      -8.378   6.150  66.689  1.00  0.00    -0.111 A  
HETATM   26  C   UNL     1      -9.303   5.106  66.927  1.00  0.00    -0.128 A  
HETATM   27  C   UNL     1      -9.395   4.464  64.648  1.00  0.00    -0.150 C  
HETATM   28  C   UNL     1      -9.811   4.855  68.207  1.00  0.00    -0.198 A  
HETATM   29  O   UNL     1      -9.783   4.251  65.954  1.00  0.00    -0.175 OA 
HETATM   30  C   UNL     1      -9.423   5.652  69.272  1.00  0.00    -0.167 A  
HETATM   31  C   UNL     1      -9.949   3.591  63.579  1.00  0.00    -0.169 C  
HETATM   32  O   UNL     1     -10.838   2.696  64.060  1.00  0.00    -0.031 OA 
HETATM   33  C   UNL     1      -8.572   6.730  69.042  1.00  0.00    -0.131 A  
HETATM   34  O   UNL     1      -6.785   6.714  64.956  1.00  0.00    -0.047 OA 
HETATM   35  O   UNL     1      -9.639   3.657  62.401  1.00  0.00    -0.097 OA 
ENDBRANCH  21  22
ENDBRANCH  20  21
ENDBRANCH   2  20
TORSDOF 6
ENDMDL
MODEL      257
REMARK 921   NORMALIZED FREE ENERGY PREDICTED BY IDOCK:   -4.66 KCAL/MOL
REMARK 922        TOTAL FREE ENERGY PREDICTED BY IDOCK:   -7.59 KCAL/MOL
REMARK 923 INTER-LIGAND FREE ENERGY PREDICTED BY IDOCK:   -7.65 KCAL/MOL
REMARK 924 INTRA-LIGAND FREE ENERGY PREDICTED BY IDOCK:    0.07 KCAL/MOL
REMARK 927      BINDING AFFINITY PREDICTED BY RF-SCORE:    0.00 PKD
ROOT
HETATM    1  O   UNL     1      -9.967  11.180  69.199  1.00  0.00    -0.349 OA 
HETATM    2  C   UNL     1      -9.191  10.646  68.109  1.00  0.00    -0.148 C  
HETATM    3  H   UNL     1     -10.102  10.481  69.829  1.00  0.00     0.000 HD 
ENDROOT
BRANCH   2   4
HETATM    4  C   UNL     1      -7.874  10.106  68.664  1.00  0.00    -0.097 C  
BRANCH   4   5
HETATM    5  O   UNL     1      -7.789   8.700  68.401  1.00  0.00    -0.102 OA 
BRANCH   5   6
HETATM    6  C   UNL     1      -8.942   7.964  68.443  1.00  0.00    -0.133 A  
HETATM    7  O   UNL     1     -10.355   5.878  74.434  1.00  0.00    -0.279 OA 
HETATM    8  O   UNL     1     -11.882   4.904  73.080  1.00  0.00    -0.279 OA 
HETATM    9  C   UNL     1      -9.752   7.746  67.317  1.00  0.00    -0.224 A  
HETATM   10  C   UNL     1     -10.892   6.947  67.393  1.00  0.00    -0.396 A  
HETATM   11  C   UNL     1     -10.798   5.677  73.317  1.00  0.00    -0.282 C  
HETATM   12  C   UNL     1     -11.241   6.351  68.597  1.00  0.00    -0.338 A  
HETATM   13  O   UNL     1     -10.901   5.967  70.883  1.00  0.00    -0.257 OA 
HETATM   14  C   UNL     1     -10.241   6.247  72.061  1.00  0.00    -0.189 C  
HETATM   15  C   UNL     1     -10.459   6.572  69.731  1.00  0.00    -0.211 A  
HETATM   16  C   UNL     1      -9.138   7.000  72.152  1.00  0.00    -0.141 C  
HETATM   17  C   UNL     1      -9.310   7.373  69.667  1.00  0.00    -0.149 A  
HETATM   18  O   UNL     1      -7.527   8.236  71.030  1.00  0.00    -0.058 OA 
HETATM   19  C   UNL     1      -8.559   7.590  70.932  1.00  0.00    -0.130 C  
ENDBRANCH   5   6
ENDBRANCH   4   5
ENDBRANCH   2   4
BRANCH   2  20
HETATM   20  C   UNL     1      -8.974  11.774  67.094  1.00  0.00    -0.177 C  
BRANCH  20  21
HETATM   21  O   UNL     1      -9.513  13.021  67.483  1.00  0.00    -0.187 OA 
BRANCH  21  22
HETATM   22  C   UNL     1      -8.677  14.107  67.613  1.00  0.00    -0.187 A  
HETATM   23  C   UNL     1     -10.230  17.621  67.082  1.00  0.00    -0.342 C  
HETATM   24  C   UNL     1     -10.220  16.207  67.462  1.00  0.00    -0.267 C  
HETATM   25  C   UNL     1      -8.904  15.501  67.516  1.00  0.00    -0.191 A  
HETATM   26  C   UNL     1      -7.784  16.365  67.516  1.00  0.00    -0.142 A  
HETATM   27  C   UNL     1      -9.083  18.296  67.068  1.00  0.00    -0.271 C  
HETATM   28  C   UNL     1      -6.484  15.881  67.707  1.00  0.00    -0.177 A  
HETATM   29  O   UNL     1      -7.853  17.733  67.335  1.00  0.00    -0.203 OA 
HETATM   30  C   UNL     1      -6.273  14.523  67.883  1.00  0.00    -0.167 A  
HETATM   31  C   UNL     1      -9.168  19.758  66.811  1.00  0.00    -0.367 C  
HETATM   32  O   UNL     1      -7.955  20.351  66.831  1.00  0.00    -0.309 OA 
HETATM   33  C   UNL     1      -7.356  13.650  67.811  1.00  0.00    -0.170 A  
HETATM   34  O   UNL     1     -11.296  15.739  67.799  1.00  0.00    -0.322 OA 
HETATM   35  O   UNL     1     -10.206  20.368  66.614  1.00  0.00    -0.411 OA 
ENDBRANCH  21  22
ENDBRANCH  20  21
ENDBRANCH   2  20
TORSDOF 6
ENDMDL
MODEL      258
REMARK 921   NORMALIZED FREE ENERGY PREDICTED BY IDOCK:   -4.64 KCAL/MOL
REMARK 922        TOTAL FREE ENERGY PREDICTED BY IDOCK:   -7.56 KCAL/MOL
REMARK 923 INTER-LIGAND FREE ENERGY PREDICTED BY IDOCK:   -6.75 KCAL/MOL
REMARK 924 INTRA-LIGAND FREE ENERGY PREDICTED BY IDOCK:   -0.81 KCAL/MOL
REMARK 927      BINDING AFFINITY PREDICTED BY RF-SCORE:    0.00 PKD
ROOT
HETATM    1  O   UNL     1      -6.986  10.780  66.091  1.00  0.00    -0.129 OA 
HETATM    2  C   UNL     1      -7.877   9.848  66.734  1.00  0.00    -0.109 C  
HETATM    3  H   UNL     1      -7.470  11.583  65.936  1.00  0.00     0.000 HD 
ENDROOT
BRANCH   2   4
HETATM    4  C   UNL     1      -8.390  10.475  68.031  1.00  0.00    -0.116 C  
BRANCH   4   5
HETATM    5  O   UNL     1      -9.787  10.766  67.896  1.00  0.00    -0.163 OA 
BRANCH   5   6
HETATM    6  C   UNL     1     -10.609  10.490  68.954  1.00  0.00    -0.216 A  
HETATM    7  O   UNL     1     -13.542  15.800  71.286  1.00  0.00    -0.561 OA 
HETATM    8  O   UNL     1     -14.096  14.132  72.708  1.00  0.00    -0.610 OA 
HETATM    9  C   UNL     1     -10.832   9.189  69.431  1.00  0.00    -0.165 A  
HETATM   10  C   UNL     1     -11.638   8.957  70.545  1.00  0.00    -0.189 A  
HETATM   11  C   UNL     1     -13.451  14.636  71.631  1.00  0.00    -0.371 C  
HETATM   12  C   UNL     1     -12.235  10.024  71.202  1.00  0.00    -0.477 A  
HETATM   13  O   UNL     1     -12.698  12.310  71.425  1.00  0.00    -0.349 OA 
HETATM   14  C   UNL     1     -12.644  13.599  70.936  1.00  0.00    -0.346 C  
HETATM   15  C   UNL     1     -12.041  11.323  70.731  1.00  0.00    -0.349 A  
HETATM   16  C   UNL     1     -11.920  13.976  69.875  1.00  0.00    -0.399 C  
HETATM   17  C   UNL     1     -11.232  11.569  69.612  1.00  0.00    -0.276 A  
HETATM   18  O   UNL     1     -10.425  13.351  68.215  1.00  0.00    -0.237 OA 
HETATM   19  C   UNL     1     -11.113  12.978  69.153  1.00  0.00    -0.192 C  
ENDBRANCH   5   6
ENDBRANCH   4   5
ENDBRANCH   2   4
BRANCH   2  20
HETATM   20  C   UNL     1      -7.097   8.553  66.985  1.00  0.00    -0.075 C  
BRANCH  20  21
HETATM   21  O   UNL     1      -6.715   8.352  68.331  1.00  0.00    -0.061 OA 
BRANCH  21  22
HETATM   22  C   UNL     1      -7.261   7.305  69.039  1.00  0.00    -0.089 A  
HETATM   23  C   UNL     1      -7.884   3.994  67.118  1.00  0.00    -0.092 C  
HETATM   24  C   UNL     1      -7.210   5.258  67.421  1.00  0.00    -0.075 C  
HETATM   25  C   UNL     1      -7.591   5.978  68.674  1.00  0.00    -0.091 A  
HETATM   26  C   UNL     1      -8.322   5.191  69.594  1.00  0.00    -0.093 A  
HETATM   27  C   UNL     1      -8.593   3.394  68.072  1.00  0.00    -0.095 C  
HETATM   28  C   UNL     1      -8.634   5.660  70.875  1.00  0.00    -0.129 A  
HETATM   29  O   UNL     1      -8.789   3.917  69.333  1.00  0.00    -0.081 OA 
HETATM   30  C   UNL     1      -8.240   6.932  71.258  1.00  0.00    -0.114 A  
HETATM   31  C   UNL     1      -9.140   2.049  67.756  1.00  0.00    -0.172 C  
HETATM   32  O   UNL     1      -9.829   1.521  68.790  1.00  0.00    -0.093 OA 
HETATM   33  C   UNL     1      -7.584   7.749  70.340  1.00  0.00    -0.087 A  
HETATM   34  O   UNL     1      -6.311   5.577  66.658  1.00  0.00    -0.033 OA 
HETATM   35  O   UNL     1      -8.985   1.470  66.693  1.00  0.00    -0.116 OA 
ENDBRANCH  21  22
ENDBRANCH  20  21
ENDBRANCH   2  20
TORSDOF 6
ENDMDL
MODEL      259
REMARK 921   NORMALIZED FREE ENERGY PREDICTED BY IDOCK:   -4.63 KCAL/MOL
REMARK 922        TOTAL FREE ENERGY PREDICTED BY IDOCK:   -7.55 KCAL/MOL
REMARK 923 INTER-LIGAND FREE ENERGY PREDICTED BY IDOCK:   -6.91 KCAL/MOL
REMARK 924 INTRA-LIGAND FREE ENERGY PREDICTED BY IDOCK:   -0.64 KCAL/MOL
REMARK 927      BINDING AFFINITY PREDICTED BY RF-SCORE:    0.00 PKD
ROOT
HETATM    1  O   UNL     1     -11.543  11.326  68.162  1.00  0.00    -0.370 OA 
HETATM    2  C   UNL     1     -10.104  11.267  68.100  1.00  0.00    -0.182 C  
HETATM    3  H   UNL     1     -11.781  12.133  68.604  1.00  0.00     0.000 HD 
ENDROOT
BRANCH   2   4
HETATM    4  C   UNL     1      -9.594  12.504  67.362  1.00  0.00    -0.192 C  
BRANCH   4   5
HETATM    5  O   UNL     1      -9.612  13.627  68.253  1.00  0.00    -0.209 OA 
BRANCH   5   6
HETATM    6  C   UNL     1      -8.537  14.473  68.248  1.00  0.00    -0.171 A  
HETATM    7  O   UNL     1     -10.200  20.620  66.950  1.00  0.00    -0.316 OA 
HETATM    8  O   UNL     1      -7.939  20.608  67.015  1.00  0.00    -0.310 OA 
HETATM    9  C   UNL     1      -7.233  14.054  68.555  1.00  0.00    -0.109 A  
HETATM   10  C   UNL     1      -6.156  14.938  68.489  1.00  0.00    -0.093 A  
HETATM   11  C   UNL     1      -9.152  20.011  67.074  1.00  0.00    -0.360 C  
HETATM   12  C   UNL     1      -6.367  16.257  68.114  1.00  0.00    -0.130 A  
HETATM   13  O   UNL     1      -7.772  18.027  67.495  1.00  0.00    -0.209 OA 
HETATM   14  C   UNL     1      -9.037  18.548  67.318  1.00  0.00    -0.277 C  
HETATM   15  C   UNL     1      -7.658  16.697  67.824  1.00  0.00    -0.159 A  
HETATM   16  C   UNL     1     -10.165  17.831  67.357  1.00  0.00    -0.353 C  
HETATM   17  C   UNL     1      -8.748  15.818  67.887  1.00  0.00    -0.170 A  
HETATM   18  O   UNL     1     -11.133  15.735  67.590  1.00  0.00    -0.323 OA 
HETATM   19  C   UNL     1     -10.096  16.380  67.604  1.00  0.00    -0.263 C  
ENDBRANCH   5   6
ENDBRANCH   4   5
ENDBRANCH   2   4
BRANCH   2  20
HETATM   20  C   UNL     1      -9.721   9.966  67.386  1.00  0.00    -0.162 C  
BRANCH  20  21
HETATM   21  O   UNL     1     -10.710   8.958  67.436  1.00  0.00    -0.272 OA 
BRANCH  21  22
HETATM   22  C   UNL     1     -10.466   7.806  68.147  1.00  0.00    -0.176 A  
HETATM   23  C   UNL     1      -9.016   4.785  66.193  1.00  0.00    -0.122 C  
HETATM   24  C   UNL     1      -9.245   6.200  66.490  1.00  0.00    -0.149 C  
HETATM   25  C   UNL     1      -9.929   6.550  67.772  1.00  0.00    -0.154 A  
HETATM   26  C   UNL     1      -9.980   5.491  68.708  1.00  0.00    -0.172 A  
HETATM   27  C   UNL     1      -9.163   3.888  67.166  1.00  0.00    -0.176 C  
HETATM   28  C   UNL     1     -10.455   5.686  70.010  1.00  0.00    -0.367 A  
HETATM   29  O   UNL     1      -9.579   4.196  68.444  1.00  0.00    -0.156 OA 
HETATM   30  C   UNL     1     -10.905   6.937  70.400  1.00  0.00    -0.297 A  
HETATM   31  C   UNL     1      -8.784   2.486  66.848  1.00  0.00    -0.124 C  
HETATM   32  O   UNL     1      -8.955   1.659  67.901  1.00  0.00    -0.104 OA 
HETATM   33  C   UNL     1     -10.932   7.973  69.470  1.00  0.00    -0.062 A  
HETATM   34  O   UNL     1      -8.767   6.995  65.695  1.00  0.00    -0.140 OA 
HETATM   35  O   UNL     1      -8.356   2.112  65.768  1.00  0.00    -0.086 OA 
ENDBRANCH  21  22
ENDBRANCH  20  21
ENDBRANCH   2  20
TORSDOF 6
ENDMDL
MODEL      260
REMARK 921   NORMALIZED FREE ENERGY PREDICTED BY IDOCK:   -4.62 KCAL/MOL
REMARK 922        TOTAL FREE ENERGY PREDICTED BY IDOCK:   -7.53 KCAL/MOL
REMARK 923 INTER-LIGAND FREE ENERGY PREDICTED BY IDOCK:   -6.61 KCAL/MOL
REMARK 924 INTRA-LIGAND FREE ENERGY PREDICTED BY IDOCK:   -0.92 KCAL/MOL
REMARK 927      BINDING AFFINITY PREDICTED BY RF-SCORE:    0.00 PKD
ROOT
HETATM    1  O   UNL     1      -7.516  12.371  67.696  1.00  0.00    -0.115 OA 
HETATM    2  C   UNL     1      -7.368  12.741  69.081  1.00  0.00     0.140 C  
HETATM    3  H   UNL     1      -8.355  12.700  67.397  1.00  0.00     0.000 HD 
ENDROOT
BRANCH   2   4
HETATM    4  C   UNL     1      -7.468  14.262  69.196  1.00  0.00    -0.067 C  
BRANCH   4   5
HETATM    5  O   UNL     1      -8.841  14.657  69.073  1.00  0.00    -0.166 OA 
BRANCH   5   6
HETATM    6  C   UNL     1      -9.214  15.362  67.962  1.00  0.00    -0.184 A  
HETATM    7  O   UNL     1     -13.235  12.010  64.111  1.00  0.00    -0.712 OA 
HETATM    8  O   UNL     1     -12.762  13.910  62.980  1.00  0.00    -0.634 OA 
HETATM    9  C   UNL     1      -8.814  16.687  67.727  1.00  0.00    -0.206 A  
HETATM   10  C   UNL     1      -9.175  17.352  66.556  1.00  0.00    -0.286 A  
HETATM   11  C   UNL     1     -12.636  13.068  64.031  1.00  0.00    -0.209 C  
HETATM   12  C   UNL     1      -9.944  16.703  65.600  1.00  0.00    -0.197 A  
HETATM   13  O   UNL     1     -11.151  14.845  64.837  1.00  0.00    -0.383 OA 
HETATM   14  C   UNL     1     -11.700  13.600  65.057  1.00  0.00    -0.339 C  
HETATM   15  C   UNL     1     -10.367  15.393  65.825  1.00  0.00    -0.361 A  
HETATM   16  C   UNL     1     -11.454  12.842  66.132  1.00  0.00    -0.399 C  
HETATM   17  C   UNL     1     -10.010  14.713  66.998  1.00  0.00    -0.246 A  
HETATM   18  O   UNL     1     -10.293  12.610  68.126  1.00  0.00    -0.220 OA 
HETATM   19  C   UNL     1     -10.539  13.335  67.176  1.00  0.00    -0.258 C  
ENDBRANCH   5   6
ENDBRANCH   4   5
ENDBRANCH   2   4
BRANCH   2  20
HETATM   20  C   UNL     1      -6.014  12.211  69.565  1.00  0.00    -0.105 C  
BRANCH  20  21
HETATM   21  O   UNL     1      -6.075  10.957  70.213  1.00  0.00    -0.116 OA 
BRANCH  21  22
HETATM   22  C   UNL     1      -6.338   9.826  69.473  1.00  0.00    -0.045 A  
HETATM   23  C   UNL     1      -9.567   7.854  70.327  1.00  0.00    -0.171 C  
HETATM   24  C   UNL     1      -8.716   9.039  70.208  1.00  0.00    -0.184 C  
HETATM   25  C   UNL     1      -7.411   8.902  69.494  1.00  0.00    -0.071 A  
HETATM   26  C   UNL     1      -7.294   7.721  68.724  1.00  0.00    -0.087 A  
HETATM   27  C   UNL     1      -9.298   6.787  69.578  1.00  0.00    -0.146 C  
HETATM   28  C   UNL     1      -6.200   7.501  67.880  1.00  0.00    -0.048 A  
HETATM   29  O   UNL     1      -8.220   6.695  68.724  1.00  0.00    -0.118 OA 
HETATM   30  C   UNL     1      -5.189   8.446  67.800  1.00  0.00    -0.034 A  
HETATM   31  C   UNL     1     -10.272   5.665  69.634  1.00  0.00    -0.251 C  
HETATM   32  O   UNL     1      -9.917   4.640  68.830  1.00  0.00    -0.164 OA 
HETATM   33  C   UNL     1      -5.250   9.579  68.608  1.00  0.00    -0.033 A  
HETATM   34  O   UNL     1      -9.194  10.082  70.629  1.00  0.00     0.053 OA 
HETATM   35  O   UNL     1     -11.285   5.661  70.314  1.00  0.00    -0.243 OA 
ENDBRANCH  21  22
ENDBRANCH  20  21
ENDBRANCH   2  20
TORSDOF 6
ENDMDL
MODEL      261
REMARK 921   NORMALIZED FREE ENERGY PREDICTED BY IDOCK:   -4.60 KCAL/MOL
REMARK 922        TOTAL FREE ENERGY PREDICTED BY IDOCK:   -7.51 KCAL/MOL
REMARK 923 INTER-LIGAND FREE ENERGY PREDICTED BY IDOCK:   -6.36 KCAL/MOL
REMARK 924 INTRA-LIGAND FREE ENERGY PREDICTED BY IDOCK:   -1.15 KCAL/MOL
REMARK 927      BINDING AFFINITY PREDICTED BY RF-SCORE:    0.00 PKD
ROOT
HETATM    1  O   UNL     1      -9.920   5.115  72.773  1.00  0.00    -0.156 OA 
HETATM    2  C   UNL     1      -9.433   5.324  71.433  1.00  0.00    -0.151 C  
HETATM    3  H   UNL     1     -10.266   5.942  73.088  1.00  0.00     0.000 HD 
ENDROOT
BRANCH   2   4
HETATM    4  C   UNL     1     -10.585   5.836  70.568  1.00  0.00    -0.289 C  
BRANCH   4   5
HETATM    5  O   UNL     1     -10.200   7.071  69.951  1.00  0.00    -0.194 OA 
BRANCH   5   6
HETATM    6  C   UNL     1     -10.947   8.186  70.215  1.00  0.00    -0.240 A  
HETATM    7  O   UNL     1     -11.098  12.333  65.213  1.00  0.00    -0.298 OA 
HETATM    8  O   UNL     1     -12.154  13.394  66.908  1.00  0.00    -0.388 OA 
HETATM    9  C   UNL     1     -11.648   8.370  71.417  1.00  0.00    -0.332 A  
HETATM   10  C   UNL     1     -12.356   9.545  71.666  1.00  0.00    -0.480 A  
HETATM   11  C   UNL     1     -11.472  12.356  66.372  1.00  0.00    -0.373 C  
HETATM   12  C   UNL     1     -12.374  10.557  70.717  1.00  0.00    -0.474 A  
HETATM   13  O   UNL     1     -11.800  11.428  68.619  1.00  0.00    -0.362 OA 
HETATM   14  C   UNL     1     -11.257  11.267  67.361  1.00  0.00    -0.303 C  
HETATM   15  C   UNL     1     -11.699  10.385  69.509  1.00  0.00    -0.188 A  
HETATM   16  C   UNL     1     -10.556  10.196  66.970  1.00  0.00    -0.290 C  
HETATM   17  C   UNL     1     -10.983   9.209  69.246  1.00  0.00    -0.081 A  
HETATM   18  O   UNL     1      -9.647   8.143  67.555  1.00  0.00    -0.148 OA 
HETATM   19  C   UNL     1     -10.327   9.091  67.917  1.00  0.00    -0.235 C  
ENDBRANCH   5   6
ENDBRANCH   4   5
ENDBRANCH   2   4
BRANCH   2  20
HETATM   20  C   UNL     1      -8.876   3.989  70.925  1.00  0.00    -0.087 C  
BRANCH  20  21
HETATM   21  O   UNL     1      -7.569   4.067  70.394  1.00  0.00    -0.044 OA 
BRANCH  21  22
HETATM   22  C   UNL     1      -7.314   4.925  69.349  1.00  0.00    -0.056 A  
HETATM   23  C   UNL     1      -8.949   4.097  65.930  1.00  0.00    -0.126 C  
HETATM   24  C   UNL     1      -8.843   4.124  67.391  1.00  0.00    -0.116 C  
HETATM   25  C   UNL     1      -7.755   4.944  68.003  1.00  0.00    -0.083 A  
HETATM   26  C   UNL     1      -7.155   5.867  67.114  1.00  0.00    -0.070 A  
HETATM   27  C   UNL     1      -8.275   4.996  65.216  1.00  0.00    -0.123 C  
HETATM   28  C   UNL     1      -6.222   6.812  67.557  1.00  0.00    -0.040 A  
HETATM   29  O   UNL     1      -7.422   5.932  65.760  1.00  0.00    -0.078 OA 
HETATM   30  C   UNL     1      -5.852   6.842  68.892  1.00  0.00    -0.019 A  
HETATM   31  C   UNL     1      -8.527   5.014  63.751  1.00  0.00    -0.128 C  
HETATM   32  O   UNL     1      -7.809   5.967  63.121  1.00  0.00    -0.089 OA 
HETATM   33  C   UNL     1      -6.375   5.893  69.766  1.00  0.00    -0.037 A  
HETATM   34  O   UNL     1      -9.724   3.537  67.999  1.00  0.00    -0.147 OA 
HETATM   35  O   UNL     1      -9.299   4.267  63.171  1.00  0.00    -0.139 OA 
ENDBRANCH  21  22
ENDBRANCH  20  21
ENDBRANCH   2  20
TORSDOF 6
ENDMDL
MODEL      262
REMARK 921   NORMALIZED FREE ENERGY PREDICTED BY IDOCK:   -4.53 KCAL/MOL
REMARK 922        TOTAL FREE ENERGY PREDICTED BY IDOCK:   -7.41 KCAL/MOL
REMARK 923 INTER-LIGAND FREE ENERGY PREDICTED BY IDOCK:   -5.20 KCAL/MOL
REMARK 924 INTRA-LIGAND FREE ENERGY PREDICTED BY IDOCK:   -2.21 KCAL/MOL
REMARK 927      BINDING AFFINITY PREDICTED BY RF-SCORE:    0.00 PKD
ROOT
HETATM    1  O   UNL     1      -9.907   7.359  73.563  1.00  0.00    -0.259 OA 
HETATM    2  C   UNL     1     -10.134   7.628  72.166  1.00  0.00    -0.196 C  
HETATM    3  H   UNL     1     -10.734   7.085  73.943  1.00  0.00     0.000 HD 
ENDROOT
BRANCH   2   4
HETATM    4  C   UNL     1     -10.684   6.364  71.506  1.00  0.00    -0.238 C  
BRANCH   4   5
HETATM    5  O   UNL     1      -9.694   5.822  70.623  1.00  0.00    -0.169 OA 
BRANCH   5   6
HETATM    6  C   UNL     1     -10.019   5.670  69.303  1.00  0.00    -0.189 A  
HETATM    7  O   UNL     1      -6.107   1.486  66.232  1.00  0.00    -0.018 OA 
HETATM    8  O   UNL     1      -7.427   2.370  64.622  1.00  0.00    -0.061 OA 
HETATM    9  C   UNL     1     -11.119   6.308  68.708  1.00  0.00    -0.424 A  
HETATM   10  C   UNL     1     -11.385   6.167  67.346  1.00  0.00     0.075 A  
HETATM   11  C   UNL     1      -6.985   2.261  65.896  1.00  0.00    -0.044 C  
HETATM   12  C   UNL     1     -10.554   5.385  66.556  1.00  0.00    -0.353 A  
HETATM   13  O   UNL     1      -8.722   3.951  66.279  1.00  0.00    -0.110 OA 
HETATM   14  C   UNL     1      -7.710   3.181  66.813  1.00  0.00    -0.076 C  
HETATM   15  C   UNL     1      -9.467   4.728  67.133  1.00  0.00    -0.149 A  
HETATM   16  C   UNL     1      -7.340   3.202  68.099  1.00  0.00    -0.050 C  
HETATM   17  C   UNL     1      -9.189   4.862  68.501  1.00  0.00    -0.157 A  
HETATM   18  O   UNL     1      -7.655   4.131  70.201  1.00  0.00    -0.045 OA 
HETATM   19  C   UNL     1      -8.037   4.094  69.041  1.00  0.00    -0.070 C  
ENDBRANCH   5   6
ENDBRANCH   4   5
ENDBRANCH   2   4
BRANCH   2  20
HETATM   20  C   UNL     1      -8.799   8.069  71.553  1.00  0.00    -0.143 C  
BRANCH  20  21
HETATM   21  O   UNL     1      -8.841   9.323  70.903  1.00  0.00    -0.222 OA 
BRANCH  21  22
HETATM   22  C   UNL     1      -9.475   9.432  69.686  1.00  0.00    -0.189 A  
HETATM   23  C   UNL     1      -7.485   8.341  66.540  1.00  0.00    -0.081 C  
HETATM   24  C   UNL     1      -7.871   8.321  67.953  1.00  0.00    -0.114 C  
HETATM   25  C   UNL     1      -9.069   9.110  68.368  1.00  0.00    -0.132 A  
HETATM   26  C   UNL     1      -9.891   9.523  67.293  1.00  0.00    -0.177 A  
HETATM   27  C   UNL     1      -8.344   8.818  65.642  1.00  0.00    -0.138 C  
HETATM   28  C   UNL     1     -11.126  10.145  67.511  1.00  0.00    -0.251 A  
HETATM   29  O   UNL     1      -9.573   9.358  65.959  1.00  0.00    -0.220 OA 
HETATM   30  C   UNL     1     -11.557  10.387  68.805  1.00  0.00    -0.188 A  
HETATM   31  C   UNL     1      -7.960   8.688  64.212  1.00  0.00    -0.148 C  
HETATM   32  O   UNL     1      -8.902   9.187  63.383  1.00  0.00    -0.186 OA 
HETATM   33  C   UNL     1     -10.728  10.056  69.874  1.00  0.00    -0.328 A  
HETATM   34  O   UNL     1      -7.224   7.572  68.670  1.00  0.00    -0.081 OA 
HETATM   35  O   UNL     1      -6.923   8.181  63.816  1.00  0.00    -0.073 OA 
ENDBRANCH  21  22
ENDBRANCH  20  21
ENDBRANCH   2  20
TORSDOF 6
ENDMDL
MODEL      263
REMARK 921   NORMALIZED FREE ENERGY PREDICTED BY IDOCK:   -4.50 KCAL/MOL
REMARK 922        TOTAL FREE ENERGY PREDICTED BY IDOCK:   -7.37 KCAL/MOL
REMARK 923 INTER-LIGAND FREE ENERGY PREDICTED BY IDOCK:   -6.58 KCAL/MOL
REMARK 924 INTRA-LIGAND FREE ENERGY PREDICTED BY IDOCK:   -0.79 KCAL/MOL
REMARK 927      BINDING AFFINITY PREDICTED BY RF-SCORE:    0.00 PKD
ROOT
HETATM    1  O   UNL     1      -6.520  12.651  70.447  1.00  0.00    -0.437 OA 
HETATM    2  C   UNL     1      -6.851  12.007  69.201  1.00  0.00    -0.090 C  
HETATM    3  H   UNL     1      -6.037  13.444  70.244  1.00  0.00     0.000 HD 
ENDROOT
BRANCH   2   4
HETATM    4  C   UNL     1      -7.666  12.980  68.349  1.00  0.00    -0.137 C  
BRANCH   4   5
HETATM    5  O   UNL     1      -7.907  14.178  69.098  1.00  0.00    -0.063 OA 
BRANCH   5   6
HETATM    6  C   UNL     1      -8.963  14.967  68.734  1.00  0.00    -0.188 A  
HETATM    7  O   UNL     1      -7.195  21.099  67.504  1.00  0.00    -0.402 OA 
HETATM    8  O   UNL     1      -9.453  21.088  67.388  1.00  0.00    -0.358 OA 
HETATM    9  C   UNL     1     -10.270  14.475  68.586  1.00  0.00    -0.243 A  
HETATM   10  C   UNL     1     -11.328  15.324  68.262  1.00  0.00    -0.344 A  
HETATM   11  C   UNL     1      -8.252  20.504  67.606  1.00  0.00    -0.190 C  
HETATM   12  C   UNL     1     -11.096  16.681  68.082  1.00  0.00    -0.285 A  
HETATM   13  O   UNL     1      -9.666  18.533  67.978  1.00  0.00    -0.301 OA 
HETATM   14  C   UNL     1      -8.394  19.067  67.966  1.00  0.00    -0.301 C  
HETATM   15  C   UNL     1      -9.802  17.185  68.206  1.00  0.00    -0.288 A  
HETATM   16  C   UNL     1      -7.281  18.381  68.249  1.00  0.00    -0.274 C  
HETATM   17  C   UNL     1      -8.730  16.342  68.532  1.00  0.00    -0.211 A  
HETATM   18  O   UNL     1      -6.355  16.357  68.901  1.00  0.00    -0.136 OA 
HETATM   19  C   UNL     1      -7.377  16.954  68.602  1.00  0.00    -0.222 C  
ENDBRANCH   5   6
ENDBRANCH   4   5
ENDBRANCH   2   4
BRANCH   2  20
HETATM   20  C   UNL     1      -7.631  10.729  69.529  1.00  0.00    -0.088 C  
BRANCH  20  21
HETATM   21  O   UNL     1      -8.663  10.423  68.613  1.00  0.00    -0.124 OA 
BRANCH  21  22
HETATM   22  C   UNL     1      -8.612   9.244  67.906  1.00  0.00    -0.120 A  
HETATM   23  C   UNL     1      -9.607   5.999  69.784  1.00  0.00    -0.180 C  
HETATM   24  C   UNL     1      -9.635   7.432  69.481  1.00  0.00    -0.155 C  
HETATM   25  C   UNL     1      -8.922   7.908  68.257  1.00  0.00    -0.132 A  
HETATM   26  C   UNL     1      -8.579   6.878  67.350  1.00  0.00    -0.121 A  
HETATM   27  C   UNL     1      -9.200   5.148  68.845  1.00  0.00    -0.118 C  
HETATM   28  C   UNL     1      -8.038   7.161  66.091  1.00  0.00    -0.121 A  
HETATM   29  O   UNL     1      -8.739   5.529  67.603  1.00  0.00    -0.109 OA 
HETATM   30  C   UNL     1      -7.809   8.476  65.717  1.00  0.00    -0.100 A  
HETATM   31  C   UNL     1      -9.322   3.699  69.156  1.00  0.00    -0.174 C  
HETATM   32  O   UNL     1      -8.897   2.921  68.137  1.00  0.00    -0.099 OA 
HETATM   33  C   UNL     1      -8.071   9.498  66.626  1.00  0.00    -0.108 A  
HETATM   34  O   UNL     1     -10.330   8.117  70.216  1.00  0.00    -0.201 OA 
HETATM   35  O   UNL     1      -9.763   3.249  70.201  1.00  0.00    -0.154 OA 
ENDBRANCH  21  22
ENDBRANCH  20  21
ENDBRANCH   2  20
TORSDOF 6
ENDMDL
MODEL      264
REMARK 921   NORMALIZED FREE ENERGY PREDICTED BY IDOCK:   -4.49 KCAL/MOL
REMARK 922        TOTAL FREE ENERGY PREDICTED BY IDOCK:   -7.36 KCAL/MOL
REMARK 923 INTER-LIGAND FREE ENERGY PREDICTED BY IDOCK:   -4.57 KCAL/MOL
REMARK 924 INTRA-LIGAND FREE ENERGY PREDICTED BY IDOCK:   -2.79 KCAL/MOL
REMARK 927      BINDING AFFINITY PREDICTED BY RF-SCORE:    0.00 PKD
ROOT
HETATM    1  O   UNL     1      -9.632   9.827  62.792  1.00  0.00    -0.540 OA 
HETATM    2  C   UNL     1      -8.969   9.494  64.027  1.00  0.00    -0.188 C  
HETATM    3  H   UNL     1     -10.394  10.354  63.005  1.00  0.00     0.000 HD 
ENDROOT
BRANCH   2   4
HETATM    4  C   UNL     1      -8.595  10.789  64.747  1.00  0.00    -0.075 C  
BRANCH   4   5
HETATM    5  O   UNL     1      -9.306  10.864  65.989  1.00  0.00    -0.177 OA 
BRANCH   5   6
HETATM    6  C   UNL     1      -8.588  10.795  67.151  1.00  0.00    -0.128 A  
HETATM    7  O   UNL     1     -10.610   6.011  71.057  1.00  0.00    -0.225 OA 
HETATM    8  O   UNL     1      -9.059   7.146  72.248  1.00  0.00    -0.132 OA 
HETATM    9  C   UNL     1      -7.496  11.633  67.425  1.00  0.00    -0.135 A  
HETATM   10  C   UNL     1      -6.822  11.563  68.645  1.00  0.00    -0.077 A  
HETATM   11  C   UNL     1      -9.827   6.938  71.153  1.00  0.00    -0.177 C  
HETATM   12  C   UNL     1      -7.231  10.654  69.610  1.00  0.00    -0.139 A  
HETATM   13  O   UNL     1      -8.612   8.912  70.351  1.00  0.00    -0.146 OA 
HETATM   14  C   UNL     1      -9.580   7.962  70.103  1.00  0.00    -0.175 C  
HETATM   15  C   UNL     1      -8.302   9.800  69.348  1.00  0.00    -0.152 A  
HETATM   16  C   UNL     1     -10.308   7.895  68.982  1.00  0.00    -0.223 C  
HETATM   17  C   UNL     1      -8.987   9.860  68.126  1.00  0.00    -0.118 A  
HETATM   18  O   UNL     1     -10.794   8.834  66.917  1.00  0.00    -0.171 OA 
HETATM   19  C   UNL     1     -10.089   8.885  67.913  1.00  0.00    -0.206 C  
ENDBRANCH   5   6
ENDBRANCH   4   5
ENDBRANCH   2   4
BRANCH   2  20
HETATM   20  C   UNL     1      -7.740   8.645  63.683  1.00  0.00    -0.136 C  
BRANCH  20  21
HETATM   21  O   UNL     1      -7.762   7.340  64.225  1.00  0.00    -0.112 OA 
BRANCH  21  22
HETATM   22  C   UNL     1      -7.243   7.120  65.480  1.00  0.00    -0.070 A  
HETATM   23  C   UNL     1      -8.855   4.302  67.603  1.00  0.00    -0.124 C  
HETATM   24  C   UNL     1      -8.438   4.978  66.372  1.00  0.00    -0.111 C  
HETATM   25  C   UNL     1      -7.561   6.182  66.492  1.00  0.00    -0.094 A  
HETATM   26  C   UNL     1      -6.962   6.337  67.764  1.00  0.00    -0.075 A  
HETATM   27  C   UNL     1      -8.237   4.597  68.744  1.00  0.00    -0.082 C  
HETATM   28  C   UNL     1      -6.002   7.327  68.006  1.00  0.00    -0.034 A  
HETATM   29  O   UNL     1      -7.251   5.553  68.864  1.00  0.00    -0.063 OA 
HETATM   30  C   UNL     1      -5.633   8.194  66.990  1.00  0.00    -0.037 A  
HETATM   31  C   UNL     1      -8.603   3.784  69.934  1.00  0.00    -0.061 C  
HETATM   32  O   UNL     1      -7.913   4.150  71.034  1.00  0.00    -0.068 OA 
HETATM   33  C   UNL     1      -6.267   8.103  65.754  1.00  0.00    -0.045 A  
HETATM   34  O   UNL     1      -8.771   4.437  65.329  1.00  0.00    -0.120 OA 
HETATM   35  O   UNL     1      -9.423   2.880  69.930  1.00  0.00    -0.150 OA 
ENDBRANCH  21  22
ENDBRANCH  20  21
ENDBRANCH   2  20
TORSDOF 6
ENDMDL
MODEL      265
REMARK 921   NORMALIZED FREE ENERGY PREDICTED BY IDOCK:   -4.47 KCAL/MOL
REMARK 922        TOTAL FREE ENERGY PREDICTED BY IDOCK:   -7.33 KCAL/MOL
REMARK 923 INTER-LIGAND FREE ENERGY PREDICTED BY IDOCK:   -7.22 KCAL/MOL
REMARK 924 INTRA-LIGAND FREE ENERGY PREDICTED BY IDOCK:   -0.11 KCAL/MOL
REMARK 927      BINDING AFFINITY PREDICTED BY RF-SCORE:    0.00 PKD
ROOT
HETATM    1  O   UNL     1     -11.833   9.557  68.711  1.00  0.00    -0.032 OA 
HETATM    2  C   UNL     1     -11.309  10.454  69.710  1.00  0.00    -0.289 C  
HETATM    3  H   UNL     1     -12.345  10.072  68.099  1.00  0.00     0.000 HD 
ENDROOT
BRANCH   2   4
HETATM    4  C   UNL     1     -10.471  11.526  69.014  1.00  0.00    -0.145 C  
BRANCH   4   5
HETATM    5  O   UNL     1     -11.343  12.490  68.410  1.00  0.00    -0.247 OA 
BRANCH   5   6
HETATM    6  C   UNL     1     -11.585  13.655  69.084  1.00  0.00    -0.309 A  
HETATM    7  O   UNL     1      -9.340  18.876  65.931  1.00  0.00    -0.454 OA 
HETATM    8  O   UNL     1     -10.069  19.645  67.928  1.00  0.00    -0.371 OA 
HETATM    9  C   UNL     1     -12.296  13.706  70.293  1.00  0.00    -0.392 A  
HETATM   10  C   UNL     1     -12.476  14.910  70.974  1.00  0.00    -0.396 A  
HETATM   11  C   UNL     1      -9.818  18.665  67.031  1.00  0.00    -0.327 C  
HETATM   12  C   UNL     1     -11.946  16.083  70.457  1.00  0.00    -0.268 A  
HETATM   13  O   UNL     1     -10.793  17.271  68.799  1.00  0.00    -0.285 OA 
HETATM   14  C   UNL     1     -10.207  17.327  67.551  1.00  0.00    -0.328 C  
HETATM   15  C   UNL     1     -11.252  16.056  69.247  1.00  0.00    -0.346 A  
HETATM   16  C   UNL     1      -9.972  16.262  66.776  1.00  0.00    -0.268 C  
HETATM   17  C   UNL     1     -11.065  14.852  68.554  1.00  0.00    -0.275 A  
HETATM   18  O   UNL     1     -10.086  13.956  66.549  1.00  0.00    -0.271 OA 
HETATM   19  C   UNL     1     -10.350  14.920  67.251  1.00  0.00    -0.251 C  
ENDBRANCH   5   6
ENDBRANCH   4   5
ENDBRANCH   2   4
BRANCH   2  20
HETATM   20  C   UNL     1     -10.483   9.622  70.697  1.00  0.00    -0.312 C  
BRANCH  20  21
HETATM   21  O   UNL     1     -10.891   8.274  70.810  1.00  0.00    -0.219 OA 
BRANCH  21  22
HETATM   22  C   UNL     1      -9.939   7.285  70.911  1.00  0.00    -0.185 A  
HETATM   23  C   UNL     1      -7.380   6.980  68.013  1.00  0.00    -0.097 C  
HETATM   24  C   UNL     1      -8.308   7.670  68.910  1.00  0.00    -0.129 C  
HETATM   25  C   UNL     1      -8.861   6.912  70.072  1.00  0.00    -0.142 A  
HETATM   26  C   UNL     1      -8.167   5.714  70.364  1.00  0.00    -0.105 A  
HETATM   27  C   UNL     1      -6.849   5.821  68.398  1.00  0.00    -0.063 C  
HETATM   28  C   UNL     1      -8.460   4.956  71.504  1.00  0.00    -0.124 A  
HETATM   29  O   UNL     1      -7.160   5.184  69.581  1.00  0.00    -0.052 OA 
HETATM   30  C   UNL     1      -9.463   5.367  72.367  1.00  0.00    -0.162 A  
HETATM   31  C   UNL     1      -5.809   5.233  67.513  1.00  0.00    -0.018 C  
HETATM   32  O   UNL     1      -5.324   4.070  67.998  1.00  0.00    -0.011 OA 
HETATM   33  C   UNL     1     -10.206   6.503  72.056  1.00  0.00    -0.212 A  
HETATM   34  O   UNL     1      -8.484   8.857  68.682  1.00  0.00    -0.126 OA 
HETATM   35  O   UNL     1      -5.419   5.736  66.472  1.00  0.00    -0.012 OA 
ENDBRANCH  21  22
ENDBRANCH  20  21
ENDBRANCH   2  20
TORSDOF 6
ENDMDL
MODEL      266
REMARK 921   NORMALIZED FREE ENERGY PREDICTED BY IDOCK:   -4.46 KCAL/MOL
REMARK 922        TOTAL FREE ENERGY PREDICTED BY IDOCK:   -7.32 KCAL/MOL
REMARK 923 INTER-LIGAND FREE ENERGY PREDICTED BY IDOCK:   -6.47 KCAL/MOL
REMARK 924 INTRA-LIGAND FREE ENERGY PREDICTED BY IDOCK:   -0.86 KCAL/MOL
REMARK 927      BINDING AFFINITY PREDICTED BY RF-SCORE:    0.00 PKD
ROOT
HETATM    1  O   UNL     1      -5.257  19.267  65.256  1.00  0.00    -0.151 OA 
HETATM    2  C   UNL     1      -6.354  18.870  66.103  1.00  0.00    -0.193 C  
HETATM    3  H   UNL     1      -4.841  20.022  65.657  1.00  0.00     0.000 HD 
ENDROOT
BRANCH   2   4
HETATM    4  C   UNL     1      -5.808  18.558  67.496  1.00  0.00    -0.163 C  
BRANCH   4   5
HETATM    5  O   UNL     1      -6.652  19.168  68.482  1.00  0.00    -0.240 OA 
BRANCH   5   6
HETATM    6  C   UNL     1      -7.981  19.317  68.193  1.00  0.00    -0.308 A  
HETATM    7  O   UNL     1     -11.594  14.415  70.464  1.00  0.00    -0.271 OA 
HETATM    8  O   UNL     1     -13.006  15.690  69.242  1.00  0.00     0.402 OA 
HETATM    9  C   UNL     1      -8.498  20.442  67.533  1.00  0.00    -0.349 A  
HETATM   10  C   UNL     1      -9.853  20.530  67.213  1.00  0.00    -0.581 A  
HETATM   11  C   UNL     1     -11.789  15.376  69.741  1.00  0.00    -0.347 C  
HETATM   12  C   UNL     1     -10.712  19.493  67.547  1.00  0.00    -0.565 A  
HETATM   13  O   UNL     1     -11.151  17.416  68.538  1.00  0.00    -0.184 OA 
HETATM   14  C   UNL     1     -10.748  16.347  69.310  1.00  0.00    -0.325 C  
HETATM   15  C   UNL     1     -10.220  18.376  68.221  1.00  0.00    -0.384 A  
HETATM   16  C   UNL     1      -9.488  16.127  69.702  1.00  0.00    -0.009 C  
HETATM   17  C   UNL     1      -8.860  18.275  68.548  1.00  0.00    -0.322 A  
HETATM   18  O   UNL     1      -7.277  16.827  69.632  1.00  0.00    -0.090 OA 
HETATM   19  C   UNL     1      -8.428  17.069  69.303  1.00  0.00     0.114 C  
ENDBRANCH   5   6
ENDBRANCH   4   5
ENDBRANCH   2   4
BRANCH   2  20
HETATM   20  C   UNL     1      -7.025  17.652  65.457  1.00  0.00     0.276 C  
BRANCH  20  21
HETATM   21  O   UNL     1      -7.062  16.502  66.277  1.00  0.00    -0.108 OA 
BRANCH  21  22
HETATM   22  C   UNL     1      -8.214  15.753  66.339  1.00  0.00    -0.171 A  
HETATM   23  C   UNL     1      -8.015  12.329  68.152  1.00  0.00    -0.155 C  
HETATM   24  C   UNL     1      -7.654  13.723  67.881  1.00  0.00    -0.156 C  
HETATM   25  C   UNL     1      -8.505  14.499  66.930  1.00  0.00    -0.179 A  
HETATM   26  C   UNL     1      -9.757  13.901  66.652  1.00  0.00    -0.289 A  
HETATM   27  C   UNL     1      -9.213  11.887  67.776  1.00  0.00    -0.184 C  
HETATM   28  C   UNL     1     -10.734  14.560  65.898  1.00  0.00    -0.308 A  
HETATM   29  O   UNL     1     -10.134  12.644  67.085  1.00  0.00    -0.220 OA 
HETATM   30  C   UNL     1     -10.476  15.823  65.388  1.00  0.00    -0.438 A  
HETATM   31  C   UNL     1      -9.581  10.510  68.198  1.00  0.00    -0.154 C  
HETATM   32  O   UNL     1     -10.817  10.161  67.781  1.00  0.00    -0.259 OA 
HETATM   33  C   UNL     1      -9.222  16.395  65.587  1.00  0.00     0.060 A  
HETATM   34  O   UNL     1      -6.726  14.169  68.538  1.00  0.00    -0.087 OA 
HETATM   35  O   UNL     1      -8.865   9.771  68.855  1.00  0.00    -0.129 OA 
ENDBRANCH  21  22
ENDBRANCH  20  21
ENDBRANCH   2  20
TORSDOF 6
ENDMDL
MODEL      267
REMARK 921   NORMALIZED FREE ENERGY PREDICTED BY IDOCK:   -4.37 KCAL/MOL
REMARK 922        TOTAL FREE ENERGY PREDICTED BY IDOCK:   -7.20 KCAL/MOL
REMARK 923 INTER-LIGAND FREE ENERGY PREDICTED BY IDOCK:   -6.94 KCAL/MOL
REMARK 924 INTRA-LIGAND FREE ENERGY PREDICTED BY IDOCK:   -0.27 KCAL/MOL
REMARK 927      BINDING AFFINITY PREDICTED BY RF-SCORE:    0.00 PKD
ROOT
HETATM    1  O   UNL     1     -11.315  11.044  66.776  1.00  0.00    -0.317 OA 
HETATM    2  C   UNL     1     -10.187  10.957  67.668  1.00  0.00    -0.183 C  
HETATM    3  H   UNL     1     -11.671  11.922  66.843  1.00  0.00     0.000 HD 
ENDROOT
BRANCH   2   4
HETATM    4  C   UNL     1      -9.169  12.027  67.275  1.00  0.00    -0.182 C  
BRANCH   4   5
HETATM    5  O   UNL     1      -8.987  12.934  68.370  1.00  0.00    -0.187 OA 
BRANCH   5   6
HETATM    6  C   UNL     1      -9.943  13.887  68.585  1.00  0.00    -0.189 A  
HETATM    7  O   UNL     1      -8.283  19.682  66.156  1.00  0.00    -0.335 OA 
HETATM    8  O   UNL     1     -10.207  20.033  67.290  1.00  0.00    -0.406 OA 
HETATM    9  C   UNL     1     -11.171  13.613  69.209  1.00  0.00    -0.284 A  
HETATM   10  C   UNL     1     -12.097  14.625  69.455  1.00  0.00    -0.317 A  
HETATM   11  C   UNL     1      -9.183  19.261  66.860  1.00  0.00    -0.311 C  
HETATM   12  C   UNL     1     -11.811  15.931  69.081  1.00  0.00    -0.340 A  
HETATM   13  O   UNL     1     -10.425  17.534  68.082  1.00  0.00    -0.357 OA 
HETATM   14  C   UNL     1      -9.308  17.859  67.341  1.00  0.00    -0.257 C  
HETATM   15  C   UNL     1     -10.605  16.220  68.443  1.00  0.00    -0.301 A  
HETATM   16  C   UNL     1      -8.335  16.999  67.019  1.00  0.00    -0.229 C  
HETATM   17  C   UNL     1      -9.665  15.211  68.191  1.00  0.00    -0.217 A  
HETATM   18  O   UNL     1      -7.505  14.841  67.204  1.00  0.00    -0.179 OA 
HETATM   19  C   UNL     1      -8.425  15.599  67.469  1.00  0.00    -0.167 C  
ENDBRANCH   5   6
ENDBRANCH   4   5
ENDBRANCH   2   4
BRANCH   2  20
HETATM   20  C   UNL     1      -9.612   9.541  67.559  1.00  0.00    -0.144 C  
BRANCH  20  21
HETATM   21  O   UNL     1     -10.530   8.512  67.871  1.00  0.00    -0.224 OA 
BRANCH  21  22
HETATM   22  C   UNL     1     -10.133   7.477  68.687  1.00  0.00    -0.184 A  
HETATM   23  C   UNL     1      -8.504   4.395  66.986  1.00  0.00    -0.104 C  
HETATM   24  C   UNL     1      -8.855   5.809  67.139  1.00  0.00    -0.107 C  
HETATM   25  C   UNL     1      -9.497   6.242  68.417  1.00  0.00    -0.118 A  
HETATM   26  C   UNL     1      -9.391   5.298  69.466  1.00  0.00    -0.130 A  
HETATM   27  C   UNL     1      -8.507   3.608  68.060  1.00  0.00    -0.093 C  
HETATM   28  C   UNL     1      -9.809   5.599  70.768  1.00  0.00    -0.239 A  
HETATM   29  O   UNL     1      -8.880   4.023  69.321  1.00  0.00    -0.082 OA 
HETATM   30  C   UNL     1     -10.358   6.840  71.046  1.00  0.00    -0.228 A  
HETATM   31  C   UNL     1      -8.010   2.220  67.874  1.00  0.00    -0.059 C  
HETATM   32  O   UNL     1      -8.040   1.509  69.022  1.00  0.00    -0.045 OA 
HETATM   33  C   UNL     1     -10.539   7.754  70.011  1.00  0.00    -0.238 A  
HETATM   34  O   UNL     1      -8.503   6.546  66.231  1.00  0.00    -0.118 OA 
HETATM   35  O   UNL     1      -7.609   1.763  66.816  1.00  0.00    -0.062 OA 
ENDBRANCH  21  22
ENDBRANCH  20  21
ENDBRANCH   2  20
TORSDOF 6
ENDMDL
MODEL      268
REMARK 921   NORMALIZED FREE ENERGY PREDICTED BY IDOCK:   -4.37 KCAL/MOL
REMARK 922        TOTAL FREE ENERGY PREDICTED BY IDOCK:   -7.20 KCAL/MOL
REMARK 923 INTER-LIGAND FREE ENERGY PREDICTED BY IDOCK:   -7.55 KCAL/MOL
REMARK 924 INTRA-LIGAND FREE ENERGY PREDICTED BY IDOCK:    0.35 KCAL/MOL
REMARK 927      BINDING AFFINITY PREDICTED BY RF-SCORE:    0.00 PKD
ROOT
HETATM    1  O   UNL     1     -11.088  11.537  68.586  1.00  0.00    -0.203 OA 
HETATM    2  C   UNL     1      -9.692  11.190  68.513  1.00  0.00    -0.196 C  
HETATM    3  H   UNL     1     -11.174  12.266  69.188  1.00  0.00     0.000 HD 
ENDROOT
BRANCH   2   4
HETATM    4  C   UNL     1      -8.906  12.417  68.052  1.00  0.00    -0.187 C  
BRANCH   4   5
HETATM    5  O   UNL     1      -8.853  12.435  66.620  1.00  0.00    -0.208 OA 
BRANCH   5   6
HETATM    6  C   UNL     1      -9.790  13.170  65.948  1.00  0.00    -0.233 A  
HETATM    7  O   UNL     1      -8.836  19.572  66.542  1.00  0.00    -0.324 OA 
HETATM    8  O   UNL     1     -10.800  19.354  65.442  1.00  0.00    -0.452 OA 
HETATM    9  C   UNL     1     -10.804  12.590  65.169  1.00  0.00    -0.323 A  
HETATM   10  C   UNL     1     -11.770  13.376  64.541  1.00  0.00    -0.422 A  
HETATM   11  C   UNL     1      -9.712  18.863  66.078  1.00  0.00    -0.162 C  
HETATM   12  C   UNL     1     -11.740  14.756  64.683  1.00  0.00    -0.426 A  
HETATM   13  O   UNL     1     -10.763  16.725  65.495  1.00  0.00    -0.423 OA 
HETATM   14  C   UNL     1      -9.722  17.377  66.123  1.00  0.00    -0.217 C  
HETATM   15  C   UNL     1     -10.729  15.352  65.438  1.00  0.00    -0.400 A  
HETATM   16  C   UNL     1      -8.719  16.764  66.763  1.00  0.00    -0.260 C  
HETATM   17  C   UNL     1      -9.752  14.573  66.074  1.00  0.00    -0.331 A  
HETATM   18  O   UNL     1      -7.790  14.753  67.450  1.00  0.00    -0.173 OA 
HETATM   19  C   UNL     1      -8.688  15.292  66.823  1.00  0.00    -0.270 C  
ENDBRANCH   5   6
ENDBRANCH   4   5
ENDBRANCH   2   4
BRANCH   2  20
HETATM   20  C   UNL     1      -9.553  10.013  67.541  1.00  0.00    -0.153 C  
BRANCH  20  21
HETATM   21  O   UNL     1      -8.788   8.933  68.037  1.00  0.00    -0.133 OA 
BRANCH  21  22
HETATM   22  C   UNL     1      -9.311   8.133  69.028  1.00  0.00    -0.147 A  
HETATM   23  C   UNL     1      -7.109   7.511  72.159  1.00  0.00    -0.067 C  
HETATM   24  C   UNL     1      -7.613   8.259  71.006  1.00  0.00    -0.081 C  
HETATM   25  C   UNL     1      -8.809   7.725  70.287  1.00  0.00    -0.144 A  
HETATM   26  C   UNL     1      -9.520   6.733  71.004  1.00  0.00    -0.164 A  
HETATM   27  C   UNL     1      -7.868   6.558  72.694  1.00  0.00    -0.103 C  
HETATM   28  C   UNL     1     -10.741   6.230  70.543  1.00  0.00    -0.327 A  
HETATM   29  O   UNL     1      -9.096   6.178  72.196  1.00  0.00    -0.142 OA 
HETATM   30  C   UNL     1     -11.271   6.690  69.348  1.00  0.00    -0.356 A  
HETATM   31  C   UNL     1      -7.370   5.927  73.945  1.00  0.00    -0.092 C  
HETATM   32  O   UNL     1      -8.216   4.985  74.414  1.00  0.00    -0.102 OA 
HETATM   33  C   UNL     1     -10.549   7.611  68.593  1.00  0.00    -0.161 A  
HETATM   34  O   UNL     1      -7.061   9.325  70.781  1.00  0.00    -0.096 OA 
HETATM   35  O   UNL     1      -6.325   6.221  74.501  1.00  0.00    -0.072 OA 
ENDBRANCH  21  22
ENDBRANCH  20  21
ENDBRANCH   2  20
TORSDOF 6
ENDMDL
MODEL      269
REMARK 921   NORMALIZED FREE ENERGY PREDICTED BY IDOCK:   -4.36 KCAL/MOL
REMARK 922        TOTAL FREE ENERGY PREDICTED BY IDOCK:   -7.19 KCAL/MOL
REMARK 923 INTER-LIGAND FREE ENERGY PREDICTED BY IDOCK:   -7.15 KCAL/MOL
REMARK 924 INTRA-LIGAND FREE ENERGY PREDICTED BY IDOCK:   -0.04 KCAL/MOL
REMARK 927      BINDING AFFINITY PREDICTED BY RF-SCORE:    0.00 PKD
ROOT
HETATM    1  O   UNL     1      -5.789   8.750  68.585  1.00  0.00    -0.043 OA 
HETATM    2  C   UNL     1      -7.107   8.607  68.020  1.00  0.00    -0.082 C  
HETATM    3  H   UNL     1      -5.867   8.668  69.528  1.00  0.00     0.000 HD 
ENDROOT
BRANCH   2   4
HETATM    4  C   UNL     1      -7.674   7.250  68.438  1.00  0.00    -0.120 C  
BRANCH   4   5
HETATM    5  O   UNL     1      -9.013   7.425  68.918  1.00  0.00    -0.132 OA 
BRANCH   5   6
HETATM    6  C   UNL     1      -9.218   7.442  70.270  1.00  0.00    -0.154 A  
HETATM    7  O   UNL     1     -10.487   1.541  72.680  1.00  0.00    -0.131 OA 
HETATM    8  O   UNL     1     -10.772   2.972  74.408  1.00  0.00    -0.179 OA 
HETATM    9  C   UNL     1      -9.100   8.605  71.047  1.00  0.00    -0.248 A  
HETATM   10  C   UNL     1      -9.368   8.589  72.415  1.00  0.00    -0.349 A  
HETATM   11  C   UNL     1     -10.503   2.679  73.115  1.00  0.00    -0.157 C  
HETATM   12  C   UNL     1      -9.758   7.408  73.031  1.00  0.00    -0.255 A  
HETATM   13  O   UNL     1     -10.222   5.112  72.981  1.00  0.00    -0.169 OA 
HETATM   14  C   UNL     1     -10.222   3.903  72.318  1.00  0.00    -0.146 C  
HETATM   15  C   UNL     1      -9.861   6.238  72.279  1.00  0.00    -0.161 A  
HETATM   16  C   UNL     1      -9.980   3.755  71.010  1.00  0.00    -0.118 C  
HETATM   17  C   UNL     1      -9.596   6.241  70.903  1.00  0.00    -0.192 A  
HETATM   18  O   UNL     1      -9.515   4.791  68.987  1.00  0.00    -0.125 OA 
HETATM   19  C   UNL     1      -9.689   4.941  70.187  1.00  0.00    -0.213 C  
ENDBRANCH   5   6
ENDBRANCH   4   5
ENDBRANCH   2   4
BRANCH   2  20
HETATM   20  C   UNL     1      -6.980   8.739  66.498  1.00  0.00    -0.079 C  
BRANCH  20  21
HETATM   21  O   UNL     1      -6.857  10.068  66.035  1.00  0.00    -0.093 OA 
BRANCH  21  22
HETATM   22  C   UNL     1      -7.790  11.006  66.418  1.00  0.00    -0.150 A  
HETATM   23  C   UNL     1     -10.627  11.821  63.901  1.00  0.00    -0.445 C  
HETATM   24  C   UNL     1      -9.616  10.986  64.553  1.00  0.00    -0.256 C  
HETATM   25  C   UNL     1      -8.946  11.516  65.778  1.00  0.00    -0.120 A  
HETATM   26  C   UNL     1      -9.600  12.626  66.361  1.00  0.00    -0.248 A  
HETATM   27  C   UNL     1     -11.111  12.876  64.553  1.00  0.00    -0.342 C  
HETATM   28  C   UNL     1      -9.191  13.156  67.590  1.00  0.00    -0.207 A  
HETATM   29  O   UNL     1     -10.679  13.280  65.798  1.00  0.00    -0.272 OA 
HETATM   30  C   UNL     1      -8.108  12.603  68.254  1.00  0.00    -0.161 A  
HETATM   31  C   UNL     1     -12.232  13.607  63.905  1.00  0.00    -0.374 C  
HETATM   32  O   UNL     1     -12.660  14.649  64.649  1.00  0.00    -0.573 OA 
HETATM   33  C   UNL     1      -7.405  11.558  67.659  1.00  0.00    -0.105 A  
HETATM   34  O   UNL     1      -9.469   9.867  64.085  1.00  0.00    -0.280 OA 
HETATM   35  O   UNL     1     -12.726  13.307  62.830  1.00  0.00    -0.473 OA 
ENDBRANCH  21  22
ENDBRANCH  20  21
ENDBRANCH   2  20
TORSDOF 6
ENDMDL
MODEL      270
REMARK 921   NORMALIZED FREE ENERGY PREDICTED BY IDOCK:   -4.34 KCAL/MOL
REMARK 922        TOTAL FREE ENERGY PREDICTED BY IDOCK:   -7.15 KCAL/MOL
REMARK 923 INTER-LIGAND FREE ENERGY PREDICTED BY IDOCK:   -6.26 KCAL/MOL
REMARK 924 INTRA-LIGAND FREE ENERGY PREDICTED BY IDOCK:   -0.89 KCAL/MOL
REMARK 927      BINDING AFFINITY PREDICTED BY RF-SCORE:    0.00 PKD
ROOT
HETATM    1  O   UNL     1      -7.998   8.358  70.533  1.00  0.00    -0.088 OA 
HETATM    2  C   UNL     1      -9.088   9.243  70.206  1.00  0.00    -0.237 C  
HETATM    3  H   UNL     1      -8.097   8.101  71.443  1.00  0.00     0.000 HD 
ENDROOT
BRANCH   2   4
HETATM    4  C   UNL     1     -10.406   8.511  70.460  1.00  0.00    -0.200 C  
BRANCH   4   5
HETATM    5  O   UNL     1     -10.172   7.097  70.447  1.00  0.00    -0.192 OA 
BRANCH   5   6
HETATM    6  C   UNL     1     -10.228   6.444  69.247  1.00  0.00    -0.192 A  
HETATM    7  O   UNL     1      -6.007   1.515  68.886  1.00  0.00    -0.022 OA 
HETATM    8  O   UNL     1      -6.918   1.680  66.824  1.00  0.00    -0.040 OA 
HETATM    9  C   UNL     1     -11.146   6.775  68.238  1.00  0.00    -0.222 A  
HETATM   10  C   UNL     1     -11.135   6.117  67.008  1.00  0.00    -0.332 A  
HETATM   11  C   UNL     1      -6.754   2.078  68.106  1.00  0.00    -0.032 C  
HETATM   12  C   UNL     1     -10.204   5.116  66.767  1.00  0.00    -0.289 A  
HETATM   13  O   UNL     1      -8.436   3.737  67.445  1.00  0.00    -0.097 OA 
HETATM   14  C   UNL     1      -7.598   3.258  68.431  1.00  0.00    -0.056 C  
HETATM   15  C   UNL     1      -9.297   4.759  67.764  1.00  0.00    -0.136 A  
HETATM   16  C   UNL     1      -7.499   3.778  69.660  1.00  0.00    -0.052 C  
HETATM   17  C   UNL     1      -9.297   5.414  69.004  1.00  0.00    -0.163 A  
HETATM   18  O   UNL     1      -8.186   5.431  71.136  1.00  0.00    -0.114 OA 
HETATM   19  C   UNL     1      -8.324   4.943  70.025  1.00  0.00    -0.073 C  
ENDBRANCH   5   6
ENDBRANCH   4   5
ENDBRANCH   2   4
BRANCH   2  20
HETATM   20  C   UNL     1      -8.929   9.657  68.739  1.00  0.00    -0.134 C  
BRANCH  20  21
HETATM   21  O   UNL     1      -8.484  10.986  68.553  1.00  0.00    -0.139 OA 
BRANCH  21  22
HETATM   22  C   UNL     1      -9.316  11.898  67.944  1.00  0.00    -0.187 A  
HETATM   23  C   UNL     1      -8.068  15.563  67.709  1.00  0.00    -0.153 C  
HETATM   24  C   UNL     1      -7.935  14.106  67.770  1.00  0.00    -0.170 C  
HETATM   25  C   UNL     1      -9.176  13.280  67.668  1.00  0.00    -0.209 A  
HETATM   26  C   UNL     1     -10.305  13.987  67.191  1.00  0.00    -0.265 A  
HETATM   27  C   UNL     1      -9.219  16.090  67.296  1.00  0.00    -0.205 C  
HETATM   28  C   UNL     1     -11.509  13.335  66.900  1.00  0.00    -0.376 A  
HETATM   29  O   UNL     1     -10.335  15.350  66.970  1.00  0.00    -0.268 OA 
HETATM   30  C   UNL     1     -11.618  11.968  67.095  1.00  0.00    -0.387 A  
HETATM   31  C   UNL     1      -9.254  17.566  67.120  1.00  0.00    -0.243 C  
HETATM   32  O   UNL     1     -10.457  18.000  66.686  1.00  0.00    -0.357 OA 
HETATM   33  C   UNL     1     -10.541  11.268  67.634  1.00  0.00    -0.252 A  
HETATM   34  O   UNL     1      -6.792  13.677  67.806  1.00  0.00    -0.138 OA 
HETATM   35  O   UNL     1      -8.311  18.312  67.328  1.00  0.00    -0.240 OA 
ENDBRANCH  21  22
ENDBRANCH  20  21
ENDBRANCH   2  20
TORSDOF 6
ENDMDL
MODEL      271
REMARK 921   NORMALIZED FREE ENERGY PREDICTED BY IDOCK:   -4.33 KCAL/MOL
REMARK 922        TOTAL FREE ENERGY PREDICTED BY IDOCK:   -7.14 KCAL/MOL
REMARK 923 INTER-LIGAND FREE ENERGY PREDICTED BY IDOCK:   -4.90 KCAL/MOL
REMARK 924 INTRA-LIGAND FREE ENERGY PREDICTED BY IDOCK:   -2.25 KCAL/MOL
REMARK 927      BINDING AFFINITY PREDICTED BY RF-SCORE:    0.00 PKD
ROOT
HETATM    1  O   UNL     1      -7.910   9.668  71.419  1.00  0.00    -0.228 OA 
HETATM    2  C   UNL     1      -8.694   8.627  70.803  1.00  0.00    -0.173 C  
HETATM    3  H   UNL     1      -8.232  10.502  71.097  1.00  0.00     0.000 HD 
ENDROOT
BRANCH   2   4
HETATM    4  C   UNL     1     -10.165   8.852  71.151  1.00  0.00    -0.266 C  
BRANCH   4   5
HETATM    5  O   UNL     1     -10.883   9.205  69.961  1.00  0.00    -0.228 OA 
BRANCH   5   6
HETATM    6  C   UNL     1     -10.566   8.558  68.799  1.00  0.00    -0.133 A  
HETATM    7  O   UNL     1      -9.787  12.642  63.803  1.00  0.00    -0.297 OA 
HETATM    8  O   UNL     1      -9.650  10.568  62.913  1.00  0.00    -0.310 OA 
HETATM    9  C   UNL     1     -10.372   7.170  68.724  1.00  0.00    -0.200 A  
HETATM   10  C   UNL     1     -10.100   6.544  67.507  1.00  0.00    -0.193 A  
HETATM   11  C   UNL     1      -9.838  11.433  63.937  1.00  0.00    -0.300 C  
HETATM   12  C   UNL     1     -10.018   7.298  66.345  1.00  0.00    -0.094 A  
HETATM   13  O   UNL     1     -10.057   9.345  65.206  1.00  0.00    -0.076 OA 
HETATM   14  C   UNL     1     -10.094  10.724  65.219  1.00  0.00    -0.290 C  
HETATM   15  C   UNL     1     -10.189   8.681  66.402  1.00  0.00    -0.154 A  
HETATM   16  C   UNL     1     -10.338  11.466  66.305  1.00  0.00    -0.287 C  
HETATM   17  C   UNL     1     -10.463   9.321  67.619  1.00  0.00    -0.325 A  
HETATM   18  O   UNL     1     -10.854  11.496  68.567  1.00  0.00    -0.191 OA 
HETATM   19  C   UNL     1     -10.589  10.803  67.597  1.00  0.00    -0.231 C  
ENDBRANCH   5   6
ENDBRANCH   4   5
ENDBRANCH   2   4
BRANCH   2  20
HETATM   20  C   UNL     1      -8.174   7.282  71.324  1.00  0.00    -0.106 C  
BRANCH  20  21
HETATM   21  O   UNL     1      -6.844   6.985  70.948  1.00  0.00    -0.052 OA 
BRANCH  21  22
HETATM   22  C   UNL     1      -6.587   6.527  69.676  1.00  0.00    -0.048 A  
HETATM   23  C   UNL     1      -6.549   9.147  66.816  1.00  0.00    -0.068 C  
HETATM   24  C   UNL     1      -6.379   8.660  68.187  1.00  0.00    -0.052 C  
HETATM   25  C   UNL     1      -6.474   7.189  68.430  1.00  0.00    -0.040 A  
HETATM   26  C   UNL     1      -6.389   6.402  67.257  1.00  0.00    -0.037 A  
HETATM   27  C   UNL     1      -6.506   8.275  65.811  1.00  0.00    -0.052 C  
HETATM   28  C   UNL     1      -6.316   5.005  67.315  1.00  0.00    -0.040 A  
HETATM   29  O   UNL     1      -6.368   6.913  65.974  1.00  0.00    -0.046 OA 
HETATM   30  C   UNL     1      -6.346   4.363  68.543  1.00  0.00    -0.036 A  
HETATM   31  C   UNL     1      -6.545   8.837  64.435  1.00  0.00    -0.071 C  
HETATM   32  O   UNL     1      -6.482   7.876  63.489  1.00  0.00    -0.065 OA 
HETATM   33  C   UNL     1      -6.505   5.117  69.703  1.00  0.00    -0.038 A  
HETATM   34  O   UNL     1      -6.075   9.503  69.017  1.00  0.00    -0.042 OA 
HETATM   35  O   UNL     1      -6.615  10.027  64.174  1.00  0.00    -0.123 OA 
ENDBRANCH  21  22
ENDBRANCH  20  21
ENDBRANCH   2  20
TORSDOF 6
ENDMDL
MODEL      272
REMARK 921   NORMALIZED FREE ENERGY PREDICTED BY IDOCK:   -4.30 KCAL/MOL
REMARK 922        TOTAL FREE ENERGY PREDICTED BY IDOCK:   -7.10 KCAL/MOL
REMARK 923 INTER-LIGAND FREE ENERGY PREDICTED BY IDOCK:   -6.69 KCAL/MOL
REMARK 924 INTRA-LIGAND FREE ENERGY PREDICTED BY IDOCK:   -0.41 KCAL/MOL
REMARK 927      BINDING AFFINITY PREDICTED BY RF-SCORE:    0.00 PKD
ROOT
HETATM    1  O   UNL     1      -5.575  14.180  67.354  1.00  0.00    -0.345 OA 
HETATM    2  C   UNL     1      -5.941  12.953  68.017  1.00  0.00    -0.107 C  
HETATM    3  H   UNL     1      -4.679  14.089  67.051  1.00  0.00     0.000 HD 
ENDROOT
BRANCH   2   4
HETATM    4  C   UNL     1      -5.777  11.797  67.032  1.00  0.00    -0.134 C  
BRANCH   4   5
HETATM    5  O   UNL     1      -6.791  10.815  67.282  1.00  0.00    -0.075 OA 
BRANCH   5   6
HETATM    6  C   UNL     1      -7.093   9.929  66.285  1.00  0.00    -0.101 A  
HETATM    7  O   UNL     1      -8.322   3.957  68.535  1.00  0.00    -0.080 OA 
HETATM    8  O   UNL     1      -8.331   3.766  66.282  1.00  0.00    -0.103 OA 
HETATM    9  C   UNL     1      -7.185  10.300  64.934  1.00  0.00    -0.100 A  
HETATM   10  C   UNL     1      -7.446   9.355  63.942  1.00  0.00    -0.116 A  
HETATM   11  C   UNL     1      -8.178   4.458  67.435  1.00  0.00    -0.100 C  
HETATM   12  C   UNL     1      -7.618   8.021  64.285  1.00  0.00    -0.118 A  
HETATM   13  O   UNL     1      -7.766   6.301  65.870  1.00  0.00    -0.088 OA 
HETATM   14  C   UNL     1      -7.831   5.882  67.182  1.00  0.00    -0.102 C  
HETATM   15  C   UNL     1      -7.550   7.636  65.624  1.00  0.00    -0.090 A  
HETATM   16  C   UNL     1      -7.612   6.669  68.241  1.00  0.00    -0.104 C  
HETATM   17  C   UNL     1      -7.288   8.577  66.630  1.00  0.00    -0.081 A  
HETATM   18  O   UNL     1      -7.032   8.779  69.012  1.00  0.00    -0.062 OA 
HETATM   19  C   UNL     1      -7.273   8.088  68.034  1.00  0.00    -0.094 C  
ENDBRANCH   5   6
ENDBRANCH   4   5
ENDBRANCH   2   4
BRANCH   2  20
HETATM   20  C   UNL     1      -7.386  13.100  68.506  1.00  0.00    -0.111 C  
BRANCH  20  21
HETATM   21  O   UNL     1      -7.796  14.434  68.726  1.00  0.00    -0.135 OA 
BRANCH  21  22
HETATM   22  C   UNL     1      -8.604  15.054  67.801  1.00  0.00    -0.161 A  
HETATM   23  C   UNL     1     -11.126  12.830  65.868  1.00  0.00    -0.318 C  
HETATM   24  C   UNL     1     -10.291  13.230  67.003  1.00  0.00    -0.246 C  
HETATM   25  C   UNL     1      -9.630  14.568  66.954  1.00  0.00    -0.258 A  
HETATM   26  C   UNL     1     -10.151  15.436  65.965  1.00  0.00    -0.324 A  
HETATM   27  C   UNL     1     -11.491  13.750  64.977  1.00  0.00    -0.332 C  
HETATM   28  C   UNL     1      -9.747  16.773  65.877  1.00  0.00    -0.247 A  
HETATM   29  O   UNL     1     -11.084  15.067  65.016  1.00  0.00    -0.368 OA 
HETATM   30  C   UNL     1      -8.801  17.268  66.760  1.00  0.00    -0.269 A  
HETATM   31  C   UNL     1     -12.450  13.321  63.925  1.00  0.00    -0.257 C  
HETATM   32  O   UNL     1     -12.767  14.327  63.083  1.00  0.00    -0.539 OA 
HETATM   33  C   UNL     1      -8.222  16.409  67.691  1.00  0.00    -0.166 A  
HETATM   34  O   UNL     1     -10.281  12.461  67.952  1.00  0.00    -0.202 OA 
HETATM   35  O   UNL     1     -12.914  12.197  63.827  1.00  0.00    -0.753 OA 
ENDBRANCH  21  22
ENDBRANCH  20  21
ENDBRANCH   2  20
TORSDOF 6
ENDMDL
MODEL      273
REMARK 921   NORMALIZED FREE ENERGY PREDICTED BY IDOCK:   -4.30 KCAL/MOL
REMARK 922        TOTAL FREE ENERGY PREDICTED BY IDOCK:   -7.10 KCAL/MOL
REMARK 923 INTER-LIGAND FREE ENERGY PREDICTED BY IDOCK:   -6.54 KCAL/MOL
REMARK 924 INTRA-LIGAND FREE ENERGY PREDICTED BY IDOCK:   -0.56 KCAL/MOL
REMARK 927      BINDING AFFINITY PREDICTED BY RF-SCORE:    0.00 PKD
ROOT
HETATM    1  O   UNL     1      -7.933  11.041  63.044  1.00  0.00    -0.375 OA 
HETATM    2  C   UNL     1      -8.514  10.251  64.100  1.00  0.00    -0.179 C  
HETATM    3  H   UNL     1      -7.823  11.926  63.371  1.00  0.00     0.000 HD 
ENDROOT
BRANCH   2   4
HETATM    4  C   UNL     1      -7.591  10.308  65.317  1.00  0.00    -0.143 C  
BRANCH   4   5
HETATM    5  O   UNL     1      -7.945  11.436  66.128  1.00  0.00    -0.102 OA 
BRANCH   5   6
HETATM    6  C   UNL     1      -9.273  11.719  66.297  1.00  0.00    -0.221 A  
HETATM    7  O   UNL     1     -11.615   9.447  71.917  1.00  0.00    -0.378 OA 
HETATM    8  O   UNL     1     -13.406  10.258  70.802  1.00  0.00    -0.349 OA 
HETATM    9  C   UNL     1     -10.017  12.474  65.377  1.00  0.00    -0.236 A  
HETATM   10  C   UNL     1     -11.381  12.696  65.562  1.00  0.00    -0.356 A  
HETATM   11  C   UNL     1     -12.092   9.960  70.921  1.00  0.00    -0.341 C  
HETATM   12  C   UNL     1     -12.024  12.167  66.672  1.00  0.00    -0.186 A  
HETATM   13  O   UNL     1     -12.012  10.975  68.690  1.00  0.00    -0.496 OA 
HETATM   14  C   UNL     1     -11.325  10.347  69.707  1.00  0.00    -0.289 C  
HETATM   15  C   UNL     1     -11.297  11.431  67.608  1.00  0.00    -0.290 A  
HETATM   16  C   UNL     1     -10.017  10.068  69.679  1.00  0.00    -0.263 C  
HETATM   17  C   UNL     1      -9.925  11.199  67.432  1.00  0.00    -0.204 A  
HETATM   18  O   UNL     1      -8.037  10.137  68.473  1.00  0.00    -0.100 OA 
HETATM   19  C   UNL     1      -9.219  10.441  68.498  1.00  0.00    -0.145 C  
ENDBRANCH   5   6
ENDBRANCH   4   5
ENDBRANCH   2   4
BRANCH   2  20
HETATM   20  C   UNL     1      -8.691   8.823  63.572  1.00  0.00     0.049 C  
BRANCH  20  21
HETATM   21  O   UNL     1      -7.668   7.927  63.958  1.00  0.00    -0.119 OA 
BRANCH  21  22
HETATM   22  C   UNL     1      -7.975   6.603  64.173  1.00  0.00    -0.084 A  
HETATM   23  C   UNL     1      -9.238   5.622  67.707  1.00  0.00    -0.106 C  
HETATM   24  C   UNL     1      -9.038   6.504  66.554  1.00  0.00    -0.152 C  
HETATM   25  C   UNL     1      -8.475   5.912  65.304  1.00  0.00    -0.144 A  
HETATM   26  C   UNL     1      -8.507   4.498  65.266  1.00  0.00    -0.124 A  
HETATM   27  C   UNL     1      -9.179   4.304  67.530  1.00  0.00    -0.150 C  
HETATM   28  C   UNL     1      -8.153   3.787  64.114  1.00  0.00    -0.089 A  
HETATM   29  O   UNL     1      -8.881   3.698  66.328  1.00  0.00    -0.116 OA 
HETATM   30  C   UNL     1      -7.741   4.470  62.981  1.00  0.00    -0.066 A  
HETATM   31  C   UNL     1      -9.526   3.455  68.700  1.00  0.00    -0.136 C  
HETATM   32  O   UNL     1      -9.451   2.137  68.415  1.00  0.00    -0.193 OA 
HETATM   33  C   UNL     1      -7.631   5.858  63.024  1.00  0.00    -0.081 A  
HETATM   34  O   UNL     1      -9.443   7.649  66.685  1.00  0.00    -0.177 OA 
HETATM   35  O   UNL     1      -9.854   3.883  69.795  1.00  0.00    -0.195 OA 
ENDBRANCH  21  22
ENDBRANCH  20  21
ENDBRANCH   2  20
TORSDOF 6
ENDMDL
MODEL      274
REMARK 921   NORMALIZED FREE ENERGY PREDICTED BY IDOCK:   -4.26 KCAL/MOL
REMARK 922        TOTAL FREE ENERGY PREDICTED BY IDOCK:   -7.05 KCAL/MOL
REMARK 923 INTER-LIGAND FREE ENERGY PREDICTED BY IDOCK:   -6.26 KCAL/MOL
REMARK 924 INTRA-LIGAND FREE ENERGY PREDICTED BY IDOCK:   -0.78 KCAL/MOL
REMARK 927      BINDING AFFINITY PREDICTED BY RF-SCORE:    0.00 PKD
ROOT
HETATM    1  O   UNL     1      -8.456   7.730  65.075  1.00  0.00    -0.285 OA 
HETATM    2  C   UNL     1      -8.173   7.590  66.481  1.00  0.00    -0.123 C  
HETATM    3  H   UNL     1      -8.787   6.896  64.761  1.00  0.00     0.000 HD 
ENDROOT
BRANCH   2   4
HETATM    4  C   UNL     1      -9.455   7.169  67.198  1.00  0.00    -0.147 C  
BRANCH   4   5
HETATM    5  O   UNL     1      -9.119   6.373  68.341  1.00  0.00    -0.121 OA 
BRANCH   5   6
HETATM    6  C   UNL     1      -9.902   6.481  69.458  1.00  0.00    -0.151 A  
HETATM    7  O   UNL     1      -9.097   1.508  73.563  1.00  0.00    -0.064 OA 
HETATM    8  O   UNL     1     -10.797   2.728  74.420  1.00  0.00    -0.153 OA 
HETATM    9  C   UNL     1     -10.735   7.583  69.704  1.00  0.00    -0.236 A  
HETATM   10  C   UNL     1     -11.556   7.630  70.830  1.00  0.00    -0.299 A  
HETATM   11  C   UNL     1      -9.860   2.454  73.484  1.00  0.00    -0.096 C  
HETATM   12  C   UNL     1     -11.557   6.573  71.730  1.00  0.00    -0.359 A  
HETATM   13  O   UNL     1     -10.767   4.497  72.474  1.00  0.00    -0.188 OA 
HETATM   14  C   UNL     1      -9.876   3.448  72.378  1.00  0.00    -0.158 C  
HETATM   15  C   UNL     1     -10.721   5.478  71.513  1.00  0.00    -0.222 A  
HETATM   16  C   UNL     1      -9.023   3.269  71.363  1.00  0.00    -0.154 C  
HETATM   17  C   UNL     1      -9.892   5.419  70.384  1.00  0.00    -0.270 A  
HETATM   18  O   UNL     1      -8.249   4.029  69.313  1.00  0.00    -0.062 OA 
HETATM   19  C   UNL     1      -9.002   4.235  70.252  1.00  0.00    -0.090 C  
ENDBRANCH   5   6
ENDBRANCH   4   5
ENDBRANCH   2   4
BRANCH   2  20
HETATM   20  C   UNL     1      -7.640   8.935  66.986  1.00  0.00    -0.094 C  
BRANCH  20  21
HETATM   21  O   UNL     1      -8.590   9.981  66.977  1.00  0.00    -0.125 OA 
BRANCH  21  22
HETATM   22  C   UNL     1      -8.209  11.244  67.368  1.00  0.00    -0.135 A  
HETATM   23  C   UNL     1     -11.004  13.662  68.544  1.00  0.00    -0.289 C  
HETATM   24  C   UNL     1     -10.360  12.364  68.332  1.00  0.00    -0.229 C  
HETATM   25  C   UNL     1      -8.941  12.349  67.866  1.00  0.00    -0.184 A  
HETATM   26  C   UNL     1      -8.274  13.590  68.000  1.00  0.00    -0.163 A  
HETATM   27  C   UNL     1     -10.251  14.759  68.587  1.00  0.00    -0.236 C  
HETATM   28  C   UNL     1      -6.904  13.717  67.748  1.00  0.00    -0.182 A  
HETATM   29  O   UNL     1      -8.887  14.767  68.384  1.00  0.00    -0.168 OA 
HETATM   30  C   UNL     1      -6.173  12.614  67.337  1.00  0.00    -0.149 A  
HETATM   31  C   UNL     1     -10.936  16.029  68.942  1.00  0.00    -0.309 C  
HETATM   32  O   UNL     1     -10.085  17.077  68.973  1.00  0.00    -0.278 OA 
HETATM   33  C   UNL     1      -6.826  11.403  67.127  1.00  0.00    -0.124 A  
HETATM   34  O   UNL     1     -11.019  11.385  68.648  1.00  0.00    -0.190 OA 
HETATM   35  O   UNL     1     -12.126  16.129  69.191  1.00  0.00    -0.231 OA 
ENDBRANCH  21  22
ENDBRANCH  20  21
ENDBRANCH   2  20
TORSDOF 6
ENDMDL
MODEL      275
REMARK 921   NORMALIZED FREE ENERGY PREDICTED BY IDOCK:   -4.25 KCAL/MOL
REMARK 922        TOTAL FREE ENERGY PREDICTED BY IDOCK:   -7.03 KCAL/MOL
REMARK 923 INTER-LIGAND FREE ENERGY PREDICTED BY IDOCK:   -6.72 KCAL/MOL
REMARK 924 INTRA-LIGAND FREE ENERGY PREDICTED BY IDOCK:   -0.31 KCAL/MOL
REMARK 927      BINDING AFFINITY PREDICTED BY RF-SCORE:    0.00 PKD
ROOT
HETATM    1  O   UNL     1      -9.279   8.639  64.994  1.00  0.00    -0.433 OA 
HETATM    2  C   UNL     1      -9.454   9.134  66.336  1.00  0.00    -0.227 C  
HETATM    3  H   UNL     1      -9.614   9.297  64.397  1.00  0.00     0.000 HD 
ENDROOT
BRANCH   2   4
HETATM    4  C   UNL     1      -8.715  10.465  66.467  1.00  0.00    -0.136 C  
BRANCH   4   5
HETATM    5  O   UNL     1      -9.378  11.281  67.441  1.00  0.00    -0.160 OA 
BRANCH   5   6
HETATM    6  C   UNL     1     -10.319  12.172  67.005  1.00  0.00    -0.211 A  
HETATM    7  O   UNL     1      -9.075  18.257  68.917  1.00  0.00    -0.258 OA 
HETATM    8  O   UNL     1     -11.103  18.341  67.920  1.00  0.00    -0.182 OA 
HETATM    9  C   UNL     1     -11.396  11.805  66.183  1.00  0.00    -0.342 A  
HETATM   10  C   UNL     1     -12.363  12.736  65.803  1.00  0.00    -0.388 A  
HETATM   11  C   UNL     1     -10.002  17.693  68.366  1.00  0.00    -0.356 C  
HETATM   12  C   UNL     1     -12.269  14.049  66.240  1.00  0.00    -0.493 A  
HETATM   13  O   UNL     1     -11.169  15.764  67.397  1.00  0.00    -0.286 OA 
HETATM   14  C   UNL     1     -10.070  16.233  68.086  1.00  0.00    -0.244 C  
HETATM   15  C   UNL     1     -11.195  14.437  67.042  1.00  0.00    -0.328 A  
HETATM   16  C   UNL     1      -9.060  15.467  68.514  1.00  0.00    -0.196 C  
HETATM   17  C   UNL     1     -10.217  13.511  67.431  1.00  0.00    -0.237 A  
HETATM   18  O   UNL     1      -8.177  13.330  68.688  1.00  0.00    -0.118 OA 
HETATM   19  C   UNL     1      -9.085  14.018  68.251  1.00  0.00    -0.191 C  
ENDBRANCH   5   6
ENDBRANCH   4   5
ENDBRANCH   2   4
BRANCH   2  20
HETATM   20  C   UNL     1      -8.913   8.072  67.300  1.00  0.00    -0.138 C  
BRANCH  20  21
HETATM   21  O   UNL     1      -8.592   6.839  66.690  1.00  0.00    -0.116 OA 
BRANCH  21  22
HETATM   22  C   UNL     1      -8.108   5.808  67.463  1.00  0.00    -0.102 A  
HETATM   23  C   UNL     1     -10.157   4.832  70.609  1.00  0.00    -0.288 C  
HETATM   24  C   UNL     1      -9.951   5.344  69.252  1.00  0.00    -0.207 C  
HETATM   25  C   UNL     1      -8.599   5.186  68.637  1.00  0.00    -0.088 A  
HETATM   26  C   UNL     1      -7.762   4.263  69.307  1.00  0.00    -0.054 A  
HETATM   27  C   UNL     1      -9.248   4.016  71.137  1.00  0.00    -0.129 C  
HETATM   28  C   UNL     1      -6.519   3.888  68.786  1.00  0.00    -0.037 A  
HETATM   29  O   UNL     1      -8.075   3.656  70.508  1.00  0.00    -0.053 OA 
HETATM   30  C   UNL     1      -6.076   4.438  67.594  1.00  0.00    -0.031 A  
HETATM   31  C   UNL     1      -9.572   3.416  72.458  1.00  0.00    -0.132 C  
HETATM   32  O   UNL     1      -8.596   2.595  72.899  1.00  0.00    -0.070 OA 
HETATM   33  C   UNL     1      -6.853   5.404  66.958  1.00  0.00    -0.063 A  
HETATM   34  O   UNL     1     -10.945   5.781  68.692  1.00  0.00    -0.258 OA 
HETATM   35  O   UNL     1     -10.602   3.624  73.079  1.00  0.00    -0.168 OA 
ENDBRANCH  21  22
ENDBRANCH  20  21
ENDBRANCH   2  20
TORSDOF 6
ENDMDL
MODEL      276
REMARK 921   NORMALIZED FREE ENERGY PREDICTED BY IDOCK:   -4.24 KCAL/MOL
REMARK 922        TOTAL FREE ENERGY PREDICTED BY IDOCK:   -7.02 KCAL/MOL
REMARK 923 INTER-LIGAND FREE ENERGY PREDICTED BY IDOCK:   -6.48 KCAL/MOL
REMARK 924 INTRA-LIGAND FREE ENERGY PREDICTED BY IDOCK:   -0.54 KCAL/MOL
REMARK 927      BINDING AFFINITY PREDICTED BY RF-SCORE:    0.00 PKD
ROOT
HETATM    1  O   UNL     1      -7.025  10.529  65.913  1.00  0.00    -0.125 OA 
HETATM    2  C   UNL     1      -7.233  10.400  67.333  1.00  0.00    -0.091 C  
HETATM    3  H   UNL     1      -7.813  10.907  65.538  1.00  0.00     0.000 HD 
ENDROOT
BRANCH   2   4
HETATM    4  C   UNL     1      -7.545  11.780  67.910  1.00  0.00    -0.121 C  
BRANCH   4   5
HETATM    5  O   UNL     1      -7.878  12.676  66.841  1.00  0.00    -0.083 OA 
BRANCH   5   6
HETATM    6  C   UNL     1      -9.123  13.244  66.838  1.00  0.00    -0.232 A  
HETATM    7  O   UNL     1      -8.913  19.717  67.380  1.00  0.00    -0.304 OA 
HETATM    8  O   UNL     1     -11.106  19.174  67.481  1.00  0.00    -0.405 OA 
HETATM    9  C   UNL     1     -10.302  12.502  66.671  1.00  0.00    -0.244 A  
HETATM   10  C   UNL     1     -11.554  13.114  66.725  1.00  0.00    -0.414 A  
HETATM   11  C   UNL     1      -9.790  18.872  67.395  1.00  0.00    -0.324 C  
HETATM   12  C   UNL     1     -11.646  14.481  66.947  1.00  0.00    -0.399 A  
HETATM   13  O   UNL     1     -10.676  16.587  67.279  1.00  0.00    -0.313 OA 
HETATM   14  C   UNL     1      -9.565  17.404  67.310  1.00  0.00    -0.258 C  
HETATM   15  C   UNL     1     -10.485  15.238  67.096  1.00  0.00    -0.280 A  
HETATM   16  C   UNL     1      -8.301  16.968  67.263  1.00  0.00    -0.204 C  
HETATM   17  C   UNL     1      -9.221  14.634  67.044  1.00  0.00    -0.252 A  
HETATM   18  O   UNL     1      -6.874  15.141  67.173  1.00  0.00    -0.259 OA 
HETATM   19  C   UNL     1      -8.035  15.522  67.170  1.00  0.00    -0.221 C  
ENDBRANCH   5   6
ENDBRANCH   4   5
ENDBRANCH   2   4
BRANCH   2  20
HETATM   20  C   UNL     1      -5.963   9.792  67.938  1.00  0.00    -0.050 C  
BRANCH  20  21
HETATM   21  O   UNL     1      -6.184   9.003  69.089  1.00  0.00    -0.042 OA 
BRANCH  21  22
HETATM   22  C   UNL     1      -7.016   7.910  69.010  1.00  0.00    -0.058 A  
HETATM   23  C   UNL     1      -9.204   7.112  72.112  1.00  0.00    -0.144 C  
HETATM   24  C   UNL     1      -8.464   7.967  71.181  1.00  0.00    -0.120 C  
HETATM   25  C   UNL     1      -7.948   7.355  69.920  1.00  0.00    -0.121 A  
HETATM   26  C   UNL     1      -8.520   6.098  69.611  1.00  0.00    -0.127 A  
HETATM   27  C   UNL     1      -9.630   5.921  71.697  1.00  0.00    -0.152 C  
HETATM   28  C   UNL     1      -8.259   5.452  68.397  1.00  0.00    -0.094 A  
HETATM   29  O   UNL     1      -9.369   5.400  70.448  1.00  0.00    -0.150 OA 
HETATM   30  C   UNL     1      -7.408   6.037  67.473  1.00  0.00    -0.077 A  
HETATM   31  C   UNL     1     -10.494   5.155  72.633  1.00  0.00    -0.212 C  
HETATM   32  O   UNL     1     -10.883   3.971  72.115  1.00  0.00     0.079 OA 
HETATM   33  C   UNL     1      -6.778   7.238  67.792  1.00  0.00    -0.065 A  
HETATM   34  O   UNL     1      -8.408   9.151  71.475  1.00  0.00    -0.336 OA 
HETATM   35  O   UNL     1     -10.830   5.542  73.741  1.00  0.00    -0.282 OA 
ENDBRANCH  21  22
ENDBRANCH  20  21
ENDBRANCH   2  20
TORSDOF 6
ENDMDL
MODEL      277
REMARK 921   NORMALIZED FREE ENERGY PREDICTED BY IDOCK:   -4.23 KCAL/MOL
REMARK 922        TOTAL FREE ENERGY PREDICTED BY IDOCK:   -7.01 KCAL/MOL
REMARK 923 INTER-LIGAND FREE ENERGY PREDICTED BY IDOCK:   -6.24 KCAL/MOL
REMARK 924 INTRA-LIGAND FREE ENERGY PREDICTED BY IDOCK:   -0.77 KCAL/MOL
REMARK 927      BINDING AFFINITY PREDICTED BY RF-SCORE:    0.00 PKD
ROOT
HETATM    1  O   UNL     1      -9.967   6.004  67.965  1.00  0.00    -0.128 OA 
HETATM    2  C   UNL     1     -10.518   7.330  67.842  1.00  0.00    -0.209 C  
HETATM    3  H   UNL     1      -9.571   5.777  67.132  1.00  0.00     0.000 HD 
ENDROOT
BRANCH   2   4
HETATM    4  C   UNL     1      -9.396   8.292  67.453  1.00  0.00    -0.141 C  
BRANCH   4   5
HETATM    5  O   UNL     1      -8.133   7.719  67.817  1.00  0.00    -0.121 OA 
BRANCH   5   6
HETATM    6  C   UNL     1      -7.617   8.020  69.048  1.00  0.00    -0.098 A  
HETATM    7  O   UNL     1      -5.456   2.768  72.206  1.00  0.00    -0.003 OA 
HETATM    8  O   UNL     1      -5.281   4.473  73.681  1.00  0.00    -0.007 OA 
HETATM    9  C   UNL     1      -7.515   9.334  69.533  1.00  0.00    -0.079 A  
HETATM   10  C   UNL     1      -7.029   9.593  70.814  1.00  0.00    -0.087 A  
HETATM   11  C   UNL     1      -5.624   3.941  72.485  1.00  0.00    -0.004 C  
HETATM   12  C   UNL     1      -6.637   8.543  71.632  1.00  0.00    -0.073 A  
HETATM   13  O   UNL     1      -6.273   6.262  72.028  1.00  0.00    -0.040 OA 
HETATM   14  C   UNL     1      -6.208   4.962  71.575  1.00  0.00    -0.025 C  
HETATM   15  C   UNL     1      -6.713   7.232  71.160  1.00  0.00    -0.044 A  
HETATM   16  C   UNL     1      -6.629   4.557  70.371  1.00  0.00    -0.035 C  
HETATM   17  C   UNL     1      -7.200   6.958  69.874  1.00  0.00    -0.076 A  
HETATM   18  O   UNL     1      -7.627   5.141  68.360  1.00  0.00    -0.077 OA 
HETATM   19  C   UNL     1      -7.207   5.538  69.436  1.00  0.00    -0.065 C  
ENDBRANCH   5   6
ENDBRANCH   4   5
ENDBRANCH   2   4
BRANCH   2  20
HETATM   20  C   UNL     1     -11.156   7.696  69.187  1.00  0.00     0.133 C  
BRANCH  20  21
HETATM   21  O   UNL     1     -10.628   8.862  69.786  1.00  0.00    -0.219 OA 
BRANCH  21  22
HETATM   22  C   UNL     1     -11.488   9.814  70.285  1.00  0.00    -0.255 A  
HETATM   23  C   UNL     1     -11.105  13.434  68.944  1.00  0.00    -0.307 C  
HETATM   24  C   UNL     1     -11.039  11.972  68.886  1.00  0.00    -0.247 C  
HETATM   25  C   UNL     1     -11.645  11.194  70.008  1.00  0.00    -0.421 A  
HETATM   26  C   UNL     1     -12.507  11.950  70.838  1.00  0.00    -0.300 A  
HETATM   27  C   UNL     1     -11.921  14.010  69.823  1.00  0.00    -0.334 C  
HETATM   28  C   UNL     1     -13.268  11.349  71.847  1.00  0.00    -0.485 A  
HETATM   29  O   UNL     1     -12.682  13.317  70.741  1.00  0.00    -0.288 OA 
HETATM   30  C   UNL     1     -13.172   9.983  72.062  1.00  0.00    -0.545 A  
HETATM   31  C   UNL     1     -12.053  15.489  69.746  1.00  0.00    -0.349 C  
HETATM   32  O   UNL     1     -12.913  15.974  70.667  1.00  0.00    -0.373 OA 
HETATM   33  C   UNL     1     -12.274   9.235  71.305  1.00  0.00    -0.410 A  
HETATM   34  O   UNL     1     -10.569  11.501  67.862  1.00  0.00    -0.180 OA 
HETATM   35  O   UNL     1     -11.468  16.196  68.941  1.00  0.00    -0.352 OA 
ENDBRANCH  21  22
ENDBRANCH  20  21
ENDBRANCH   2  20
TORSDOF 6
ENDMDL
MODEL      278
REMARK 921   NORMALIZED FREE ENERGY PREDICTED BY IDOCK:   -4.23 KCAL/MOL
REMARK 922        TOTAL FREE ENERGY PREDICTED BY IDOCK:   -7.00 KCAL/MOL
REMARK 923 INTER-LIGAND FREE ENERGY PREDICTED BY IDOCK:   -6.34 KCAL/MOL
REMARK 924 INTRA-LIGAND FREE ENERGY PREDICTED BY IDOCK:   -0.67 KCAL/MOL
REMARK 927      BINDING AFFINITY PREDICTED BY RF-SCORE:    0.00 PKD
ROOT
HETATM    1  O   UNL     1      -7.531  11.082  68.518  1.00  0.00    -0.092 OA 
HETATM    2  C   UNL     1      -8.075  10.802  67.213  1.00  0.00    -0.117 C  
HETATM    3  H   UNL     1      -6.865  11.752  68.417  1.00  0.00     0.000 HD 
ENDROOT
BRANCH   2   4
HETATM    4  C   UNL     1      -8.640  12.097  66.631  1.00  0.00    -0.122 C  
BRANCH   4   5
HETATM    5  O   UNL     1      -8.683  13.098  67.656  1.00  0.00    -0.168 OA 
BRANCH   5   6
HETATM    6  C   UNL     1      -7.823  14.158  67.561  1.00  0.00    -0.192 A  
HETATM    7  O   UNL     1     -10.846  19.702  66.028  1.00  0.00    -0.435 OA 
HETATM    8  O   UNL     1      -8.639  20.190  65.994  1.00  0.00    -0.287 OA 
HETATM    9  C   UNL     1      -6.449  14.053  67.831  1.00  0.00    -0.170 A  
HETATM   10  C   UNL     1      -5.598  15.147  67.673  1.00  0.00    -0.035 A  
HETATM   11  C   UNL     1      -9.687  19.347  66.136  1.00  0.00    -0.359 C  
HETATM   12  C   UNL     1      -6.107  16.364  67.241  1.00  0.00    -0.201 A  
HETATM   13  O   UNL     1      -7.889  17.742  66.596  1.00  0.00    -0.215 OA 
HETATM   14  C   UNL     1      -9.242  17.962  66.449  1.00  0.00    -0.242 C  
HETATM   15  C   UNL     1      -7.473  16.492  66.987  1.00  0.00    -0.204 A  
HETATM   16  C   UNL     1     -10.182  17.017  66.573  1.00  0.00    -0.321 C  
HETATM   17  C   UNL     1      -8.338  15.400  67.142  1.00  0.00    -0.247 A  
HETATM   18  O   UNL     1     -10.653  14.778  66.955  1.00  0.00    -0.280 OA 
HETATM   19  C   UNL     1      -9.785  15.635  66.890  1.00  0.00    -0.230 C  
ENDBRANCH   5   6
ENDBRANCH   4   5
ENDBRANCH   2   4
BRANCH   2  20
HETATM   20  C   UNL     1      -9.150   9.722  67.377  1.00  0.00    -0.134 C  
BRANCH  20  21
HETATM   21  O   UNL     1      -8.642   8.417  67.567  1.00  0.00    -0.127 OA 
BRANCH  21  22
HETATM   22  C   UNL     1      -9.176   7.621  68.554  1.00  0.00    -0.143 A  
HETATM   23  C   UNL     1      -7.045   7.080  71.750  1.00  0.00    -0.070 C  
HETATM   24  C   UNL     1      -7.533   7.804  70.574  1.00  0.00    -0.074 C  
HETATM   25  C   UNL     1      -8.700   7.238  69.832  1.00  0.00    -0.141 A  
HETATM   26  C   UNL     1      -9.411   6.243  70.543  1.00  0.00    -0.162 A  
HETATM   27  C   UNL     1      -7.801   6.120  72.278  1.00  0.00    -0.101 C  
HETATM   28  C   UNL     1     -10.610   5.711  70.057  1.00  0.00    -0.388 A  
HETATM   29  O   UNL     1      -9.008   5.711  71.752  1.00  0.00    -0.135 OA 
HETATM   30  C   UNL     1     -11.117   6.146  68.843  1.00  0.00    -0.417 A  
HETATM   31  C   UNL     1      -7.324   5.514  73.549  1.00  0.00    -0.091 C  
HETATM   32  O   UNL     1      -8.165   4.563  74.008  1.00  0.00    -0.102 OA 
HETATM   33  C   UNL     1     -10.393   7.071  68.094  1.00  0.00    -0.226 A  
HETATM   34  O   UNL     1      -6.995   8.877  70.349  1.00  0.00    -0.041 OA 
HETATM   35  O   UNL     1      -6.299   5.835  74.128  1.00  0.00    -0.066 OA 
ENDBRANCH  21  22
ENDBRANCH  20  21
ENDBRANCH   2  20
TORSDOF 6
ENDMDL
MODEL      279
REMARK 921   NORMALIZED FREE ENERGY PREDICTED BY IDOCK:   -4.21 KCAL/MOL
REMARK 922        TOTAL FREE ENERGY PREDICTED BY IDOCK:   -6.98 KCAL/MOL
REMARK 923 INTER-LIGAND FREE ENERGY PREDICTED BY IDOCK:   -6.34 KCAL/MOL
REMARK 924 INTRA-LIGAND FREE ENERGY PREDICTED BY IDOCK:   -0.64 KCAL/MOL
REMARK 927      BINDING AFFINITY PREDICTED BY RF-SCORE:    0.00 PKD
ROOT
HETATM    1  O   UNL     1      -6.898  11.811  69.785  1.00  0.00    -0.325 OA 
HETATM    2  C   UNL     1      -6.947  11.486  68.382  1.00  0.00    -0.077 C  
HETATM    3  H   UNL     1      -6.113  12.325  69.936  1.00  0.00     0.000 HD 
ENDROOT
BRANCH   2   4
HETATM    4  C   UNL     1      -6.944  12.786  67.578  1.00  0.00    -0.149 C  
BRANCH   4   5
HETATM    5  O   UNL     1      -7.973  13.652  68.074  1.00  0.00    -0.128 OA 
BRANCH   5   6
HETATM    6  C   UNL     1      -7.628  14.925  68.436  1.00  0.00    -0.113 A  
HETATM    7  O   UNL     1     -11.147  19.437  65.355  1.00  0.00    -0.402 OA 
HETATM    8  O   UNL     1      -9.583  20.583  66.517  1.00  0.00    -0.325 OA 
HETATM    9  C   UNL     1      -6.661  15.207  69.413  1.00  0.00    -0.151 A  
HETATM   10  C   UNL     1      -6.302  16.520  69.715  1.00  0.00    -0.183 A  
HETATM   11  C   UNL     1     -10.174  19.445  66.087  1.00  0.00    -0.484 C  
HETATM   12  C   UNL     1      -6.905  17.574  69.044  1.00  0.00    -0.242 A  
HETATM   13  O   UNL     1      -8.445  18.422  67.495  1.00  0.00    -0.250 OA 
HETATM   14  C   UNL     1      -9.501  18.234  66.628  1.00  0.00    -0.308 C  
HETATM   15  C   UNL     1      -7.882  17.315  68.083  1.00  0.00    -0.220 A  
HETATM   16  C   UNL     1      -9.964  17.038  66.245  1.00  0.00    -0.324 C  
HETATM   17  C   UNL     1      -8.251  15.999  67.770  1.00  0.00    -0.159 A  
HETATM   18  O   UNL     1      -9.738  14.733  66.368  1.00  0.00    -0.261 OA 
HETATM   19  C   UNL     1      -9.330  15.813  66.764  1.00  0.00    -0.242 C  
ENDBRANCH   5   6
ENDBRANCH   4   5
ENDBRANCH   2   4
BRANCH   2  20
HETATM   20  C   UNL     1      -8.213  10.657  68.139  1.00  0.00    -0.116 C  
BRANCH  20  21
HETATM   21  O   UNL     1      -8.221   9.947  66.917  1.00  0.00    -0.119 OA 
BRANCH  21  22
HETATM   22  C   UNL     1      -8.739   8.673  66.879  1.00  0.00    -0.124 A  
HETATM   23  C   UNL     1      -6.459   5.870  65.468  1.00  0.00    -0.043 C  
HETATM   24  C   UNL     1      -6.764   7.132  66.145  1.00  0.00    -0.053 C  
HETATM   25  C   UNL     1      -8.192   7.435  66.462  1.00  0.00    -0.120 A  
HETATM   26  C   UNL     1      -9.055   6.318  66.369  1.00  0.00    -0.153 A  
HETATM   27  C   UNL     1      -7.397   4.927  65.404  1.00  0.00    -0.072 C  
HETATM   28  C   UNL     1     -10.394   6.390  66.769  1.00  0.00    -0.279 A  
HETATM   29  O   UNL     1      -8.678   5.078  65.890  1.00  0.00    -0.123 OA 
HETATM   30  C   UNL     1     -10.906   7.583  67.253  1.00  0.00    -0.297 A  
HETATM   31  C   UNL     1      -6.992   3.616  64.830  1.00  0.00    -0.057 C  
HETATM   32  O   UNL     1      -8.007   2.726  64.824  1.00  0.00    -0.080 OA 
HETATM   33  C   UNL     1     -10.091   8.713  67.282  1.00  0.00    -0.310 A  
HETATM   34  O   UNL     1      -5.799   7.800  66.484  1.00  0.00    -0.038 OA 
HETATM   35  O   UNL     1      -5.873   3.356  64.419  1.00  0.00    -0.016 OA 
ENDBRANCH  21  22
ENDBRANCH  20  21
ENDBRANCH   2  20
TORSDOF 6
ENDMDL
MODEL      280
REMARK 921   NORMALIZED FREE ENERGY PREDICTED BY IDOCK:   -4.17 KCAL/MOL
REMARK 922        TOTAL FREE ENERGY PREDICTED BY IDOCK:   -6.93 KCAL/MOL
REMARK 923 INTER-LIGAND FREE ENERGY PREDICTED BY IDOCK:   -4.58 KCAL/MOL
REMARK 924 INTRA-LIGAND FREE ENERGY PREDICTED BY IDOCK:   -2.34 KCAL/MOL
REMARK 927      BINDING AFFINITY PREDICTED BY RF-SCORE:    0.00 PKD
ROOT
HETATM    1  O   UNL     1     -10.213   3.644  65.582  1.00  0.00    -0.413 OA 
HETATM    2  C   UNL     1      -8.852   3.244  65.836  1.00  0.00    -0.137 C  
HETATM    3  H   UNL     1     -10.765   2.877  65.687  1.00  0.00     0.000 HD 
ENDROOT
BRANCH   2   4
HETATM    4  C   UNL     1      -8.770   2.660  67.247  1.00  0.00    -0.118 C  
BRANCH   4   5
HETATM    5  O   UNL     1      -9.842   3.184  68.039  1.00  0.00    -0.048 OA 
BRANCH   5   6
HETATM    6  C   UNL     1      -9.584   3.511  69.342  1.00  0.00    -0.101 A  
HETATM    7  O   UNL     1     -10.920   9.731  70.670  1.00  0.00    -0.282 OA 
HETATM    8  O   UNL     1      -9.950   8.911  72.540  1.00  0.00    -0.184 OA 
HETATM    9  C   UNL     1      -9.139   2.577  70.291  1.00  0.00    -0.180 A  
HETATM   10  C   UNL     1      -8.838   2.963  71.597  1.00  0.00    -0.124 A  
HETATM   11  C   UNL     1     -10.384   8.812  71.263  1.00  0.00    -0.261 C  
HETATM   12  C   UNL     1      -8.977   4.291  71.976  1.00  0.00    -0.145 A  
HETATM   13  O   UNL     1      -9.573   6.512  71.528  1.00  0.00    -0.162 OA 
HETATM   14  C   UNL     1     -10.138   7.458  70.698  1.00  0.00    -0.190 C  
HETATM   15  C   UNL     1      -9.437   5.230  71.052  1.00  0.00    -0.161 A  
HETATM   16  C   UNL     1     -10.485   7.240  69.425  1.00  0.00    -0.223 C  
HETATM   17  C   UNL     1      -9.742   4.854  69.736  1.00  0.00    -0.262 A  
HETATM   18  O   UNL     1     -10.547   5.744  67.653  1.00  0.00    -0.226 OA 
HETATM   19  C   UNL     1     -10.265   5.910  68.830  1.00  0.00    -0.189 C  
ENDBRANCH   5   6
ENDBRANCH   4   5
ENDBRANCH   2   4
BRANCH   2  20
HETATM   20  C   UNL     1      -7.962   4.480  65.666  1.00  0.00    -0.095 C  
BRANCH  20  21
HETATM   21  O   UNL     1      -6.756   4.436  66.401  1.00  0.00    -0.048 OA 
BRANCH  21  22
HETATM   22  C   UNL     1      -6.645   5.166  67.563  1.00  0.00    -0.054 A  
HETATM   23  C   UNL     1      -7.469   8.951  67.372  1.00  0.00    -0.085 C  
HETATM   24  C   UNL     1      -7.571   7.539  66.997  1.00  0.00    -0.103 C  
HETATM   25  C   UNL     1      -6.887   6.529  67.859  1.00  0.00    -0.074 A  
HETATM   26  C   UNL     1      -6.493   7.021  69.126  1.00  0.00    -0.040 A  
HETATM   27  C   UNL     1      -7.021   9.267  68.585  1.00  0.00    -0.062 C  
HETATM   28  C   UNL     1      -5.970   6.175  70.110  1.00  0.00    -0.029 A  
HETATM   29  O   UNL     1      -6.584   8.344  69.512  1.00  0.00    -0.040 OA 
HETATM   30  C   UNL     1      -5.810   4.824  69.845  1.00  0.00    -0.017 A  
HETATM   31  C   UNL     1      -7.068  10.704  68.964  1.00  0.00    -0.086 C  
HETATM   32  O   UNL     1      -6.606  10.917  70.215  1.00  0.00    -0.205 OA 
HETATM   33  C   UNL     1      -6.122   4.336  68.578  1.00  0.00    -0.031 A  
HETATM   34  O   UNL     1      -8.298   7.293  66.047  1.00  0.00    -0.126 OA 
HETATM   35  O   UNL     1      -7.482  11.597  68.244  1.00  0.00    -0.085 OA 
ENDBRANCH  21  22
ENDBRANCH  20  21
ENDBRANCH   2  20
TORSDOF 6
ENDMDL
MODEL      281
REMARK 921   NORMALIZED FREE ENERGY PREDICTED BY IDOCK:   -4.15 KCAL/MOL
REMARK 922        TOTAL FREE ENERGY PREDICTED BY IDOCK:   -6.90 KCAL/MOL
REMARK 923 INTER-LIGAND FREE ENERGY PREDICTED BY IDOCK:   -6.13 KCAL/MOL
REMARK 924 INTRA-LIGAND FREE ENERGY PREDICTED BY IDOCK:   -0.77 KCAL/MOL
REMARK 927      BINDING AFFINITY PREDICTED BY RF-SCORE:    0.00 PKD
ROOT
HETATM    1  O   UNL     1      -6.678   8.206  68.416  1.00  0.00    -0.060 OA 
HETATM    2  C   UNL     1      -6.908   8.275  66.995  1.00  0.00    -0.070 C  
HETATM    3  H   UNL     1      -7.407   7.738  68.805  1.00  0.00     0.000 HD 
ENDROOT
BRANCH   2   4
HETATM    4  C   UNL     1      -7.039   6.852  66.451  1.00  0.00    -0.074 C  
BRANCH   4   5
HETATM    5  O   UNL     1      -8.416   6.454  66.494  1.00  0.00    -0.112 OA 
BRANCH   5   6
HETATM    6  C   UNL     1      -8.789   5.517  67.417  1.00  0.00    -0.105 A  
HETATM    7  O   UNL     1     -12.875   7.897  71.876  1.00  0.00    -0.316 OA 
HETATM    8  O   UNL     1     -12.389   5.798  72.563  1.00  0.00    -0.144 OA 
HETATM    9  C   UNL     1      -8.377   4.177  67.357  1.00  0.00    -0.099 A  
HETATM   10  C   UNL     1      -8.740   3.266  68.348  1.00  0.00    -0.139 A  
HETATM   11  C   UNL     1     -12.265   6.854  71.726  1.00  0.00    -0.356 C  
HETATM   12  C   UNL     1      -9.522   3.680  69.417  1.00  0.00    -0.249 A  
HETATM   13  O   UNL     1     -10.754   5.312  70.560  1.00  0.00    -0.239 OA 
HETATM   14  C   UNL     1     -11.316   6.570  70.616  1.00  0.00    -0.351 C  
HETATM   15  C   UNL     1      -9.958   5.003  69.484  1.00  0.00    -0.232 A  
HETATM   16  C   UNL     1     -11.070   7.550  69.738  1.00  0.00    -0.143 C  
HETATM   17  C   UNL     1      -9.599   5.929  68.494  1.00  0.00    -0.142 A  
HETATM   18  O   UNL     1      -9.896   8.228  67.856  1.00  0.00    -0.156 OA 
HETATM   19  C   UNL     1     -10.142   7.308  68.620  1.00  0.00    -0.176 C  
ENDBRANCH   5   6
ENDBRANCH   4   5
ENDBRANCH   2   4
BRANCH   2  20
HETATM   20  C   UNL     1      -5.730   9.029  66.367  1.00  0.00    -0.050 C  
BRANCH  20  21
HETATM   21  O   UNL     1      -6.008  10.374  66.035  1.00  0.00    -0.075 OA 
BRANCH  21  22
HETATM   22  C   UNL     1      -7.311  10.760  65.816  1.00  0.00    -0.061 A  
HETATM   23  C   UNL     1      -8.857  13.301  68.306  1.00  0.00    -0.168 C  
HETATM   24  C   UNL     1      -7.785  12.660  67.542  1.00  0.00    -0.161 C  
HETATM   25  C   UNL     1      -8.163  11.667  66.492  1.00  0.00    -0.101 A  
HETATM   26  C   UNL     1      -9.529  11.704  66.126  1.00  0.00    -0.224 A  
HETATM   27  C   UNL     1     -10.111  13.199  67.870  1.00  0.00    -0.232 C  
HETATM   28  C   UNL     1     -10.024  10.944  65.060  1.00  0.00    -0.356 A  
HETATM   29  O   UNL     1     -10.487  12.470  66.762  1.00  0.00    -0.224 OA 
HETATM   30  C   UNL     1      -9.170  10.117  64.347  1.00  0.00    -0.306 A  
HETATM   31  C   UNL     1     -11.141  13.982  68.603  1.00  0.00    -0.264 C  
HETATM   32  O   UNL     1     -12.374  13.822  68.077  1.00  0.00    -0.241 OA 
HETATM   33  C   UNL     1      -7.838  10.012  64.740  1.00  0.00    -0.145 A  
HETATM   34  O   UNL     1      -6.655  13.066  67.767  1.00  0.00    -0.113 OA 
HETATM   35  O   UNL     1     -10.913  14.699  69.563  1.00  0.00    -0.250 OA 
ENDBRANCH  21  22
ENDBRANCH  20  21
ENDBRANCH   2  20
TORSDOF 6
ENDMDL
MODEL      282
REMARK 921   NORMALIZED FREE ENERGY PREDICTED BY IDOCK:   -4.14 KCAL/MOL
REMARK 922        TOTAL FREE ENERGY PREDICTED BY IDOCK:   -6.89 KCAL/MOL
REMARK 923 INTER-LIGAND FREE ENERGY PREDICTED BY IDOCK:   -7.31 KCAL/MOL
REMARK 924 INTRA-LIGAND FREE ENERGY PREDICTED BY IDOCK:    0.41 KCAL/MOL
REMARK 927      BINDING AFFINITY PREDICTED BY RF-SCORE:    0.00 PKD
ROOT
HETATM    1  O   UNL     1     -11.273   8.341  68.432  1.00  0.00    -0.299 OA 
HETATM    2  C   UNL     1     -10.713   9.383  69.254  1.00  0.00    -0.211 C  
HETATM    3  H   UNL     1     -10.925   7.511  68.738  1.00  0.00     0.000 HD 
ENDROOT
BRANCH   2   4
HETATM    4  C   UNL     1     -11.077   9.105  70.713  1.00  0.00    -0.275 C  
BRANCH   4   5
HETATM    5  O   UNL     1      -9.895   9.187  71.520  1.00  0.00    -0.304 OA 
BRANCH   5   6
HETATM    6  C   UNL     1      -8.710   8.774  70.975  1.00  0.00    -0.202 A  
HETATM    7  O   UNL     1      -7.550   2.464  72.011  1.00  0.00    -0.043 OA 
HETATM    8  O   UNL     1      -5.676   3.270  71.036  1.00  0.00    -0.012 OA 
HETATM    9  C   UNL     1      -7.878   9.619  70.224  1.00  0.00    -0.193 A  
HETATM   10  C   UNL     1      -6.653   9.172  69.730  1.00  0.00    -0.046 A  
HETATM   11  C   UNL     1      -6.918   3.400  71.555  1.00  0.00    -0.031 C  
HETATM   12  C   UNL     1      -6.240   7.871  69.980  1.00  0.00    -0.030 A  
HETATM   13  O   UNL     1      -6.583   5.733  70.876  1.00  0.00    -0.041 OA 
HETATM   14  C   UNL     1      -7.403   4.804  71.481  1.00  0.00    -0.069 C  
HETATM   15  C   UNL     1      -7.062   7.011  70.708  1.00  0.00    -0.067 A  
HETATM   16  C   UNL     1      -8.606   5.078  71.999  1.00  0.00    -0.127 C  
HETATM   17  C   UNL     1      -8.295   7.449  71.210  1.00  0.00    -0.110 A  
HETATM   18  O   UNL     1     -10.206   6.693  72.457  1.00  0.00    -0.179 OA 
HETATM   19  C   UNL     1      -9.127   6.455  71.939  1.00  0.00    -0.145 C  
ENDBRANCH   5   6
ENDBRANCH   4   5
ENDBRANCH   2   4
BRANCH   2  20
HETATM   20  C   UNL     1     -11.276  10.721  68.761  1.00  0.00    -0.272 C  
BRANCH  20  21
HETATM   21  O   UNL     1     -12.385  11.195  69.497  1.00  0.00    -0.301 OA 
BRANCH  21  22
HETATM   22  C   UNL     1     -12.450  12.526  69.839  1.00  0.00     0.084 A  
HETATM   23  C   UNL     1     -10.866  15.073  67.379  1.00  0.00    -0.305 C  
HETATM   24  C   UNL     1     -11.535  13.831  67.772  1.00  0.00    -0.322 C  
HETATM   25  C   UNL     1     -12.010  13.701  69.182  1.00  0.00    -0.394 A  
HETATM   26  C   UNL     1     -12.057  14.924  69.892  1.00  0.00    -0.332 A  
HETATM   27  C   UNL     1     -10.946  16.132  68.182  1.00  0.00    -0.341 C  
HETATM   28  C   UNL     1     -12.612  15.007  71.174  1.00  0.00    -0.416 A  
HETATM   29  O   UNL     1     -11.576  16.126  69.409  1.00  0.00    -0.321 OA 
HETATM   30  C   UNL     1     -13.115  13.869  71.783  1.00  0.00    -0.458 A  
HETATM   31  C   UNL     1     -10.370  17.404  67.673  1.00  0.00    -0.355 C  
HETATM   32  O   UNL     1     -10.513  18.418  68.553  1.00  0.00    -0.326 OA 
HETATM   33  C   UNL     1     -13.010  12.643  71.130  1.00  0.00    -0.239 A  
HETATM   34  O   UNL     1     -11.734  13.027  66.874  1.00  0.00    -0.345 OA 
HETATM   35  O   UNL     1      -9.836  17.536  66.584  1.00  0.00    -0.279 OA 
ENDBRANCH  21  22
ENDBRANCH  20  21
ENDBRANCH   2  20
TORSDOF 6
ENDMDL
MODEL      283
REMARK 921   NORMALIZED FREE ENERGY PREDICTED BY IDOCK:   -4.10 KCAL/MOL
REMARK 922        TOTAL FREE ENERGY PREDICTED BY IDOCK:   -6.83 KCAL/MOL
REMARK 923 INTER-LIGAND FREE ENERGY PREDICTED BY IDOCK:   -6.85 KCAL/MOL
REMARK 924 INTRA-LIGAND FREE ENERGY PREDICTED BY IDOCK:    0.02 KCAL/MOL
REMARK 927      BINDING AFFINITY PREDICTED BY RF-SCORE:    0.00 PKD
ROOT
HETATM    1  O   UNL     1      -7.733   5.880  69.023  1.00  0.00    -0.088 OA 
HETATM    2  C   UNL     1      -8.471   6.729  68.122  1.00  0.00    -0.121 C  
HETATM    3  H   UNL     1      -7.089   5.404  68.511  1.00  0.00     0.000 HD 
ENDROOT
BRANCH   2   4
HETATM    4  C   UNL     1      -7.489   7.663  67.415  1.00  0.00    -0.100 C  
BRANCH   4   5
HETATM    5  O   UNL     1      -6.241   7.660  68.121  1.00  0.00    -0.041 OA 
BRANCH   5   6
HETATM    6  C   UNL     1      -6.094   8.519  69.176  1.00  0.00    -0.042 A  
HETATM    7  O   UNL     1      -5.803  14.738  67.314  1.00  0.00    -0.303 OA 
HETATM    8  O   UNL     1      -5.385  14.754  69.536  1.00  0.00    -0.091 OA 
HETATM    9  C   UNL     1      -6.072   8.091  70.513  1.00  0.00    -0.033 A  
HETATM   10  C   UNL     1      -5.869   8.994  71.556  1.00  0.00    -0.062 A  
HETATM   11  C   UNL     1      -5.639  14.136  68.360  1.00  0.00    -0.106 C  
HETATM   12  C   UNL     1      -5.682  10.341  71.279  1.00  0.00     0.008 A  
HETATM   13  O   UNL     1      -5.556  12.141  69.785  1.00  0.00    -0.080 OA 
HETATM   14  C   UNL     1      -5.705  12.658  68.515  1.00  0.00    -0.056 C  
HETATM   15  C   UNL     1      -5.719  10.788  69.958  1.00  0.00    -0.072 A  
HETATM   16  C   UNL     1      -5.910  11.923  67.416  1.00  0.00    -0.115 C  
HETATM   17  C   UNL     1      -5.922   9.890  68.901  1.00  0.00    -0.037 A  
HETATM   18  O   UNL     1      -6.132   9.800  66.508  1.00  0.00    -0.058 OA 
HETATM   19  C   UNL     1      -5.990  10.456  67.528  1.00  0.00    -0.052 C  
ENDBRANCH   5   6
ENDBRANCH   4   5
ENDBRANCH   2   4
BRANCH   2  20
HETATM   20  C   UNL     1      -9.509   7.496  68.948  1.00  0.00    -0.145 C  
BRANCH  20  21
HETATM   21  O   UNL     1      -9.229   8.873  69.105  1.00  0.00    -0.143 OA 
BRANCH  21  22
HETATM   22  C   UNL     1     -10.253   9.786  68.998  1.00  0.00    -0.203 A  
HETATM   23  C   UNL     1     -10.802  11.445  65.535  1.00  0.00    -0.282 C  
HETATM   24  C   UNL     1     -10.404  10.383  66.462  1.00  0.00    -0.224 C  
HETATM   25  C   UNL     1     -10.742  10.546  67.907  1.00  0.00    -0.305 A  
HETATM   26  C   UNL     1     -11.702  11.552  68.168  1.00  0.00    -0.287 A  
HETATM   27  C   UNL     1     -11.673  12.365  65.942  1.00  0.00    -0.419 C  
HETATM   28  C   UNL     1     -12.239  11.741  69.446  1.00  0.00    -0.219 A  
HETATM   29  O   UNL     1     -12.194  12.425  67.217  1.00  0.00    -0.478 OA 
HETATM   30  C   UNL     1     -11.816  10.941  70.496  1.00  0.00    -0.457 A  
HETATM   31  C   UNL     1     -12.149  13.336  64.921  1.00  0.00    -0.397 C  
HETATM   32  O   UNL     1     -13.037  14.216  65.429  1.00  0.00    -0.743 OA 
HETATM   33  C   UNL     1     -10.818   9.996  70.275  1.00  0.00    -0.370 A  
HETATM   34  O   UNL     1      -9.902   9.393  65.952  1.00  0.00    -0.281 OA 
HETATM   35  O   UNL     1     -11.794  13.343  63.753  1.00  0.00    -0.446 OA 
ENDBRANCH  21  22
ENDBRANCH  20  21
ENDBRANCH   2  20
TORSDOF 6
ENDMDL
MODEL      284
REMARK 921   NORMALIZED FREE ENERGY PREDICTED BY IDOCK:   -4.09 KCAL/MOL
REMARK 922        TOTAL FREE ENERGY PREDICTED BY IDOCK:   -6.82 KCAL/MOL
REMARK 923 INTER-LIGAND FREE ENERGY PREDICTED BY IDOCK:   -6.20 KCAL/MOL
REMARK 924 INTRA-LIGAND FREE ENERGY PREDICTED BY IDOCK:   -0.62 KCAL/MOL
REMARK 927      BINDING AFFINITY PREDICTED BY RF-SCORE:    0.00 PKD
ROOT
HETATM    1  O   UNL     1      -6.147  10.732  69.553  1.00  0.00    -0.045 OA 
HETATM    2  C   UNL     1      -7.116   9.725  69.200  1.00  0.00    -0.067 C  
HETATM    3  H   UNL     1      -6.067  10.737  70.500  1.00  0.00     0.000 HD 
ENDROOT
BRANCH   2   4
HETATM    4  C   UNL     1      -6.646   8.379  69.750  1.00  0.00    -0.039 C  
BRANCH   4   5
HETATM    5  O   UNL     1      -7.787   7.562  70.041  1.00  0.00    -0.095 OA 
BRANCH   5   6
HETATM    6  C   UNL     1      -8.117   7.356  71.352  1.00  0.00    -0.097 A  
HETATM    7  O   UNL     1     -10.662   1.467  72.393  1.00  0.00    -0.162 OA 
HETATM    8  O   UNL     1     -10.853   2.563  74.361  1.00  0.00    -0.145 OA 
HETATM    9  C   UNL     1      -7.869   8.300  72.361  1.00  0.00    -0.177 A  
HETATM   10  C   UNL     1      -8.268   8.071  73.677  1.00  0.00    -0.284 A  
HETATM   11  C   UNL     1     -10.515   2.479  73.054  1.00  0.00    -0.153 C  
HETATM   12  C   UNL     1      -8.923   6.894  74.007  1.00  0.00    -0.211 A  
HETATM   13  O   UNL     1      -9.787   4.788  73.450  1.00  0.00    -0.138 OA 
HETATM   14  C   UNL     1      -9.940   3.754  72.550  1.00  0.00    -0.163 C  
HETATM   15  C   UNL     1      -9.162   5.935  73.022  1.00  0.00    -0.137 A  
HETATM   16  C   UNL     1      -9.601   3.819  71.257  1.00  0.00    -0.243 C  
HETATM   17  C   UNL     1      -8.766   6.153  71.695  1.00  0.00    -0.135 A  
HETATM   18  O   UNL     1      -8.761   5.116  69.527  1.00  0.00    -0.097 OA 
HETATM   19  C   UNL     1      -9.021   5.062  70.719  1.00  0.00    -0.132 C  
ENDBRANCH   5   6
ENDBRANCH   4   5
ENDBRANCH   2   4
BRANCH   2  20
HETATM   20  C   UNL     1      -7.243   9.715  67.672  1.00  0.00    -0.089 C  
BRANCH  20  21
HETATM   21  O   UNL     1      -7.898  10.846  67.134  1.00  0.00    -0.118 OA 
BRANCH  21  22
HETATM   22  C   UNL     1      -9.150  11.185  67.595  1.00  0.00    -0.147 A  
HETATM   23  C   UNL     1      -9.666  14.829  68.821  1.00  0.00    -0.222 C  
HETATM   24  C   UNL     1      -9.073  13.760  68.014  1.00  0.00    -0.191 C  
HETATM   25  C   UNL     1      -9.688  12.401  68.082  1.00  0.00    -0.214 A  
HETATM   26  C   UNL     1     -10.978  12.378  68.664  1.00  0.00    -0.247 A  
HETATM   27  C   UNL     1     -10.868  14.640  69.360  1.00  0.00    -0.243 C  
HETATM   28  C   UNL     1     -11.756  11.215  68.676  1.00  0.00    -0.389 A  
HETATM   29  O   UNL     1     -11.584  13.466  69.260  1.00  0.00    -0.274 OA 
HETATM   30  C   UNL     1     -11.257  10.045  68.126  1.00  0.00    -0.192 A  
HETATM   31  C   UNL     1     -11.483  15.804  70.051  1.00  0.00    -0.356 C  
HETATM   32  O   UNL     1     -12.704  15.516  70.550  1.00  0.00    -0.434 OA 
HETATM   33  C   UNL     1      -9.961  10.030  67.616  1.00  0.00    -0.214 A  
HETATM   34  O   UNL     1      -8.166  14.098  67.268  1.00  0.00    -0.186 OA 
HETATM   35  O   UNL     1     -10.962  16.903  70.155  1.00  0.00    -0.163 OA 
ENDBRANCH  21  22
ENDBRANCH  20  21
ENDBRANCH   2  20
TORSDOF 6
ENDMDL
MODEL      285
REMARK 921   NORMALIZED FREE ENERGY PREDICTED BY IDOCK:   -4.08 KCAL/MOL
REMARK 922        TOTAL FREE ENERGY PREDICTED BY IDOCK:   -6.81 KCAL/MOL
REMARK 923 INTER-LIGAND FREE ENERGY PREDICTED BY IDOCK:   -6.20 KCAL/MOL
REMARK 924 INTRA-LIGAND FREE ENERGY PREDICTED BY IDOCK:   -0.61 KCAL/MOL
REMARK 927      BINDING AFFINITY PREDICTED BY RF-SCORE:    0.00 PKD
ROOT
HETATM    1  O   UNL     1     -12.455   9.647  71.674  1.00  0.00    -0.353 OA 
HETATM    2  C   UNL     1     -11.652   8.467  71.869  1.00  0.00    -0.329 C  
HETATM    3  H   UNL     1     -11.948  10.395  71.969  1.00  0.00     0.000 HD 
ENDROOT
BRANCH   2   4
HETATM    4  C   UNL     1     -10.348   8.627  71.087  1.00  0.00    -0.230 C  
BRANCH   4   5
HETATM    5  O   UNL     1     -10.607   9.352  69.878  1.00  0.00    -0.211 OA 
BRANCH   5   6
HETATM    6  C   UNL     1      -9.544   9.893  69.208  1.00  0.00    -0.205 A  
HETATM    7  O   UNL     1     -10.940  15.656  66.548  1.00  0.00    -0.298 OA 
HETATM    8  O   UNL     1      -8.862  15.143  65.819  1.00  0.00     0.025 OA 
HETATM    9  C   UNL     1      -8.279   9.287  69.164  1.00  0.00    -0.111 A  
HETATM   10  C   UNL     1      -7.236   9.847  68.427  1.00  0.00    -0.073 A  
HETATM   11  C   UNL     1     -10.002  14.881  66.499  1.00  0.00    -0.265 C  
HETATM   12  C   UNL     1      -7.442  11.024  67.720  1.00  0.00    -0.094 A  
HETATM   13  O   UNL     1      -8.785  12.828  67.065  1.00  0.00    -0.202 OA 
HETATM   14  C   UNL     1      -9.951  13.557  67.173  1.00  0.00    -0.246 C  
HETATM   15  C   UNL     1      -8.686  11.651  67.768  1.00  0.00    -0.152 A  
HETATM   16  C   UNL     1     -11.035  13.157  67.848  1.00  0.00    -0.271 C  
HETATM   17  C   UNL     1      -9.743  11.098  68.505  1.00  0.00    -0.196 A  
HETATM   18  O   UNL     1     -12.037  11.487  69.109  1.00  0.00    -0.325 OA 
HETATM   19  C   UNL     1     -11.023  11.854  68.537  1.00  0.00    -0.235 C  
ENDBRANCH   5   6
ENDBRANCH   4   5
ENDBRANCH   2   4
BRANCH   2  20
HETATM   20  C   UNL     1     -12.470   7.262  71.392  1.00  0.00    -0.383 C  
BRANCH  20  21
HETATM   21  O   UNL     1     -11.736   6.319  70.637  1.00  0.00    -0.343 OA 
BRANCH  21  22
HETATM   22  C   UNL     1     -10.799   5.532  71.266  1.00  0.00    -0.180 A  
HETATM   23  C   UNL     1      -7.939   4.082  69.084  1.00  0.00    -0.057 C  
HETATM   24  C   UNL     1      -8.960   5.055  69.476  1.00  0.00    -0.096 C  
HETATM   25  C   UNL     1      -9.635   4.876  70.797  1.00  0.00    -0.251 A  
HETATM   26  C   UNL     1      -8.976   3.975  71.666  1.00  0.00    -0.118 A  
HETATM   27  C   UNL     1      -7.451   3.251  70.002  1.00  0.00    -0.044 C  
HETATM   28  C   UNL     1      -9.390   3.798  72.991  1.00  0.00    -0.131 A  
HETATM   29  O   UNL     1      -7.889   3.200  71.309  1.00  0.00    -0.050 OA 
HETATM   30  C   UNL     1     -10.481   4.503  73.472  1.00  0.00    -0.272 A  
HETATM   31  C   UNL     1      -6.320   2.380  69.585  1.00  0.00    -0.029 C  
HETATM   32  O   UNL     1      -5.890   1.587  70.589  1.00  0.00    -0.015 OA 
HETATM   33  C   UNL     1     -11.188   5.338  72.610  1.00  0.00    -0.311 A  
HETATM   34  O   UNL     1      -9.112   6.001  68.718  1.00  0.00    -0.124 OA 
HETATM   35  O   UNL     1      -5.821   2.378  68.472  1.00  0.00    -0.022 OA 
ENDBRANCH  21  22
ENDBRANCH  20  21
ENDBRANCH   2  20
TORSDOF 6
ENDMDL
MODEL      286
REMARK 921   NORMALIZED FREE ENERGY PREDICTED BY IDOCK:   -4.08 KCAL/MOL
REMARK 922        TOTAL FREE ENERGY PREDICTED BY IDOCK:   -6.80 KCAL/MOL
REMARK 923 INTER-LIGAND FREE ENERGY PREDICTED BY IDOCK:   -5.90 KCAL/MOL
REMARK 924 INTRA-LIGAND FREE ENERGY PREDICTED BY IDOCK:   -0.90 KCAL/MOL
REMARK 927      BINDING AFFINITY PREDICTED BY RF-SCORE:    0.00 PKD
ROOT
HETATM    1  O   UNL     1     -10.780   4.233  65.431  1.00  0.00    -0.489 OA 
HETATM    2  C   UNL     1      -9.352   4.040  65.408  1.00  0.00    -0.162 C  
HETATM    3  H   UNL     1     -11.187   3.375  65.483  1.00  0.00     0.000 HD 
ENDROOT
BRANCH   2   4
HETATM    4  C   UNL     1      -8.941   3.280  66.668  1.00  0.00    -0.155 C  
BRANCH   4   5
HETATM    5  O   UNL     1      -9.612   3.844  67.802  1.00  0.00    -0.182 OA 
BRANCH   5   6
HETATM    6  C   UNL     1      -8.886   4.066  68.939  1.00  0.00    -0.105 A  
HETATM    7  O   UNL     1     -11.787   8.251  72.978  1.00  0.00    -0.269 OA 
HETATM    8  O   UNL     1      -9.759   7.840  73.890  1.00  0.00    -0.220 OA 
HETATM    9  C   UNL     1      -7.679   3.406  69.217  1.00  0.00    -0.051 A  
HETATM   10  C   UNL     1      -6.943   3.700  70.365  1.00  0.00    -0.034 A  
HETATM   11  C   UNL     1     -10.700   7.705  72.927  1.00  0.00    -0.371 C  
HETATM   12  C   UNL     1      -7.404   4.660  71.255  1.00  0.00    -0.063 A  
HETATM   13  O   UNL     1      -9.001   6.222  71.959  1.00  0.00    -0.142 OA 
HETATM   14  C   UNL     1     -10.243   6.809  71.831  1.00  0.00    -0.189 C  
HETATM   15  C   UNL     1      -8.611   5.312  71.006  1.00  0.00    -0.123 A  
HETATM   16  C   UNL     1     -11.066   6.623  70.792  1.00  0.00    -0.336 C  
HETATM   17  C   UNL     1      -9.359   5.026  69.855  1.00  0.00    -0.198 A  
HETATM   18  O   UNL     1     -11.400   5.616  68.729  1.00  0.00     0.095 OA 
HETATM   19  C   UNL     1     -10.655   5.737  69.689  1.00  0.00    -0.326 C  
ENDBRANCH   5   6
ENDBRANCH   4   5
ENDBRANCH   2   4
BRANCH   2  20
HETATM   20  C   UNL     1      -8.696   5.423  65.323  1.00  0.00    -0.145 C  
BRANCH  20  21
HETATM   21  O   UNL     1      -7.587   5.596  66.181  1.00  0.00    -0.088 OA 
BRANCH  21  22
HETATM   22  C   UNL     1      -7.523   6.711  66.986  1.00  0.00    -0.087 A  
HETATM   23  C   UNL     1     -10.485   9.208  66.806  1.00  0.00    -0.266 C  
HETATM   24  C   UNL     1      -9.833   7.899  66.732  1.00  0.00    -0.248 C  
HETATM   25  C   UNL     1      -8.415   7.791  67.191  1.00  0.00    -0.124 A  
HETATM   26  C   UNL     1      -7.969   8.894  67.957  1.00  0.00    -0.102 A  
HETATM   27  C   UNL     1      -9.914  10.176  67.519  1.00  0.00    -0.191 C  
HETATM   28  C   UNL     1      -6.719   8.892  68.586  1.00  0.00    -0.059 A  
HETATM   29  O   UNL     1      -8.698  10.050  68.158  1.00  0.00    -0.120 OA 
HETATM   30  C   UNL     1      -5.880   7.798  68.450  1.00  0.00    -0.032 A  
HETATM   31  C   UNL     1     -10.685  11.437  67.676  1.00  0.00    -0.216 C  
HETATM   32  O   UNL     1     -10.027  12.347  68.426  1.00  0.00    -0.220 OA 
HETATM   33  C   UNL     1      -6.271   6.736  67.639  1.00  0.00    -0.040 A  
HETATM   34  O   UNL     1     -10.543   6.969  66.380  1.00  0.00    -0.038 OA 
HETATM   35  O   UNL     1     -11.790  11.638  67.199  1.00  0.00    -0.608 OA 
ENDBRANCH  21  22
ENDBRANCH  20  21
ENDBRANCH   2  20
TORSDOF 6
ENDMDL
MODEL      287
REMARK 921   NORMALIZED FREE ENERGY PREDICTED BY IDOCK:   -4.06 KCAL/MOL
REMARK 922        TOTAL FREE ENERGY PREDICTED BY IDOCK:   -6.78 KCAL/MOL
REMARK 923 INTER-LIGAND FREE ENERGY PREDICTED BY IDOCK:   -7.47 KCAL/MOL
REMARK 924 INTRA-LIGAND FREE ENERGY PREDICTED BY IDOCK:    0.69 KCAL/MOL
REMARK 927      BINDING AFFINITY PREDICTED BY RF-SCORE:    0.00 PKD
ROOT
HETATM    1  O   UNL     1     -11.063  11.541  68.584  1.00  0.00    -0.203 OA 
HETATM    2  C   UNL     1      -9.662  11.239  68.434  1.00  0.00    -0.194 C  
HETATM    3  H   UNL     1     -11.138  12.281  69.176  1.00  0.00     0.000 HD 
ENDROOT
BRANCH   2   4
HETATM    4  C   UNL     1      -8.948  12.481  67.902  1.00  0.00    -0.188 C  
BRANCH   4   5
HETATM    5  O   UNL     1      -9.013  12.488  66.470  1.00  0.00    -0.207 OA 
BRANCH   5   6
HETATM    6  C   UNL     1     -10.021  13.193  65.872  1.00  0.00    -0.269 A  
HETATM    7  O   UNL     1      -9.195  19.622  66.343  1.00  0.00    -0.349 OA 
HETATM    8  O   UNL     1     -11.235  19.343  65.408  1.00  0.00    -0.290 OA 
HETATM    9  C   UNL     1     -11.078  12.579  65.181  1.00  0.00    -0.335 A  
HETATM   10  C   UNL     1     -12.113  13.333  64.629  1.00  0.00    -0.458 A  
HETATM   11  C   UNL     1     -10.086  18.886  65.957  1.00  0.00    -0.329 C  
HETATM   12  C   UNL     1     -12.108  14.714  64.759  1.00  0.00    -0.428 A  
HETATM   13  O   UNL     1     -11.122  16.716  65.475  1.00  0.00    -0.107 OA 
HETATM   14  C   UNL     1     -10.052  17.400  66.012  1.00  0.00    -0.262 C  
HETATM   15  C   UNL     1     -11.057  15.344  65.425  1.00  0.00    -0.326 A  
HETATM   16  C   UNL     1      -8.985  16.820  66.573  1.00  0.00    -0.304 C  
HETATM   17  C   UNL     1     -10.011  14.597  65.985  1.00  0.00    -0.337 A  
HETATM   18  O   UNL     1      -7.948  14.841  67.196  1.00  0.00    -0.198 OA 
HETATM   19  C   UNL     1      -8.909  15.350  66.640  1.00  0.00    -0.295 C  
ENDBRANCH   5   6
ENDBRANCH   4   5
ENDBRANCH   2   4
BRANCH   2  20
HETATM   20  C   UNL     1      -9.541  10.047  67.479  1.00  0.00    -0.153 C  
BRANCH  20  21
HETATM   21  O   UNL     1      -8.651   9.039  67.913  1.00  0.00    -0.124 OA 
BRANCH  21  22
HETATM   22  C   UNL     1      -9.157   7.853  68.396  1.00  0.00    -0.135 A  
HETATM   23  C   UNL     1      -7.780   4.572  66.852  1.00  0.00    -0.094 C  
HETATM   24  C   UNL     1      -7.733   5.972  67.279  1.00  0.00    -0.097 C  
HETATM   25  C   UNL     1      -8.872   6.500  68.089  1.00  0.00    -0.115 A  
HETATM   26  C   UNL     1      -9.709   5.498  68.633  1.00  0.00    -0.142 A  
HETATM   27  C   UNL     1      -8.668   3.754  67.413  1.00  0.00    -0.112 C  
HETATM   28  C   UNL     1     -10.736   5.809  69.533  1.00  0.00    -0.408 A  
HETATM   29  O   UNL     1      -9.604   4.151  68.344  1.00  0.00    -0.156 OA 
HETATM   30  C   UNL     1     -10.960   7.128  69.894  1.00  0.00    -0.278 A  
HETATM   31  C   UNL     1      -8.580   2.316  67.045  1.00  0.00    -0.108 C  
HETATM   32  O   UNL     1      -9.512   1.570  67.676  1.00  0.00    -0.126 OA 
HETATM   33  C   UNL     1     -10.195   8.134  69.311  1.00  0.00    -0.216 A  
HETATM   34  O   UNL     1      -6.705   6.575  67.012  1.00  0.00    -0.056 OA 
HETATM   35  O   UNL     1      -7.760   1.847  66.273  1.00  0.00    -0.068 OA 
ENDBRANCH  21  22
ENDBRANCH  20  21
ENDBRANCH   2  20
TORSDOF 6
ENDMDL
MODEL      288
REMARK 921   NORMALIZED FREE ENERGY PREDICTED BY IDOCK:   -4.06 KCAL/MOL
REMARK 922        TOTAL FREE ENERGY PREDICTED BY IDOCK:   -6.78 KCAL/MOL
REMARK 923 INTER-LIGAND FREE ENERGY PREDICTED BY IDOCK:   -7.49 KCAL/MOL
REMARK 924 INTRA-LIGAND FREE ENERGY PREDICTED BY IDOCK:    0.71 KCAL/MOL
REMARK 927      BINDING AFFINITY PREDICTED BY RF-SCORE:    0.00 PKD
ROOT
HETATM    1  O   UNL     1      -9.223  11.517  69.150  1.00  0.00    -0.401 OA 
HETATM    2  C   UNL     1      -8.889  11.319  67.762  1.00  0.00    -0.141 C  
HETATM    3  H   UNL     1      -8.494  11.967  69.561  1.00  0.00     0.000 HD 
ENDROOT
BRANCH   2   4
HETATM    4  C   UNL     1      -8.614  12.681  67.125  1.00  0.00    -0.199 C  
BRANCH   4   5
HETATM    5  O   UNL     1      -9.859  13.293  66.763  1.00  0.00    -0.249 OA 
BRANCH   5   6
HETATM    6  C   UNL     1     -10.565  13.946  67.735  1.00  0.00    -0.246 A  
HETATM    7  O   UNL     1      -9.234  20.304  67.947  1.00  0.00    -0.299 OA 
HETATM    8  O   UNL     1     -10.583  19.911  69.718  1.00  0.00     0.181 OA 
HETATM    9  C   UNL     1     -11.516  13.309  68.548  1.00  0.00    -0.347 A  
HETATM   10  C   UNL     1     -12.178  14.001  69.562  1.00  0.00    -0.355 A  
HETATM   11  C   UNL     1      -9.869  19.526  68.636  1.00  0.00    -0.445 C  
HETATM   12  C   UNL     1     -11.898  15.343  69.781  1.00  0.00    -0.367 A  
HETATM   13  O   UNL     1     -10.784  17.332  69.242  1.00  0.00    -0.260 OA 
HETATM   14  C   UNL     1      -9.972  18.061  68.399  1.00  0.00    -0.378 C  
HETATM   15  C   UNL     1     -10.970  15.998  68.971  1.00  0.00    -0.296 A  
HETATM   16  C   UNL     1      -9.277  17.543  67.380  1.00  0.00    -0.238 C  
HETATM   17  C   UNL     1     -10.298  15.313  67.949  1.00  0.00    -0.246 A  
HETATM   18  O   UNL     1      -8.681  15.636  66.200  1.00  0.00    -0.317 OA 
HETATM   19  C   UNL     1      -9.357  16.097  67.106  1.00  0.00    -0.215 C  
ENDBRANCH   5   6
ENDBRANCH   4   5
ENDBRANCH   2   4
BRANCH   2  20
HETATM   20  C   UNL     1     -10.065  10.594  67.098  1.00  0.00    -0.207 C  
BRANCH  20  21
HETATM   21  O   UNL     1     -10.152   9.218  67.407  1.00  0.00    -0.191 OA 
BRANCH  21  22
HETATM   22  C   UNL     1      -9.617   8.295  66.538  1.00  0.00    -0.244 A  
HETATM   23  C   UNL     1      -9.758   4.566  67.596  1.00  0.00    -0.206 C  
HETATM   24  C   UNL     1     -10.208   5.958  67.538  1.00  0.00    -0.190 C  
HETATM   25  C   UNL     1      -9.522   6.883  66.587  1.00  0.00    -0.209 A  
HETATM   26  C   UNL     1      -8.735   6.228  65.610  1.00  0.00    -0.114 A  
HETATM   27  C   UNL     1      -8.964   4.103  66.632  1.00  0.00    -0.125 C  
HETATM   28  C   UNL     1      -8.140   6.932  64.557  1.00  0.00    -0.069 A  
HETATM   29  O   UNL     1      -8.480   4.871  65.594  1.00  0.00    -0.117 OA 
HETATM   30  C   UNL     1      -8.302   8.305  64.465  1.00  0.00    -0.097 A  
HETATM   31  C   UNL     1      -8.650   2.650  66.663  1.00  0.00    -0.111 C  
HETATM   32  O   UNL     1      -7.853   2.278  65.639  1.00  0.00    -0.075 OA 
HETATM   33  C   UNL     1      -9.011   8.975  65.459  1.00  0.00    -0.252 A  
HETATM   34  O   UNL     1     -11.187   6.228  68.218  1.00  0.00    -0.328 OA 
HETATM   35  O   UNL     1      -9.066   1.868  67.503  1.00  0.00    -0.137 OA 
ENDBRANCH  21  22
ENDBRANCH  20  21
ENDBRANCH   2  20
TORSDOF 6
ENDMDL
MODEL      289
REMARK 921   NORMALIZED FREE ENERGY PREDICTED BY IDOCK:   -4.04 KCAL/MOL
REMARK 922        TOTAL FREE ENERGY PREDICTED BY IDOCK:   -6.76 KCAL/MOL
REMARK 923 INTER-LIGAND FREE ENERGY PREDICTED BY IDOCK:   -5.17 KCAL/MOL
REMARK 924 INTRA-LIGAND FREE ENERGY PREDICTED BY IDOCK:   -1.59 KCAL/MOL
REMARK 927      BINDING AFFINITY PREDICTED BY RF-SCORE:    0.00 PKD
ROOT
HETATM    1  O   UNL     1      -6.393   4.735  71.461  1.00  0.00    -0.020 OA 
HETATM    2  C   UNL     1      -7.809   4.647  71.712  1.00  0.00    -0.098 C  
HETATM    3  H   UNL     1      -6.011   3.886  71.655  1.00  0.00     0.000 HD 
ENDROOT
BRANCH   2   4
HETATM    4  C   UNL     1      -8.393   3.537  70.839  1.00  0.00    -0.066 C  
BRANCH   4   5
HETATM    5  O   UNL     1      -9.049   4.120  69.706  1.00  0.00    -0.088 OA 
BRANCH   5   6
HETATM    6  C   UNL     1      -8.303   4.377  68.588  1.00  0.00    -0.084 A  
HETATM    7  O   UNL     1     -10.082   9.870  65.605  1.00  0.00    -0.289 OA 
HETATM    8  O   UNL     1      -8.543   8.919  64.249  1.00  0.00    -0.176 OA 
HETATM    9  C   UNL     1      -7.233   3.565  68.180  1.00  0.00    -0.051 A  
HETATM   10  C   UNL     1      -6.531   3.834  67.006  1.00  0.00    -0.041 A  
HETATM   11  C   UNL     1      -9.327   8.949  65.351  1.00  0.00    -0.088 C  
HETATM   12  C   UNL     1      -6.888   4.920  66.219  1.00  0.00    -0.065 A  
HETATM   13  O   UNL     1      -8.195   6.817  65.793  1.00  0.00    -0.122 OA 
HETATM   14  C   UNL     1      -9.137   7.740  66.197  1.00  0.00    -0.153 C  
HETATM   15  C   UNL     1      -7.936   5.750  66.618  1.00  0.00    -0.102 A  
HETATM   16  C   UNL     1      -9.886   7.626  67.300  1.00  0.00    -0.245 C  
HETATM   17  C   UNL     1      -8.650   5.489  67.797  1.00  0.00    -0.108 A  
HETATM   18  O   UNL     1     -10.448   6.339  69.146  1.00  0.00    -0.193 OA 
HETATM   19  C   UNL     1      -9.724   6.448  68.169  1.00  0.00    -0.122 C  
ENDBRANCH   5   6
ENDBRANCH   4   5
ENDBRANCH   2   4
BRANCH   2  20
HETATM   20  C   UNL     1      -8.425   6.015  71.399  1.00  0.00    -0.128 C  
BRANCH  20  21
HETATM   21  O   UNL     1      -7.705   7.113  71.922  1.00  0.00    -0.090 OA 
BRANCH  21  22
HETATM   22  C   UNL     1      -7.545   8.244  71.155  1.00  0.00    -0.082 A  
HETATM   23  C   UNL     1     -10.762  10.070  69.988  1.00  0.00    -0.348 C  
HETATM   24  C   UNL     1      -9.936   9.253  70.880  1.00  0.00    -0.297 C  
HETATM   25  C   UNL     1      -8.474   9.152  70.591  1.00  0.00    -0.246 A  
HETATM   26  C   UNL     1      -7.995  10.124  69.682  1.00  0.00    -0.173 A  
HETATM   27  C   UNL     1     -10.166  10.902  69.136  1.00  0.00    -0.195 C  
HETATM   28  C   UNL     1      -6.629  10.265  69.411  1.00  0.00    -0.058 A  
HETATM   29  O   UNL     1      -8.799  11.009  68.990  1.00  0.00    -0.145 OA 
HETATM   30  C   UNL     1      -5.714   9.426  70.027  1.00  0.00    -0.035 A  
HETATM   31  C   UNL     1     -11.049  11.806  68.353  1.00  0.00    -0.237 C  
HETATM   32  O   UNL     1     -10.350  12.617  67.531  1.00  0.00    -0.215 OA 
HETATM   33  C   UNL     1      -6.173   8.415  70.867  1.00  0.00    -0.034 A  
HETATM   34  O   UNL     1     -10.506   8.790  71.856  1.00  0.00    -0.307 OA 
HETATM   35  O   UNL     1     -12.266  11.833  68.440  1.00  0.00    -0.467 OA 
ENDBRANCH  21  22
ENDBRANCH  20  21
ENDBRANCH   2  20
TORSDOF 6
ENDMDL
MODEL      290
REMARK 921   NORMALIZED FREE ENERGY PREDICTED BY IDOCK:   -4.04 KCAL/MOL
REMARK 922        TOTAL FREE ENERGY PREDICTED BY IDOCK:   -6.75 KCAL/MOL
REMARK 923 INTER-LIGAND FREE ENERGY PREDICTED BY IDOCK:   -4.34 KCAL/MOL
REMARK 924 INTRA-LIGAND FREE ENERGY PREDICTED BY IDOCK:   -2.41 KCAL/MOL
REMARK 927      BINDING AFFINITY PREDICTED BY RF-SCORE:    0.00 PKD
ROOT
HETATM    1  O   UNL     1     -10.217   3.631  65.544  1.00  0.00    -0.410 OA 
HETATM    2  C   UNL     1      -8.810   3.606  65.857  1.00  0.00    -0.125 C  
HETATM    3  H   UNL     1     -10.547   2.744  65.627  1.00  0.00     0.000 HD 
ENDROOT
BRANCH   2   4
HETATM    4  C   UNL     1      -8.633   3.051  67.271  1.00  0.00    -0.106 C  
BRANCH   4   5
HETATM    5  O   UNL     1      -9.855   3.219  68.001  1.00  0.00    -0.061 OA 
BRANCH   5   6
HETATM    6  C   UNL     1      -9.776   3.488  69.340  1.00  0.00     0.015 A  
HETATM    7  O   UNL     1     -12.322   9.265  70.882  1.00  0.00    -0.264 OA 
HETATM    8  O   UNL     1     -11.389   8.489  72.790  1.00  0.00    -0.286 OA 
HETATM    9  C   UNL     1      -9.256   2.578  70.274  1.00  0.00    -0.199 A  
HETATM   10  C   UNL     1      -9.146   2.912  71.623  1.00  0.00    -0.163 A  
HETATM   11  C   UNL     1     -11.684   8.412  71.472  1.00  0.00    -0.290 C  
HETATM   12  C   UNL     1      -9.555   4.164  72.062  1.00  0.00    -0.213 A  
HETATM   13  O   UNL     1     -10.499   6.275  71.684  1.00  0.00    -0.208 OA 
HETATM   14  C   UNL     1     -11.149   7.167  70.858  1.00  0.00    -0.263 C  
HETATM   15  C   UNL     1     -10.093   5.074  71.152  1.00  0.00    -0.223 A  
HETATM   16  C   UNL     1     -11.337   6.987  69.545  1.00  0.00    -0.138 C  
HETATM   17  C   UNL     1     -10.207   4.750  69.793  1.00  0.00    -0.218 A  
HETATM   18  O   UNL     1     -10.971   5.638  67.694  1.00  0.00    -0.185 OA 
HETATM   19  C   UNL     1     -10.830   5.763  68.900  1.00  0.00    -0.235 C  
ENDBRANCH   5   6
ENDBRANCH   4   5
ENDBRANCH   2   4
BRANCH   2  20
HETATM   20  C   UNL     1      -8.277   5.037  65.724  1.00  0.00    -0.115 C  
BRANCH  20  21
HETATM   21  O   UNL     1      -6.996   5.237  66.286  1.00  0.00    -0.064 OA 
BRANCH  21  22
HETATM   22  C   UNL     1      -6.884   5.859  67.509  1.00  0.00    -0.060 A  
HETATM   23  C   UNL     1      -5.906   3.649  70.543  1.00  0.00    -0.017 C  
HETATM   24  C   UNL     1      -5.937   4.050  69.135  1.00  0.00    -0.023 C  
HETATM   25  C   UNL     1      -6.529   5.378  68.793  1.00  0.00    -0.043 A  
HETATM   26  C   UNL     1      -6.692   6.242  69.901  1.00  0.00    -0.056 A  
HETATM   27  C   UNL     1      -6.141   4.564  71.481  1.00  0.00    -0.018 C  
HETATM   28  C   UNL     1      -7.097   7.572  69.741  1.00  0.00    -0.068 A  
HETATM   29  O   UNL     1      -6.474   5.875  71.215  1.00  0.00    -0.042 OA 
HETATM   30  C   UNL     1      -7.366   8.063  68.474  1.00  0.00    -0.097 A  
HETATM   31  C   UNL     1      -5.960   4.137  72.894  1.00  0.00    -0.015 C  
HETATM   32  O   UNL     1      -6.207   5.138  73.765  1.00  0.00    -0.048 OA 
HETATM   33  C   UNL     1      -7.284   7.207  67.379  1.00  0.00    -0.090 A  
HETATM   34  O   UNL     1      -5.383   3.292  68.354  1.00  0.00    -0.012 OA 
HETATM   35  O   UNL     1      -5.618   3.019  73.242  1.00  0.00     0.000 OA 
ENDBRANCH  21  22
ENDBRANCH  20  21
ENDBRANCH   2  20
TORSDOF 6
ENDMDL
MODEL      291
REMARK 921   NORMALIZED FREE ENERGY PREDICTED BY IDOCK:   -3.99 KCAL/MOL
REMARK 922        TOTAL FREE ENERGY PREDICTED BY IDOCK:   -6.68 KCAL/MOL
REMARK 923 INTER-LIGAND FREE ENERGY PREDICTED BY IDOCK:   -6.20 KCAL/MOL
REMARK 924 INTRA-LIGAND FREE ENERGY PREDICTED BY IDOCK:   -0.48 KCAL/MOL
REMARK 927      BINDING AFFINITY PREDICTED BY RF-SCORE:    0.00 PKD
ROOT
HETATM    1  O   UNL     1      -5.341  13.985  67.379  1.00  0.00    -0.338 OA 
HETATM    2  C   UNL     1      -5.469  13.100  68.509  1.00  0.00    -0.068 C  
HETATM    3  H   UNL     1      -4.569  13.721  66.891  1.00  0.00     0.000 HD 
ENDROOT
BRANCH   2   4
HETATM    4  C   UNL     1      -5.572  11.664  67.997  1.00  0.00    -0.044 C  
BRANCH   4   5
HETATM    5  O   UNL     1      -6.880  11.152  68.283  1.00  0.00    -0.064 OA 
BRANCH   5   6
HETATM    6  C   UNL     1      -7.334  10.091  67.548  1.00  0.00    -0.090 A  
HETATM    7  O   UNL     1     -11.211   6.158  70.975  1.00  0.00    -0.296 OA 
HETATM    8  O   UNL     1     -10.906   5.123  68.988  1.00  0.00    -0.014 OA 
HETATM    9  C   UNL     1      -7.035   9.919  66.187  1.00  0.00    -0.102 A  
HETATM   10  C   UNL     1      -7.476   8.796  65.489  1.00  0.00    -0.086 A  
HETATM   11  C   UNL     1     -10.691   6.122  69.874  1.00  0.00    -0.301 C  
HETATM   12  C   UNL     1      -8.222   7.824  66.140  1.00  0.00    -0.123 A  
HETATM   13  O   UNL     1      -9.314   6.989  68.038  1.00  0.00    -0.129 OA 
HETATM   14  C   UNL     1      -9.767   7.153  69.330  1.00  0.00    -0.160 C  
HETATM   15  C   UNL     1      -8.545   7.987  67.488  1.00  0.00    -0.126 A  
HETATM   16  C   UNL     1      -9.438   8.179  70.124  1.00  0.00    -0.167 C  
HETATM   17  C   UNL     1      -8.108   9.111  68.201  1.00  0.00    -0.104 A  
HETATM   18  O   UNL     1      -8.208  10.129  70.377  1.00  0.00    -0.107 OA 
HETATM   19  C   UNL     1      -8.532   9.226  69.621  1.00  0.00    -0.140 C  
ENDBRANCH   5   6
ENDBRANCH   4   5
ENDBRANCH   2   4
BRANCH   2  20
HETATM   20  C   UNL     1      -6.713  13.526  69.297  1.00  0.00    -0.080 C  
BRANCH  20  21
HETATM   21  O   UNL     1      -6.480  14.541  70.253  1.00  0.00    -0.177 OA 
BRANCH  21  22
HETATM   22  C   UNL     1      -6.578  15.860  69.874  1.00  0.00    -0.086 A  
HETATM   23  C   UNL     1      -9.441  16.802  67.432  1.00  0.00    -0.236 C  
HETATM   24  C   UNL     1      -8.788  16.037  68.497  1.00  0.00    -0.199 C  
HETATM   25  C   UNL     1      -7.493  16.547  69.039  1.00  0.00    -0.229 A  
HETATM   26  C   UNL     1      -7.209  17.889  68.693  1.00  0.00    -0.272 A  
HETATM   27  C   UNL     1      -9.024  18.041  67.177  1.00  0.00    -0.255 C  
HETATM   28  C   UNL     1      -6.111  18.569  69.234  1.00  0.00    -0.260 A  
HETATM   29  O   UNL     1      -7.962  18.645  67.816  1.00  0.00    -0.245 OA 
HETATM   30  C   UNL     1      -5.263  17.918  70.115  1.00  0.00    -0.230 A  
HETATM   31  C   UNL     1      -9.809  18.821  66.186  1.00  0.00    -0.299 C  
HETATM   32  O   UNL     1      -9.315  20.065  66.008  1.00  0.00    -0.383 OA 
HETATM   33  C   UNL     1      -5.484  16.575  70.408  1.00  0.00    -0.181 A  
HETATM   34  O   UNL     1      -9.414  15.079  68.924  1.00  0.00    -0.198 OA 
HETATM   35  O   UNL     1     -10.795  18.405  65.599  1.00  0.00    -0.411 OA 
ENDBRANCH  21  22
ENDBRANCH  20  21
ENDBRANCH   2  20
TORSDOF 6
ENDMDL
MODEL      292
REMARK 921   NORMALIZED FREE ENERGY PREDICTED BY IDOCK:   -3.93 KCAL/MOL
REMARK 922        TOTAL FREE ENERGY PREDICTED BY IDOCK:   -6.60 KCAL/MOL
REMARK 923 INTER-LIGAND FREE ENERGY PREDICTED BY IDOCK:   -7.09 KCAL/MOL
REMARK 924 INTRA-LIGAND FREE ENERGY PREDICTED BY IDOCK:    0.49 KCAL/MOL
REMARK 927      BINDING AFFINITY PREDICTED BY RF-SCORE:    0.00 PKD
ROOT
HETATM    1  O   UNL     1      -7.188  10.345  70.525  1.00  0.00    -0.429 OA 
HETATM    2  C   UNL     1      -8.026   9.843  69.465  1.00  0.00    -0.148 C  
HETATM    3  H   UNL     1      -7.680  11.009  70.993  1.00  0.00     0.000 HD 
ENDROOT
BRANCH   2   4
HETATM    4  C   UNL     1      -9.310   9.287  70.079  1.00  0.00    -0.209 C  
BRANCH   4   5
HETATM    5  O   UNL     1     -10.412   9.564  69.205  1.00  0.00    -0.199 OA 
BRANCH   5   6
HETATM    6  C   UNL     1     -10.594  10.852  68.783  1.00  0.00    -0.201 A  
HETATM    7  O   UNL     1     -14.166  14.359  72.928  1.00  0.00    -0.398 OA 
HETATM    8  O   UNL     1     -13.844  15.693  71.131  1.00  0.00    -0.583 OA 
HETATM    9  C   UNL     1     -10.012  11.362  67.611  1.00  0.00    -0.196 A  
HETATM   10  C   UNL     1     -10.265  12.668  67.190  1.00  0.00    -0.230 A  
HETATM   11  C   UNL     1     -13.716  14.530  71.809  1.00  0.00    -0.418 C  
HETATM   12  C   UNL     1     -11.104  13.485  67.934  1.00  0.00    -0.288 A  
HETATM   13  O   UNL     1     -12.466  13.894  69.797  1.00  0.00    -0.311 OA 
HETATM   14  C   UNL     1     -12.958  13.516  71.028  1.00  0.00    -0.202 C  
HETATM   15  C   UNL     1     -11.676  13.002  69.111  1.00  0.00    -0.326 A  
HETATM   16  C   UNL     1     -12.796  12.303  71.570  1.00  0.00    -0.384 C  
HETATM   17  C   UNL     1     -11.430  11.692  69.545  1.00  0.00    -0.371 A  
HETATM   18  O   UNL     1     -11.946  10.159  71.323  1.00  0.00    -0.355 OA 
HETATM   19  C   UNL     1     -12.045  11.273  70.832  1.00  0.00    -0.301 C  
ENDBRANCH   5   6
ENDBRANCH   4   5
ENDBRANCH   2   4
BRANCH   2  20
HETATM   20  C   UNL     1      -7.232   8.771  68.710  1.00  0.00    -0.075 C  
BRANCH  20  21
HETATM   21  O   UNL     1      -7.175   7.519  69.361  1.00  0.00    -0.078 OA 
BRANCH  21  22
HETATM   22  C   UNL     1      -8.130   6.568  69.082  1.00  0.00    -0.112 A  
HETATM   23  C   UNL     1      -8.650   5.607  65.361  1.00  0.00    -0.150 C  
HETATM   24  C   UNL     1      -7.898   6.062  66.533  1.00  0.00    -0.104 C  
HETATM   25  C   UNL     1      -8.557   5.973  67.870  1.00  0.00    -0.113 A  
HETATM   26  C   UNL     1      -9.708   5.151  67.895  1.00  0.00    -0.145 A  
HETATM   27  C   UNL     1      -9.756   4.889  65.541  1.00  0.00    -0.112 C  
HETATM   28  C   UNL     1     -10.363   4.842  69.093  1.00  0.00    -0.103 A  
HETATM   29  O   UNL     1     -10.287   4.585  66.776  1.00  0.00    -0.195 OA 
HETATM   30  C   UNL     1      -9.894   5.362  70.289  1.00  0.00    -0.272 A  
HETATM   31  C   UNL     1     -10.402   4.336  64.321  1.00  0.00    -0.019 C  
HETATM   32  O   UNL     1     -11.505   3.613  64.611  1.00  0.00     0.145 OA 
HETATM   33  C   UNL     1      -8.808   6.232  70.275  1.00  0.00    -0.153 A  
HETATM   34  O   UNL     1      -6.741   6.395  66.326  1.00  0.00    -0.053 OA 
HETATM   35  O   UNL     1      -9.990   4.498  63.184  1.00  0.00    -0.006 OA 
ENDBRANCH  21  22
ENDBRANCH  20  21
ENDBRANCH   2  20
TORSDOF 6
ENDMDL
MODEL      293
REMARK 921   NORMALIZED FREE ENERGY PREDICTED BY IDOCK:   -3.93 KCAL/MOL
REMARK 922        TOTAL FREE ENERGY PREDICTED BY IDOCK:   -6.60 KCAL/MOL
REMARK 923 INTER-LIGAND FREE ENERGY PREDICTED BY IDOCK:   -5.27 KCAL/MOL
REMARK 924 INTRA-LIGAND FREE ENERGY PREDICTED BY IDOCK:   -1.32 KCAL/MOL
REMARK 927      BINDING AFFINITY PREDICTED BY RF-SCORE:    0.00 PKD
ROOT
HETATM    1  O   UNL     1      -6.029   6.678  69.256  1.00  0.00    -0.020 OA 
HETATM    2  C   UNL     1      -7.431   6.588  69.576  1.00  0.00    -0.093 C  
HETATM    3  H   UNL     1      -5.654   5.810  69.352  1.00  0.00     0.000 HD 
ENDROOT
BRANCH   2   4
HETATM    4  C   UNL     1      -8.082   5.569  68.641  1.00  0.00    -0.102 C  
BRANCH   4   5
HETATM    5  O   UNL     1      -8.844   6.261  67.643  1.00  0.00    -0.113 OA 
BRANCH   5   6
HETATM    6  C   UNL     1      -8.231   6.568  66.460  1.00  0.00    -0.113 A  
HETATM    7  O   UNL     1     -10.418  12.118  63.881  1.00  0.00    -0.338 OA 
HETATM    8  O   UNL     1      -9.025  11.241  62.331  1.00  0.00    -0.321 OA 
HETATM    9  C   UNL     1      -7.201   5.791  65.908  1.00  0.00    -0.075 A  
HETATM   10  C   UNL     1      -6.638   6.111  64.673  1.00  0.00    -0.038 A  
HETATM   11  C   UNL     1      -9.682  11.221  63.513  1.00  0.00    -0.336 C  
HETATM   12  C   UNL     1      -7.098   7.215  63.968  1.00  0.00    -0.064 A  
HETATM   13  O   UNL     1      -8.474   9.099  63.754  1.00  0.00    -0.180 OA 
HETATM   14  C   UNL     1      -9.380   9.989  64.292  1.00  0.00    -0.288 C  
HETATM   15  C   UNL     1      -8.108   8.010  64.509  1.00  0.00    -0.132 A  
HETATM   16  C   UNL     1     -10.000   9.825  65.466  1.00  0.00    -0.329 C  
HETATM   17  C   UNL     1      -8.682   7.698  65.749  1.00  0.00    -0.151 A  
HETATM   18  O   UNL     1     -10.332   8.469  67.318  1.00  0.00    -0.253 OA 
HETATM   19  C   UNL     1      -9.723   8.623  66.271  1.00  0.00    -0.251 C  
ENDBRANCH   5   6
ENDBRANCH   4   5
ENDBRANCH   2   4
BRANCH   2  20
HETATM   20  C   UNL     1      -8.036   7.988  69.420  1.00  0.00    -0.118 C  
BRANCH  20  21
HETATM   21  O   UNL     1      -7.593   8.926  70.379  1.00  0.00    -0.067 OA 
BRANCH  21  22
HETATM   22  C   UNL     1      -7.320  10.217  69.987  1.00  0.00    -0.165 A  
HETATM   23  C   UNL     1     -10.152  12.163  68.187  1.00  0.00    -0.206 C  
HETATM   24  C   UNL     1      -9.583  11.180  69.111  1.00  0.00    -0.003 C  
HETATM   25  C   UNL     1      -8.107  11.204  69.345  1.00  0.00     0.139 A  
HETATM   26  C   UNL     1      -7.470  12.386  68.902  1.00  0.00     0.001 A  
HETATM   27  C   UNL     1      -9.408  13.200  67.807  1.00  0.00    -0.206 C  
HETATM   28  C   UNL     1      -6.119  12.636  69.170  1.00  0.00    -0.092 A  
HETATM   29  O   UNL     1      -8.094  13.387  68.182  1.00  0.00    -0.136 OA 
HETATM   30  C   UNL     1      -5.371  11.703  69.870  1.00  0.00    -0.083 A  
HETATM   31  C   UNL     1     -10.078  14.239  66.982  1.00  0.00    -0.260 C  
HETATM   32  O   UNL     1      -9.245  15.252  66.660  1.00  0.00    -0.235 OA 
HETATM   33  C   UNL     1      -5.962  10.501  70.249  1.00  0.00    -0.104 A  
HETATM   34  O   UNL     1     -10.387  10.471  69.695  1.00  0.00    -0.231 OA 
HETATM   35  O   UNL     1     -11.247  14.201  66.635  1.00  0.00    -0.309 OA 
ENDBRANCH  21  22
ENDBRANCH  20  21
ENDBRANCH   2  20
TORSDOF 6
ENDMDL
MODEL      294
REMARK 921   NORMALIZED FREE ENERGY PREDICTED BY IDOCK:   -3.92 KCAL/MOL
REMARK 922        TOTAL FREE ENERGY PREDICTED BY IDOCK:   -6.59 KCAL/MOL
REMARK 923 INTER-LIGAND FREE ENERGY PREDICTED BY IDOCK:   -5.33 KCAL/MOL
REMARK 924 INTRA-LIGAND FREE ENERGY PREDICTED BY IDOCK:   -1.26 KCAL/MOL
REMARK 927      BINDING AFFINITY PREDICTED BY RF-SCORE:    0.00 PKD
ROOT
HETATM    1  O   UNL     1      -8.542   6.772  73.040  1.00  0.00    -0.120 OA 
HETATM    2  C   UNL     1      -8.345   6.341  71.679  1.00  0.00    -0.129 C  
HETATM    3  H   UNL     1      -7.725   7.152  73.344  1.00  0.00     0.000 HD 
ENDROOT
BRANCH   2   4
HETATM    4  C   UNL     1      -7.918   7.546  70.840  1.00  0.00    -0.096 C  
BRANCH   4   5
HETATM    5  O   UNL     1      -6.693   7.240  70.161  1.00  0.00    -0.052 OA 
BRANCH   5   6
HETATM    6  C   UNL     1      -6.758   6.506  69.009  1.00  0.00    -0.053 A  
HETATM    7  O   UNL     1      -5.973  10.146  63.682  1.00  0.00    -0.122 OA 
HETATM    8  O   UNL     1      -6.497   8.079  62.929  1.00  0.00    -0.079 OA 
HETATM    9  C   UNL     1      -6.915   5.112  68.999  1.00  0.00    -0.056 A  
HETATM   10  C   UNL     1      -7.028   4.407  67.800  1.00  0.00    -0.056 A  
HETATM   11  C   UNL     1      -6.283   8.989  63.906  1.00  0.00    -0.087 C  
HETATM   12  C   UNL     1      -6.987   5.087  66.591  1.00  0.00    -0.067 A  
HETATM   13  O   UNL     1      -6.751   7.052  65.337  1.00  0.00    -0.049 OA 
HETATM   14  C   UNL     1      -6.458   8.398  65.260  1.00  0.00    -0.055 C  
HETATM   15  C   UNL     1      -6.812   6.471  66.581  1.00  0.00    -0.065 A  
HETATM   16  C   UNL     1      -6.314   9.204  66.318  1.00  0.00    -0.065 C  
HETATM   17  C   UNL     1      -6.698   7.190  67.779  1.00  0.00    -0.064 A  
HETATM   18  O   UNL     1      -6.382   9.418  68.626  1.00  0.00    -0.048 OA 
HETATM   19  C   UNL     1      -6.472   8.656  67.676  1.00  0.00    -0.061 C  
ENDBRANCH   5   6
ENDBRANCH   4   5
ENDBRANCH   2   4
BRANCH   2  20
HETATM   20  C   UNL     1      -9.662   5.730  71.187  1.00  0.00    -0.169 C  
BRANCH  20  21
HETATM   21  O   UNL     1     -10.608   6.674  70.728  1.00  0.00    -0.215 OA 
BRANCH  21  22
HETATM   22  C   UNL     1     -10.511   7.156  69.442  1.00  0.00    -0.222 A  
HETATM   23  C   UNL     1     -11.055  10.962  68.926  1.00  0.00    -0.307 C  
HETATM   24  C   UNL     1     -10.656   9.754  69.652  1.00  0.00    -0.239 C  
HETATM   25  C   UNL     1     -10.623   8.461  68.904  1.00  0.00    -0.162 A  
HETATM   26  C   UNL     1     -10.661   8.605  67.497  1.00  0.00    -0.222 A  
HETATM   27  C   UNL     1     -11.105  10.931  67.596  1.00  0.00    -0.313 C  
HETATM   28  C   UNL     1     -10.493   7.509  66.643  1.00  0.00    -0.201 A  
HETATM   29  O   UNL     1     -10.859   9.804  66.840  1.00  0.00    -0.170 OA 
HETATM   30  C   UNL     1     -10.303   6.243  67.174  1.00  0.00    -0.286 A  
HETATM   31  C   UNL     1     -11.379  12.218  66.905  1.00  0.00    -0.333 C  
HETATM   32  O   UNL     1     -11.395  12.084  65.562  1.00  0.00    -0.336 OA 
HETATM   33  C   UNL     1     -10.338   6.071  68.555  1.00  0.00    -0.254 A  
HETATM   34  O   UNL     1     -10.288   9.923  70.804  1.00  0.00    -0.273 OA 
HETATM   35  O   UNL     1     -11.561  13.284  67.472  1.00  0.00    -0.305 OA 
ENDBRANCH  21  22
ENDBRANCH  20  21
ENDBRANCH   2  20
TORSDOF 6
ENDMDL
MODEL      295
REMARK 921   NORMALIZED FREE ENERGY PREDICTED BY IDOCK:   -3.87 KCAL/MOL
REMARK 922        TOTAL FREE ENERGY PREDICTED BY IDOCK:   -6.52 KCAL/MOL
REMARK 923 INTER-LIGAND FREE ENERGY PREDICTED BY IDOCK:   -5.67 KCAL/MOL
REMARK 924 INTRA-LIGAND FREE ENERGY PREDICTED BY IDOCK:   -0.85 KCAL/MOL
REMARK 927      BINDING AFFINITY PREDICTED BY RF-SCORE:    0.00 PKD
ROOT
HETATM    1  O   UNL     1      -6.754  12.489  69.612  1.00  0.00    -0.309 OA 
HETATM    2  C   UNL     1      -7.357  11.951  68.419  1.00  0.00    -0.095 C  
HETATM    3  H   UNL     1      -6.701  11.788  70.252  1.00  0.00     0.000 HD 
ENDROOT
BRANCH   2   4
HETATM    4  C   UNL     1      -6.505  10.781  67.926  1.00  0.00    -0.062 C  
BRANCH   4   5
HETATM    5  O   UNL     1      -6.441   9.778  68.948  1.00  0.00    -0.045 OA 
BRANCH   5   6
HETATM    6  C   UNL     1      -7.593   9.120  69.280  1.00  0.00    -0.079 A  
HETATM    7  O   UNL     1      -9.459   4.890  64.713  1.00  0.00    -0.085 OA 
HETATM    8  O   UNL     1     -11.129   4.906  66.237  1.00  0.00    -0.044 OA 
HETATM    9  C   UNL     1      -8.253   9.303  70.506  1.00  0.00    -0.219 A  
HETATM   10  C   UNL     1      -9.453   8.650  70.784  1.00  0.00    -0.231 A  
HETATM   11  C   UNL     1      -9.944   5.329  65.740  1.00  0.00    -0.009 C  
HETATM   12  C   UNL     1     -10.014   7.802  69.840  1.00  0.00    -0.191 A  
HETATM   13  O   UNL     1      -9.978   6.710  67.767  1.00  0.00    -0.124 OA 
HETATM   14  C   UNL     1      -9.322   6.368  66.603  1.00  0.00    -0.153 C  
HETATM   15  C   UNL     1      -9.363   7.591  68.624  1.00  0.00    -0.143 A  
HETATM   16  C   UNL     1      -8.163   6.902  66.201  1.00  0.00    -0.121 C  
HETATM   17  C   UNL     1      -8.157   8.243  68.333  1.00  0.00    -0.127 A  
HETATM   18  O   UNL     1      -6.475   8.436  66.625  1.00  0.00    -0.054 OA 
HETATM   19  C   UNL     1      -7.509   7.929  67.031  1.00  0.00    -0.092 C  
ENDBRANCH   5   6
ENDBRANCH   4   5
ENDBRANCH   2   4
BRANCH   2  20
HETATM   20  C   UNL     1      -7.442  13.081  67.388  1.00  0.00    -0.131 C  
BRANCH  20  21
HETATM   21  O   UNL     1      -8.626  13.080  66.617  1.00  0.00    -0.108 OA 
BRANCH  21  22
HETATM   22  C   UNL     1      -9.587  12.123  66.855  1.00  0.00    -0.206 A  
HETATM   23  C   UNL     1     -11.691  12.483  70.093  1.00  0.00    -0.255 C  
HETATM   24  C   UNL     1     -10.902  12.951  68.951  1.00  0.00    -0.200 C  
HETATM   25  C   UNL     1     -10.531  11.960  67.897  1.00  0.00    -0.225 A  
HETATM   26  C   UNL     1     -11.264  10.751  67.955  1.00  0.00    -0.318 A  
HETATM   27  C   UNL     1     -12.277  11.289  70.028  1.00  0.00    -0.314 C  
HETATM   28  C   UNL     1     -11.146   9.774  66.960  1.00  0.00     0.103 A  
HETATM   29  O   UNL     1     -12.146  10.421  68.965  1.00  0.00    -0.173 OA 
HETATM   30  C   UNL     1     -10.280   9.973  65.897  1.00  0.00    -0.275 A  
HETATM   31  C   UNL     1     -13.177  10.923  71.154  1.00  0.00    -0.128 C  
HETATM   32  O   UNL     1     -13.733   9.704  70.987  1.00  0.00    -0.274 OA 
HETATM   33  C   UNL     1      -9.495  11.122  65.863  1.00  0.00    -0.241 A  
HETATM   34  O   UNL     1     -10.690  14.153  68.909  1.00  0.00    -0.251 OA 
HETATM   35  O   UNL     1     -13.406  11.635  72.118  1.00  0.00    -0.491 OA 
ENDBRANCH  21  22
ENDBRANCH  20  21
ENDBRANCH   2  20
TORSDOF 6
ENDMDL
MODEL      296
REMARK 921   NORMALIZED FREE ENERGY PREDICTED BY IDOCK:   -3.85 KCAL/MOL
REMARK 922        TOTAL FREE ENERGY PREDICTED BY IDOCK:   -6.50 KCAL/MOL
REMARK 923 INTER-LIGAND FREE ENERGY PREDICTED BY IDOCK:   -5.50 KCAL/MOL
REMARK 924 INTRA-LIGAND FREE ENERGY PREDICTED BY IDOCK:   -1.00 KCAL/MOL
REMARK 927      BINDING AFFINITY PREDICTED BY RF-SCORE:    0.00 PKD
ROOT
HETATM    1  O   UNL     1      -7.297  11.379  69.462  1.00  0.00    -0.318 OA 
HETATM    2  C   UNL     1      -6.794  12.388  68.564  1.00  0.00    -0.082 C  
HETATM    3  H   UNL     1      -7.579  11.815  70.258  1.00  0.00     0.000 HD 
ENDROOT
BRANCH   2   4
HETATM    4  C   UNL     1      -7.902  13.408  68.304  1.00  0.00    -0.143 C  
BRANCH   4   5
HETATM    5  O   UNL     1      -7.530  14.668  68.876  1.00  0.00    -0.120 OA 
BRANCH   5   6
HETATM    6  C   UNL     1      -7.030  15.633  68.045  1.00  0.00    -0.129 A  
HETATM    7  O   UNL     1     -11.520  19.999  66.307  1.00  0.00     0.372 OA 
HETATM    8  O   UNL     1      -9.679  20.513  65.099  1.00  0.00     0.265 OA 
HETATM    9  C   UNL     1      -5.679  15.694  67.669  1.00  0.00    -0.133 A  
HETATM   10  C   UNL     1      -5.222  16.665  66.779  1.00  0.00     0.002 A  
HETATM   11  C   UNL     1     -10.371  19.758  65.982  1.00  0.00    -0.511 C  
HETATM   12  C   UNL     1      -6.109  17.591  66.249  1.00  0.00    -0.257 A  
HETATM   13  O   UNL     1      -8.247  18.534  66.074  1.00  0.00    -0.466 OA 
HETATM   14  C   UNL     1      -9.555  18.628  66.502  1.00  0.00    -0.337 C  
HETATM   15  C   UNL     1      -7.452  17.558  66.625  1.00  0.00    -0.245 A  
HETATM   16  C   UNL     1     -10.136  17.778  67.355  1.00  0.00    -0.338 C  
HETATM   17  C   UNL     1      -7.924  16.587  67.519  1.00  0.00    -0.176 A  
HETATM   18  O   UNL     1      -9.922  15.859  68.641  1.00  0.00    -0.204 OA 
HETATM   19  C   UNL     1      -9.360  16.650  67.899  1.00  0.00    -0.221 C  
ENDBRANCH   5   6
ENDBRANCH   4   5
ENDBRANCH   2   4
BRANCH   2  20
HETATM   20  C   UNL     1      -6.340  11.685  67.280  1.00  0.00    -0.118 C  
BRANCH  20  21
HETATM   21  O   UNL     1      -7.323  11.627  66.266  1.00  0.00     0.035 OA 
BRANCH  21  22
HETATM   22  C   UNL     1      -7.741  10.401  65.800  1.00  0.00    -0.146 A  
HETATM   23  C   UNL     1     -10.054   8.313  68.109  1.00  0.00    -0.238 C  
HETATM   24  C   UNL     1      -9.476   9.536  67.546  1.00  0.00    -0.130 C  
HETATM   25  C   UNL     1      -8.589   9.410  66.351  1.00  0.00    -0.144 A  
HETATM   26  C   UNL     1      -8.673   8.159  65.696  1.00  0.00    -0.145 A  
HETATM   27  C   UNL     1     -10.005   7.188  67.399  1.00  0.00    -0.172 C  
HETATM   28  C   UNL     1      -8.021   7.922  64.481  1.00  0.00    -0.140 A  
HETATM   29  O   UNL     1      -9.386   7.076  66.172  1.00  0.00    -0.138 OA 
HETATM   30  C   UNL     1      -7.255   8.922  63.902  1.00  0.00    -0.096 A  
HETATM   31  C   UNL     1     -10.727   6.013  67.954  1.00  0.00    -0.284 C  
HETATM   32  O   UNL     1     -10.629   4.930  67.155  1.00  0.00    -0.136 OA 
HETATM   33  C   UNL     1      -7.100  10.134  64.570  1.00  0.00    -0.119 A  
HETATM   34  O   UNL     1      -9.849  10.582  68.054  1.00  0.00    -0.145 OA 
HETATM   35  O   UNL     1     -11.350   6.015  69.003  1.00  0.00    -0.340 OA 
ENDBRANCH  21  22
ENDBRANCH  20  21
ENDBRANCH   2  20
TORSDOF 6
ENDMDL
MODEL      297
REMARK 921   NORMALIZED FREE ENERGY PREDICTED BY IDOCK:   -3.84 KCAL/MOL
REMARK 922        TOTAL FREE ENERGY PREDICTED BY IDOCK:   -6.49 KCAL/MOL
REMARK 923 INTER-LIGAND FREE ENERGY PREDICTED BY IDOCK:   -5.74 KCAL/MOL
REMARK 924 INTRA-LIGAND FREE ENERGY PREDICTED BY IDOCK:   -0.75 KCAL/MOL
REMARK 927      BINDING AFFINITY PREDICTED BY RF-SCORE:    0.00 PKD
ROOT
HETATM    1  O   UNL     1      -7.011  10.965  65.191  1.00  0.00    -0.360 OA 
HETATM    2  C   UNL     1      -8.316  10.493  65.578  1.00  0.00    -0.170 C  
HETATM    3  H   UNL     1      -7.106  11.858  64.881  1.00  0.00     0.000 HD 
ENDROOT
BRANCH   2   4
HETATM    4  C   UNL     1      -8.873  11.424  66.656  1.00  0.00    -0.183 C  
BRANCH   4   5
HETATM    5  O   UNL     1      -8.484  12.772  66.364  1.00  0.00     0.071 OA 
BRANCH   5   6
HETATM    6  C   UNL     1      -9.464  13.723  66.274  1.00  0.00    -0.202 A  
HETATM    7  O   UNL     1      -7.823  19.287  69.204  1.00  0.00    -0.321 OA 
HETATM    8  O   UNL     1      -9.977  19.551  68.571  1.00  0.00    -0.397 OA 
HETATM    9  C   UNL     1     -10.661  13.523  65.568  1.00  0.00    -0.293 A  
HETATM   10  C   UNL     1     -11.656  14.499  65.545  1.00  0.00    -0.350 A  
HETATM   11  C   UNL     1      -8.835  18.838  68.696  1.00  0.00    -0.325 C  
HETATM   12  C   UNL     1     -11.471  15.693  66.228  1.00  0.00     0.189 A  
HETATM   13  O   UNL     1     -10.174  17.141  67.536  1.00  0.00    -0.302 OA 
HETATM   14  C   UNL     1      -8.973  17.469  68.131  1.00  0.00    -0.266 C  
HETATM   15  C   UNL     1     -10.280  15.918  66.918  1.00  0.00    -0.277 A  
HETATM   16  C   UNL     1      -7.925  16.644  68.228  1.00  0.00    -0.192 C  
HETATM   17  C   UNL     1      -9.272  14.944  66.950  1.00  0.00    -0.265 A  
HETATM   18  O   UNL     1      -7.067  14.529  67.813  1.00  0.00    -0.141 OA 
HETATM   19  C   UNL     1      -8.018  15.282  67.674  1.00  0.00    -0.160 C  
ENDBRANCH   5   6
ENDBRANCH   4   5
ENDBRANCH   2   4
BRANCH   2  20
HETATM   20  C   UNL     1      -8.163   9.053  66.079  1.00  0.00    -0.113 C  
BRANCH  20  21
HETATM   21  O   UNL     1      -7.040   8.840  66.911  1.00  0.00    -0.076 OA 
BRANCH  21  22
HETATM   22  C   UNL     1      -7.230   8.586  68.250  1.00  0.00    -0.086 A  
HETATM   23  C   UNL     1      -8.725   5.139  69.212  1.00  0.00    -0.108 C  
HETATM   24  C   UNL     1      -7.959   6.085  68.397  1.00  0.00    -0.107 C  
HETATM   25  C   UNL     1      -7.718   7.453  68.945  1.00  0.00    -0.115 A  
HETATM   26  C   UNL     1      -7.972   7.575  70.331  1.00  0.00    -0.102 A  
HETATM   27  C   UNL     1      -8.940   5.418  70.496  1.00  0.00    -0.134 C  
HETATM   28  C   UNL     1      -7.662   8.745  71.034  1.00  0.00    -0.137 A  
HETATM   29  O   UNL     1      -8.534   6.583  71.112  1.00  0.00    -0.125 OA 
HETATM   30  C   UNL     1      -7.109   9.825  70.365  1.00  0.00    -0.146 A  
HETATM   31  C   UNL     1      -9.600   4.363  71.310  1.00  0.00    -0.172 C  
HETATM   32  O   UNL     1      -9.759   4.736  72.597  1.00  0.00    -0.137 OA 
HETATM   33  C   UNL     1      -6.921   9.750  68.987  1.00  0.00    -0.058 A  
HETATM   34  O   UNL     1      -7.495   5.638  67.360  1.00  0.00    -0.082 OA 
HETATM   35  O   UNL     1      -9.954   3.277  70.881  1.00  0.00    -0.096 OA 
ENDBRANCH  21  22
ENDBRANCH  20  21
ENDBRANCH   2  20
TORSDOF 6
ENDMDL
MODEL      298
REMARK 921   NORMALIZED FREE ENERGY PREDICTED BY IDOCK:   -3.84 KCAL/MOL
REMARK 922        TOTAL FREE ENERGY PREDICTED BY IDOCK:   -6.48 KCAL/MOL
REMARK 923 INTER-LIGAND FREE ENERGY PREDICTED BY IDOCK:   -6.73 KCAL/MOL
REMARK 924 INTRA-LIGAND FREE ENERGY PREDICTED BY IDOCK:    0.25 KCAL/MOL
REMARK 927      BINDING AFFINITY PREDICTED BY RF-SCORE:    0.00 PKD
ROOT
HETATM    1  O   UNL     1      -6.778  12.875  69.598  1.00  0.00    -0.308 OA 
HETATM    2  C   UNL     1      -6.630  14.065  68.800  1.00  0.00    -0.096 C  
HETATM    3  H   UNL     1      -6.318  13.016  70.417  1.00  0.00     0.000 HD 
ENDROOT
BRANCH   2   4
HETATM    4  C   UNL     1      -7.191  15.252  69.583  1.00  0.00    -0.187 C  
BRANCH   4   5
HETATM    5  O   UNL     1      -6.324  16.381  69.418  1.00  0.00    -0.175 OA 
BRANCH   5   6
HETATM    6  C   UNL     1      -6.299  17.005  68.201  1.00  0.00    -0.142 A  
HETATM    7  O   UNL     1     -11.883  20.037  66.835  1.00  0.00     0.970 OA 
HETATM    8  O   UNL     1     -10.629  20.211  64.962  1.00  0.00    -0.041 OA 
HETATM    9  C   UNL     1      -5.163  17.031  67.377  1.00  0.00    -0.152 A  
HETATM   10  C   UNL     1      -5.196  17.634  66.121  1.00  0.00    -0.228 A  
HETATM   11  C   UNL     1     -10.860  19.785  66.225  1.00  0.00    -0.283 C  
HETATM   12  C   UNL     1      -6.368  18.222  65.666  1.00  0.00    -0.300 A  
HETATM   13  O   UNL     1      -8.604  18.858  65.957  1.00  0.00    -0.467 OA 
HETATM   14  C   UNL     1      -9.716  18.999  66.760  1.00  0.00    -0.330 C  
HETATM   15  C   UNL     1      -7.502  18.224  66.478  1.00  0.00    -0.236 A  
HETATM   16  C   UNL     1      -9.834  18.483  67.989  1.00  0.00    -0.370 C  
HETATM   17  C   UNL     1      -7.481  17.620  67.743  1.00  0.00    -0.205 A  
HETATM   18  O   UNL     1      -8.865  17.203  69.664  1.00  0.00     0.389 OA 
HETATM   19  C   UNL     1      -8.721  17.704  68.560  1.00  0.00    -0.285 C  
ENDBRANCH   5   6
ENDBRANCH   4   5
ENDBRANCH   2   4
BRANCH   2  20
HETATM   20  C   UNL     1      -7.374  13.838  67.479  1.00  0.00    -0.162 C  
BRANCH  20  21
HETATM   21  O   UNL     1      -8.762  14.096  67.538  1.00  0.00    -0.181 OA 
BRANCH  21  22
HETATM   22  C   UNL     1      -9.614  13.110  67.981  1.00  0.00    -0.220 A  
HETATM   23  C   UNL     1     -12.127  14.056  70.780  1.00  0.00    -0.417 C  
HETATM   24  C   UNL     1     -11.271  14.291  69.615  1.00  0.00    -0.210 C  
HETATM   25  C   UNL     1     -10.650  13.109  68.947  1.00  0.00    -0.159 A  
HETATM   26  C   UNL     1     -11.224  11.869  69.313  1.00  0.00    -0.242 A  
HETATM   27  C   UNL     1     -12.544  12.818  71.037  1.00  0.00    -0.271 C  
HETATM   28  C   UNL     1     -10.861  10.676  68.676  1.00  0.00    -0.266 A  
HETATM   29  O   UNL     1     -12.174  11.711  70.303  1.00  0.00    -0.331 OA 
HETATM   30  C   UNL     1      -9.904  10.692  67.675  1.00  0.00    -0.191 A  
HETATM   31  C   UNL     1     -13.520  12.656  72.146  1.00  0.00    -0.460 C  
HETATM   32  O   UNL     1     -13.891  11.369  72.316  1.00  0.00    -0.005 OA 
HETATM   33  C   UNL     1      -9.274  11.892  67.353  1.00  0.00    -0.177 A  
HETATM   34  O   UNL     1     -11.210  15.447  69.225  1.00  0.00    -0.258 OA 
HETATM   35  O   UNL     1     -13.955  13.571  72.826  1.00  0.00    -0.733 OA 
ENDBRANCH  21  22
ENDBRANCH  20  21
ENDBRANCH   2  20
TORSDOF 6
ENDMDL
MODEL      299
REMARK 921   NORMALIZED FREE ENERGY PREDICTED BY IDOCK:   -3.84 KCAL/MOL
REMARK 922        TOTAL FREE ENERGY PREDICTED BY IDOCK:   -6.48 KCAL/MOL
REMARK 923 INTER-LIGAND FREE ENERGY PREDICTED BY IDOCK:   -6.50 KCAL/MOL
REMARK 924 INTRA-LIGAND FREE ENERGY PREDICTED BY IDOCK:    0.02 KCAL/MOL
REMARK 927      BINDING AFFINITY PREDICTED BY RF-SCORE:    0.00 PKD
ROOT
HETATM    1  O   UNL     1     -10.577  12.141  68.550  1.00  0.00    -0.221 OA 
HETATM    2  C   UNL     1      -9.248  11.609  68.379  1.00  0.00    -0.182 C  
HETATM    3  H   UNL     1     -10.569  12.696  69.321  1.00  0.00     0.000 HD 
ENDROOT
BRANCH   2   4
HETATM    4  C   UNL     1      -8.268  12.774  68.245  1.00  0.00    -0.159 C  
BRANCH   4   5
HETATM    5  O   UNL     1      -8.233  13.209  66.880  1.00  0.00    -0.103 OA 
BRANCH   5   6
HETATM    6  C   UNL     1      -8.991  14.291  66.526  1.00  0.00    -0.132 A  
HETATM    7  O   UNL     1      -5.897  19.925  67.492  1.00  0.00    -0.179 OA 
HETATM    8  O   UNL     1      -7.999  20.489  66.879  1.00  0.00    -0.303 OA 
HETATM    9  C   UNL     1     -10.270  14.178  65.960  1.00  0.00    -0.318 A  
HETATM   10  C   UNL     1     -11.029  15.309  65.661  1.00  0.00    -0.348 A  
HETATM   11  C   UNL     1      -7.029  19.597  67.185  1.00  0.00    -0.206 C  
HETATM   12  C   UNL     1     -10.522  16.573  65.925  1.00  0.00    -0.335 A  
HETATM   13  O   UNL     1      -8.815  17.997  66.666  1.00  0.00    -0.253 OA 
HETATM   14  C   UNL     1      -7.516  18.195  67.087  1.00  0.00    -0.209 C  
HETATM   15  C   UNL     1      -9.245  16.707  66.470  1.00  0.00    -0.270 A  
HETATM   16  C   UNL     1      -6.665  17.214  67.405  1.00  0.00    -0.173 C  
HETATM   17  C   UNL     1      -8.472  15.577  66.775  1.00  0.00    -0.314 A  
HETATM   18  O   UNL     1      -6.328  14.932  67.652  1.00  0.00    -0.179 OA 
HETATM   19  C   UNL     1      -7.105  15.811  67.313  1.00  0.00    -0.210 C  
ENDBRANCH   5   6
ENDBRANCH   4   5
ENDBRANCH   2   4
BRANCH   2  20
HETATM   20  C   UNL     1      -9.260  10.714  67.135  1.00  0.00    -0.147 C  
BRANCH  20  21
HETATM   21  O   UNL     1      -8.443   9.565  67.234  1.00  0.00    -0.126 OA 
BRANCH  21  22
HETATM   22  C   UNL     1      -9.029   8.321  67.269  1.00  0.00    -0.137 A  
HETATM   23  C   UNL     1      -8.196   5.881  64.370  1.00  0.00    -0.099 C  
HETATM   24  C   UNL     1      -7.948   6.977  65.310  1.00  0.00    -0.127 C  
HETATM   25  C   UNL     1      -8.932   7.197  66.412  1.00  0.00    -0.178 A  
HETATM   26  C   UNL     1      -9.820   6.115  66.621  1.00  0.00    -0.159 A  
HETATM   27  C   UNL     1      -9.111   4.963  64.675  1.00  0.00    -0.074 C  
HETATM   28  C   UNL     1     -10.708   6.094  67.701  1.00  0.00    -0.388 A  
HETATM   29  O   UNL     1      -9.897   5.002  65.807  1.00  0.00    -0.166 OA 
HETATM   30  C   UNL     1     -10.745   7.160  68.586  1.00  0.00    -0.198 A  
HETATM   31  C   UNL     1      -9.225   3.800  63.756  1.00  0.00    -0.123 C  
HETATM   32  O   UNL     1     -10.168   2.922  64.159  1.00  0.00    -0.145 OA 
HETATM   33  C   UNL     1      -9.932   8.267  68.353  1.00  0.00    -0.211 A  
HETATM   34  O   UNL     1      -6.890   7.571  65.166  1.00  0.00    -0.046 OA 
HETATM   35  O   UNL     1      -8.545   3.638  62.755  1.00  0.00    -0.084 OA 
ENDBRANCH  21  22
ENDBRANCH  20  21
ENDBRANCH   2  20
TORSDOF 6
ENDMDL
MODEL      300
REMARK 921   NORMALIZED FREE ENERGY PREDICTED BY IDOCK:   -3.79 KCAL/MOL
REMARK 922        TOTAL FREE ENERGY PREDICTED BY IDOCK:   -6.41 KCAL/MOL
REMARK 923 INTER-LIGAND FREE ENERGY PREDICTED BY IDOCK:   -6.15 KCAL/MOL
REMARK 924 INTRA-LIGAND FREE ENERGY PREDICTED BY IDOCK:   -0.27 KCAL/MOL
REMARK 927      BINDING AFFINITY PREDICTED BY RF-SCORE:    0.00 PKD
ROOT
HETATM    1  O   UNL     1      -8.098  11.154  63.582  1.00  0.00    -0.304 OA 
HETATM    2  C   UNL     1      -8.563  10.269  64.620  1.00  0.00    -0.185 C  
HETATM    3  H   UNL     1      -8.004  12.021  63.961  1.00  0.00     0.000 HD 
ENDROOT
BRANCH   2   4
HETATM    4  C   UNL     1      -7.557  10.292  65.771  1.00  0.00    -0.143 C  
BRANCH   4   5
HETATM    5  O   UNL     1      -7.870  11.380  66.651  1.00  0.00    -0.153 OA 
BRANCH   5   6
HETATM    6  C   UNL     1      -9.087  11.377  67.275  1.00  0.00    -0.162 A  
HETATM    7  O   UNL     1     -10.762  17.245  69.510  1.00  0.00    -0.214 OA 
HETATM    8  O   UNL     1     -12.358  15.833  70.267  1.00  0.00    -0.391 OA 
HETATM    9  C   UNL     1      -9.900  10.236  67.360  1.00  0.00    -0.214 A  
HETATM   10  C   UNL     1     -11.112  10.263  68.050  1.00  0.00    -0.336 A  
HETATM   11  C   UNL     1     -11.208  16.117  69.613  1.00  0.00    -0.331 C  
HETATM   12  C   UNL     1     -11.530  11.433  68.668  1.00  0.00    -0.359 A  
HETATM   13  O   UNL     1     -11.255  13.700  69.195  1.00  0.00    -0.256 OA 
HETATM   14  C   UNL     1     -10.585  14.895  69.037  1.00  0.00    -0.245 C  
HETATM   15  C   UNL     1     -10.744  12.582  68.579  1.00  0.00    -0.239 A  
HETATM   16  C   UNL     1      -9.418  15.031  68.397  1.00  0.00    -0.201 C  
HETATM   17  C   UNL     1      -9.524  12.567  67.888  1.00  0.00    -0.196 A  
HETATM   18  O   UNL     1      -7.684  13.984  67.266  1.00  0.00    -0.175 OA 
HETATM   19  C   UNL     1      -8.771  13.847  67.806  1.00  0.00    -0.187 C  
ENDBRANCH   5   6
ENDBRANCH   4   5
ENDBRANCH   2   4
BRANCH   2  20
HETATM   20  C   UNL     1      -8.713   8.871  64.009  1.00  0.00    -0.038 C  
BRANCH  20  21
HETATM   21  O   UNL     1      -7.661   7.981  64.323  1.00  0.00    -0.113 OA 
BRANCH  21  22
HETATM   22  C   UNL     1      -7.905   6.626  64.340  1.00  0.00    -0.114 A  
HETATM   23  C   UNL     1      -9.125   5.082  67.683  1.00  0.00    -0.121 C  
HETATM   24  C   UNL     1      -8.966   6.130  66.673  1.00  0.00    -0.130 C  
HETATM   25  C   UNL     1      -8.373   5.755  65.354  1.00  0.00    -0.142 A  
HETATM   26  C   UNL     1      -8.338   4.362  65.110  1.00  0.00    -0.116 A  
HETATM   27  C   UNL     1      -9.003   3.808  67.316  1.00  0.00    -0.140 C  
HETATM   28  C   UNL     1      -7.949   3.844  63.870  1.00  0.00    -0.088 A  
HETATM   29  O   UNL     1      -8.675   3.398  66.041  1.00  0.00    -0.114 OA 
HETATM   30  C   UNL     1      -7.568   4.704  62.852  1.00  0.00    -0.061 A  
HETATM   31  C   UNL     1      -9.311   2.781  68.347  1.00  0.00    -0.192 C  
HETATM   32  O   UNL     1      -9.172   1.525  67.874  1.00  0.00    -0.134 OA 
HETATM   33  C   UNL     1      -7.524   6.074  63.098  1.00  0.00    -0.070 A  
HETATM   34  O   UNL     1      -9.425   7.224  66.965  1.00  0.00    -0.142 OA 
HETATM   35  O   UNL     1      -9.661   3.030  69.490  1.00  0.00    -0.136 OA 
ENDBRANCH  21  22
ENDBRANCH  20  21
ENDBRANCH   2  20
TORSDOF 6
ENDMDL
MODEL      301
REMARK 921   NORMALIZED FREE ENERGY PREDICTED BY IDOCK:   -3.71 KCAL/MOL
REMARK 922        TOTAL FREE ENERGY PREDICTED BY IDOCK:   -6.30 KCAL/MOL
REMARK 923 INTER-LIGAND FREE ENERGY PREDICTED BY IDOCK:   -6.39 KCAL/MOL
REMARK 924 INTRA-LIGAND FREE ENERGY PREDICTED BY IDOCK:    0.09 KCAL/MOL
REMARK 927      BINDING AFFINITY PREDICTED BY RF-SCORE:    0.00 PKD
ROOT
HETATM    1  O   UNL     1      -8.312  10.803  63.496  1.00  0.00    -0.329 OA 
HETATM    2  C   UNL     1      -8.753  10.138  64.696  1.00  0.00    -0.189 C  
HETATM    3  H   UNL     1      -8.825  11.597  63.400  1.00  0.00     0.000 HD 
ENDROOT
BRANCH   2   4
HETATM    4  C   UNL     1      -8.573  11.090  65.878  1.00  0.00    -0.165 C  
BRANCH   4   5
HETATM    5  O   UNL     1      -8.864  12.429  65.456  1.00  0.00     0.343 OA 
BRANCH   5   6
HETATM    6  C   UNL     1     -10.149  12.880  65.575  1.00  0.00    -0.257 A  
HETATM    7  O   UNL     1     -11.225  15.884  71.237  1.00  0.00    -0.353 OA 
HETATM    8  O   UNL     1     -13.245  15.760  70.228  1.00  0.00    -0.265 OA 
HETATM    9  C   UNL     1     -11.102  12.755  64.552  1.00  0.00    -0.365 A  
HETATM   10  C   UNL     1     -12.417  13.183  64.735  1.00  0.00    -0.460 A  
HETATM   11  C   UNL     1     -11.916  15.518  70.303  1.00  0.00    -0.374 C  
HETATM   12  C   UNL     1     -12.801  13.743  65.945  1.00  0.00    -0.369 A  
HETATM   13  O   UNL     1     -12.328  14.487  68.116  1.00  0.00    -0.159 OA 
HETATM   14  C   UNL     1     -11.421  14.774  69.114  1.00  0.00    -0.299 C  
HETATM   15  C   UNL     1     -11.863  13.893  66.967  1.00  0.00    -0.415 A  
HETATM   16  C   UNL     1     -10.127  14.434  69.084  1.00  0.00    -0.108 C  
HETATM   17  C   UNL     1     -10.539  13.466  66.796  1.00  0.00    -0.277 A  
HETATM   18  O   UNL     1      -8.423  13.362  67.932  1.00  0.00    -0.149 OA 
HETATM   19  C   UNL     1      -9.595  13.703  67.920  1.00  0.00    -0.223 C  
ENDBRANCH   5   6
ENDBRANCH   4   5
ENDBRANCH   2   4
BRANCH   2  20
HETATM   20  C   UNL     1      -7.925   8.858  64.851  1.00  0.00    -0.129 C  
BRANCH  20  21
HETATM   21  O   UNL     1      -7.631   8.511  66.189  1.00  0.00    -0.087 OA 
BRANCH  21  22
HETATM   22  C   UNL     1      -8.567   7.828  66.931  1.00  0.00    -0.130 A  
HETATM   23  C   UNL     1      -7.487   6.575  70.439  1.00  0.00    -0.094 C  
HETATM   24  C   UNL     1      -7.480   7.464  69.276  1.00  0.00    -0.092 C  
HETATM   25  C   UNL     1      -8.528   7.265  68.230  1.00  0.00    -0.124 A  
HETATM   26  C   UNL     1      -9.609   6.451  68.642  1.00  0.00    -0.120 A  
HETATM   27  C   UNL     1      -8.557   5.817  70.668  1.00  0.00    -0.132 C  
HETATM   28  C   UNL     1     -10.744   6.278  67.840  1.00  0.00    -0.380 A  
HETATM   29  O   UNL     1      -9.659   5.766  69.840  1.00  0.00    -0.151 OA 
HETATM   30  C   UNL     1     -10.814   6.897  66.602  1.00  0.00    -0.096 A  
HETATM   31  C   UNL     1      -8.569   5.038  71.934  1.00  0.00    -0.129 C  
HETATM   32  O   UNL     1      -9.700   4.316  72.079  1.00  0.00    -0.148 OA 
HETATM   33  C   UNL     1      -9.727   7.640  66.149  1.00  0.00    -0.030 A  
HETATM   34  O   UNL     1      -6.662   8.371  69.305  1.00  0.00    -0.045 OA 
HETATM   35  O   UNL     1      -7.673   5.048  72.763  1.00  0.00    -0.094 OA 
ENDBRANCH  21  22
ENDBRANCH  20  21
ENDBRANCH   2  20
TORSDOF 6
ENDMDL
MODEL      302
REMARK 921   NORMALIZED FREE ENERGY PREDICTED BY IDOCK:   -3.68 KCAL/MOL
REMARK 922        TOTAL FREE ENERGY PREDICTED BY IDOCK:   -6.27 KCAL/MOL
REMARK 923 INTER-LIGAND FREE ENERGY PREDICTED BY IDOCK:   -5.72 KCAL/MOL
REMARK 924 INTRA-LIGAND FREE ENERGY PREDICTED BY IDOCK:   -0.55 KCAL/MOL
REMARK 927      BINDING AFFINITY PREDICTED BY RF-SCORE:    0.00 PKD
ROOT
HETATM    1  O   UNL     1     -10.550  10.583  66.016  1.00  0.00    -0.190 OA 
HETATM    2  C   UNL     1     -10.180  11.265  67.230  1.00  0.00    -0.194 C  
HETATM    3  H   UNL     1     -10.882  11.233  65.408  1.00  0.00     0.000 HD 
ENDROOT
BRANCH   2   4
HETATM    4  C   UNL     1      -9.136  12.330  66.894  1.00  0.00    -0.208 C  
BRANCH   4   5
HETATM    5  O   UNL     1      -8.940  13.177  68.034  1.00  0.00    -0.181 OA 
BRANCH   5   6
HETATM    6  C   UNL     1      -9.630  14.357  68.089  1.00  0.00    -0.218 A  
HETATM    7  O   UNL     1      -5.995  19.456  66.350  1.00  0.00    -0.165 OA 
HETATM    8  O   UNL     1      -7.953  20.329  67.068  1.00  0.00    -0.308 OA 
HETATM    9  C   UNL     1     -10.991  14.433  68.425  1.00  0.00    -0.261 A  
HETATM   10  C   UNL     1     -11.643  15.662  68.519  1.00  0.00    -0.378 A  
HETATM   11  C   UNL     1      -7.105  19.303  66.827  1.00  0.00    -0.207 C  
HETATM   12  C   UNL     1     -10.944  16.837  68.278  1.00  0.00    -0.327 A  
HETATM   13  O   UNL     1      -8.998  17.992  67.674  1.00  0.00    -0.248 OA 
HETATM   14  C   UNL     1      -7.702  17.993  67.201  1.00  0.00    -0.218 C  
HETATM   15  C   UNL     1      -9.596  16.780  67.924  1.00  0.00    -0.236 A  
HETATM   16  C   UNL     1      -6.948  16.898  67.051  1.00  0.00    -0.235 C  
HETATM   17  C   UNL     1      -8.929  15.551  67.827  1.00  0.00    -0.173 A  
HETATM   18  O   UNL     1      -6.786  14.597  67.301  1.00  0.00    -0.254 OA 
HETATM   19  C   UNL     1      -7.504  15.579  67.403  1.00  0.00    -0.204 C  
ENDBRANCH   5   6
ENDBRANCH   4   5
ENDBRANCH   2   4
BRANCH   2  20
HETATM   20  C   UNL     1      -9.644  10.216  68.211  1.00  0.00    -0.141 C  
BRANCH  20  21
HETATM   21  O   UNL     1      -8.732   9.298  67.643  1.00  0.00    -0.117 OA 
BRANCH  21  22
HETATM   22  C   UNL     1      -8.834   7.962  67.959  1.00  0.00    -0.124 A  
HETATM   23  C   UNL     1      -6.839   6.707  71.040  1.00  0.00    -0.062 C  
HETATM   24  C   UNL     1      -7.579   7.677  70.229  1.00  0.00    -0.089 C  
HETATM   25  C   UNL     1      -8.278   7.185  69.004  1.00  0.00    -0.125 A  
HETATM   26  C   UNL     1      -8.422   5.779  68.945  1.00  0.00    -0.104 A  
HETATM   27  C   UNL     1      -7.034   5.407  70.829  1.00  0.00    -0.056 C  
HETATM   28  C   UNL     1      -9.176   5.161  67.941  1.00  0.00    -0.128 A  
HETATM   29  O   UNL     1      -7.854   4.898  69.844  1.00  0.00    -0.065 OA 
HETATM   30  C   UNL     1      -9.787   5.931  66.964  1.00  0.00    -0.173 A  
HETATM   31  C   UNL     1      -6.366   4.468  71.769  1.00  0.00    -0.022 C  
HETATM   32  O   UNL     1      -6.636   3.178  71.479  1.00  0.00    -0.021 OA 
HETATM   33  C   UNL     1      -9.594   7.310  66.963  1.00  0.00    -0.213 A  
HETATM   34  O   UNL     1      -7.641   8.810  70.682  1.00  0.00    -0.069 OA 
HETATM   35  O   UNL     1      -5.661   4.809  72.704  1.00  0.00    -0.008 OA 
ENDBRANCH  21  22
ENDBRANCH  20  21
ENDBRANCH   2  20
TORSDOF 6
ENDMDL
MODEL      303
REMARK 921   NORMALIZED FREE ENERGY PREDICTED BY IDOCK:   -3.68 KCAL/MOL
REMARK 922        TOTAL FREE ENERGY PREDICTED BY IDOCK:   -6.26 KCAL/MOL
REMARK 923 INTER-LIGAND FREE ENERGY PREDICTED BY IDOCK:   -5.72 KCAL/MOL
REMARK 924 INTRA-LIGAND FREE ENERGY PREDICTED BY IDOCK:   -0.54 KCAL/MOL
REMARK 927      BINDING AFFINITY PREDICTED BY RF-SCORE:    0.00 PKD
ROOT
HETATM    1  O   UNL     1     -11.005   4.773  74.425  1.00  0.00    -0.321 OA 
HETATM    2  C   UNL     1     -10.361   5.290  73.244  1.00  0.00    -0.207 C  
HETATM    3  H   UNL     1     -10.340   4.671  75.097  1.00  0.00     0.000 HD 
ENDROOT
BRANCH   2   4
HETATM    4  C   UNL     1      -9.684   6.614  73.595  1.00  0.00    -0.203 C  
BRANCH   4   5
HETATM    5  O   UNL     1      -8.270   6.493  73.391  1.00  0.00    -0.115 OA 
BRANCH   5   6
HETATM    6  C   UNL     1      -7.799   5.356  72.794  1.00  0.00    -0.099 A  
HETATM    7  O   UNL     1      -6.571   6.184  66.466  1.00  0.00    -0.051 OA 
HETATM    8  O   UNL     1      -6.265   3.977  66.856  1.00  0.00    -0.033 OA 
HETATM    9  C   UNL     1      -7.554   4.167  73.499  1.00  0.00    -0.077 A  
HETATM   10  C   UNL     1      -7.121   3.015  72.842  1.00  0.00    -0.043 A  
HETATM   11  C   UNL     1      -6.598   5.234  67.228  1.00  0.00    -0.053 C  
HETATM   12  C   UNL     1      -6.928   3.033  71.468  1.00  0.00    -0.031 A  
HETATM   13  O   UNL     1      -6.899   4.140  69.404  1.00  0.00    -0.043 OA 
HETATM   14  C   UNL     1      -6.980   5.302  68.664  1.00  0.00    -0.057 C  
HETATM   15  C   UNL     1      -7.148   4.210  70.753  1.00  0.00    -0.033 A  
HETATM   16  C   UNL     1      -7.373   6.485  69.152  1.00  0.00    -0.093 C  
HETATM   17  C   UNL     1      -7.583   5.375  71.402  1.00  0.00    -0.102 A  
HETATM   18  O   UNL     1      -8.151   7.673  70.986  1.00  0.00    -0.093 OA 
HETATM   19  C   UNL     1      -7.752   6.596  70.571  1.00  0.00    -0.104 C  
ENDBRANCH   5   6
ENDBRANCH   4   5
ENDBRANCH   2   4
BRANCH   2  20
HETATM   20  C   UNL     1     -11.433   5.455  72.162  1.00  0.00    -0.026 C  
BRANCH  20  21
HETATM   21  O   UNL     1     -11.578   6.776  71.680  1.00  0.00    -0.264 OA 
BRANCH  21  22
HETATM   22  C   UNL     1     -11.166   7.077  70.402  1.00  0.00    -0.299 A  
HETATM   23  C   UNL     1     -11.312  10.799  69.318  1.00  0.00    -0.352 C  
HETATM   24  C   UNL     1     -11.170   9.683  70.256  1.00  0.00    -0.271 C  
HETATM   25  C   UNL     1     -11.063   8.302  69.698  1.00  0.00    -0.009 A  
HETATM   26  C   UNL     1     -10.779   8.258  68.313  1.00  0.00    -0.019 A  
HETATM   27  C   UNL     1     -11.069  10.592  68.026  1.00  0.00    -0.300 C  
HETATM   28  C   UNL     1     -10.505   7.051  67.658  1.00  0.00    -0.301 A  
HETATM   29  O   UNL     1     -10.742   9.365  67.488  1.00  0.00    -0.280 OA 
HETATM   30  C   UNL     1     -10.527   5.861  68.368  1.00  0.00    -0.294 A  
HETATM   31  C   UNL     1     -11.093  11.786  67.140  1.00  0.00    -0.296 C  
HETATM   32  O   UNL     1     -10.821  11.473  65.855  1.00  0.00    -0.273 OA 
HETATM   33  C   UNL     1     -10.878   5.877  69.716  1.00  0.00    -0.447 A  
HETATM   34  O   UNL     1     -11.054   9.989  71.433  1.00  0.00    -0.259 OA 
HETATM   35  O   UNL     1     -11.319  12.924  67.517  1.00  0.00    -0.274 OA 
ENDBRANCH  21  22
ENDBRANCH  20  21
ENDBRANCH   2  20
TORSDOF 6
ENDMDL
MODEL      304
REMARK 921   NORMALIZED FREE ENERGY PREDICTED BY IDOCK:   -3.57 KCAL/MOL
REMARK 922        TOTAL FREE ENERGY PREDICTED BY IDOCK:   -6.12 KCAL/MOL
REMARK 923 INTER-LIGAND FREE ENERGY PREDICTED BY IDOCK:   -5.15 KCAL/MOL
REMARK 924 INTRA-LIGAND FREE ENERGY PREDICTED BY IDOCK:   -0.97 KCAL/MOL
REMARK 927      BINDING AFFINITY PREDICTED BY RF-SCORE:    0.00 PKD
ROOT
HETATM    1  O   UNL     1      -7.101  11.372  69.868  1.00  0.00    -0.353 OA 
HETATM    2  C   UNL     1      -7.280   9.969  69.591  1.00  0.00    -0.119 C  
HETATM    3  H   UNL     1      -6.445  11.705  69.266  1.00  0.00     0.000 HD 
ENDROOT
BRANCH   2   4
HETATM    4  C   UNL     1      -7.701   9.809  68.130  1.00  0.00    -0.082 C  
BRANCH   4   5
HETATM    5  O   UNL     1      -7.092   8.631  67.588  1.00  0.00    -0.077 OA 
BRANCH   5   6
HETATM    6  C   UNL     1      -7.362   8.303  66.288  1.00  0.00    -0.078 A  
HETATM    7  O   UNL     1      -9.270   2.127  65.615  1.00  0.00    -0.108 OA 
HETATM    8  O   UNL     1      -9.071   2.929  63.510  1.00  0.00    -0.095 OA 
HETATM    9  C   UNL     1      -7.291   9.229  65.235  1.00  0.00    -0.094 A  
HETATM   10  C   UNL     1      -7.525   8.840  63.916  1.00  0.00    -0.117 A  
HETATM   11  C   UNL     1      -8.979   3.034  64.856  1.00  0.00    -0.132 C  
HETATM   12  C   UNL     1      -7.834   7.518  63.628  1.00  0.00    -0.112 A  
HETATM   13  O   UNL     1      -8.271   5.312  64.285  1.00  0.00    -0.122 OA 
HETATM   14  C   UNL     1      -8.499   4.378  65.274  1.00  0.00    -0.121 C  
HETATM   15  C   UNL     1      -7.929   6.588  64.663  1.00  0.00    -0.116 A  
HETATM   16  C   UNL     1      -8.324   4.601  66.582  1.00  0.00    -0.106 C  
HETATM   17  C   UNL     1      -7.695   6.966  65.993  1.00  0.00    -0.096 A  
HETATM   18  O   UNL     1      -7.661   6.090  68.231  1.00  0.00    -0.098 OA 
HETATM   19  C   UNL     1      -7.858   5.921  67.038  1.00  0.00    -0.102 C  
ENDBRANCH   5   6
ENDBRANCH   4   5
ENDBRANCH   2   4
BRANCH   2  20
HETATM   20  C   UNL     1      -8.338   9.432  70.562  1.00  0.00    -0.197 C  
BRANCH  20  21
HETATM   21  O   UNL     1      -9.426   8.782  69.938  1.00  0.00    -0.163 OA 
BRANCH  21  22
HETATM   22  C   UNL     1     -10.306   8.052  70.705  1.00  0.00    -0.202 A  
HETATM   23  C   UNL     1      -9.033   4.688  72.156  1.00  0.00    -0.143 C  
HETATM   24  C   UNL     1      -8.918   6.066  71.674  1.00  0.00    -0.142 C  
HETATM   25  C   UNL     1     -10.175   6.823  71.396  1.00  0.00    -0.216 A  
HETATM   26  C   UNL     1     -11.339   6.235  71.945  1.00  0.00    -0.299 A  
HETATM   27  C   UNL     1     -10.214   4.251  72.589  1.00  0.00    -0.171 C  
HETATM   28  C   UNL     1     -12.578   6.884  71.904  1.00  0.00    -0.336 A  
HETATM   29  O   UNL     1     -11.371   4.999  72.562  1.00  0.00    -0.170 OA 
HETATM   30  C   UNL     1     -12.687   8.125  71.297  1.00  0.00    -0.220 A  
HETATM   31  C   UNL     1     -10.245   2.894  73.195  1.00  0.00    -0.140 C  
HETATM   32  O   UNL     1     -11.481   2.551  73.615  1.00  0.00    -0.227 OA 
HETATM   33  C   UNL     1     -11.568   8.685  70.685  1.00  0.00    -0.225 A  
HETATM   34  O   UNL     1      -7.785   6.520  71.627  1.00  0.00    -0.096 OA 
HETATM   35  O   UNL     1      -9.273   2.167  73.317  1.00  0.00    -0.075 OA 
ENDBRANCH  21  22
ENDBRANCH  20  21
ENDBRANCH   2  20
TORSDOF 6
ENDMDL
MODEL      305
REMARK 921   NORMALIZED FREE ENERGY PREDICTED BY IDOCK:   -3.48 KCAL/MOL
REMARK 922        TOTAL FREE ENERGY PREDICTED BY IDOCK:   -5.99 KCAL/MOL
REMARK 923 INTER-LIGAND FREE ENERGY PREDICTED BY IDOCK:   -4.29 KCAL/MOL
REMARK 924 INTRA-LIGAND FREE ENERGY PREDICTED BY IDOCK:   -1.71 KCAL/MOL
REMARK 927      BINDING AFFINITY PREDICTED BY RF-SCORE:    0.00 PKD
ROOT
HETATM    1  O   UNL     1      -8.810   4.673  66.226  1.00  0.00    -0.113 OA 
HETATM    2  C   UNL     1      -7.590   4.636  66.993  1.00  0.00    -0.086 C  
HETATM    3  H   UNL     1      -9.273   3.857  66.379  1.00  0.00     0.000 HD 
ENDROOT
BRANCH   2   4
HETATM    4  C   UNL     1      -7.944   4.439  68.466  1.00  0.00    -0.078 C  
BRANCH   4   5
HETATM    5  O   UNL     1      -9.341   4.699  68.657  1.00  0.00    -0.121 OA 
BRANCH   5   6
HETATM    6  C   UNL     1      -9.734   5.301  69.821  1.00  0.00    -0.189 A  
HETATM    7  O   UNL     1     -12.336  11.174  68.838  1.00  0.00    -0.512 OA 
HETATM    8  O   UNL     1     -12.197  10.944  71.083  1.00  0.00    -0.352 OA 
HETATM    9  C   UNL     1      -9.636   4.678  71.075  1.00  0.00    -0.245 A  
HETATM   10  C   UNL     1     -10.001   5.347  72.243  1.00  0.00    -0.219 A  
HETATM   11  C   UNL     1     -12.002  10.524  69.813  1.00  0.00    -0.238 C  
HETATM   12  C   UNL     1     -10.469   6.652  72.175  1.00  0.00    -0.228 A  
HETATM   13  O   UNL     1     -11.095   8.559  70.967  1.00  0.00    -0.244 OA 
HETATM   14  C   UNL     1     -11.353   9.187  69.766  1.00  0.00     0.030 C  
HETATM   15  C   UNL     1     -10.592   7.280  70.936  1.00  0.00    -0.220 A  
HETATM   16  C   UNL     1     -11.066   8.673  68.565  1.00  0.00     0.273 C  
HETATM   17  C   UNL     1     -10.227   6.619  69.755  1.00  0.00    -0.214 A  
HETATM   18  O   UNL     1     -10.134   6.915  67.371  1.00  0.00    -0.154 OA 
HETATM   19  C   UNL     1     -10.430   7.347  68.475  1.00  0.00    -0.186 C  
ENDBRANCH   5   6
ENDBRANCH   4   5
ENDBRANCH   2   4
BRANCH   2  20
HETATM   20  C   UNL     1      -6.844   5.952  66.746  1.00  0.00    -0.059 C  
BRANCH  20  21
HETATM   21  O   UNL     1      -6.124   6.434  67.862  1.00  0.00    -0.024 OA 
BRANCH  21  22
HETATM   22  C   UNL     1      -6.703   7.372  68.686  1.00  0.00    -0.057 A  
HETATM   23  C   UNL     1      -8.220  10.521  67.004  1.00  0.00    -0.125 C  
HETATM   24  C   UNL     1      -7.817   9.116  67.095  1.00  0.00    -0.102 C  
HETATM   25  C   UNL     1      -7.360   8.599  68.420  1.00  0.00    -0.086 A  
HETATM   26  C   UNL     1      -7.683   9.438  69.512  1.00  0.00    -0.089 A  
HETATM   27  C   UNL     1      -8.431  11.207  68.125  1.00  0.00    -0.138 C  
HETATM   28  C   UNL     1      -7.458   9.039  70.835  1.00  0.00    -0.128 A  
HETATM   29  O   UNL     1      -8.238  10.697  69.391  1.00  0.00    -0.149 OA 
HETATM   30  C   UNL     1      -6.889   7.803  71.095  1.00  0.00    -0.049 A  
HETATM   31  C   UNL     1      -8.972  12.584  67.977  1.00  0.00    -0.192 C  
HETATM   32  O   UNL     1      -9.164  13.189  69.168  1.00  0.00     0.362 OA 
HETATM   33  C   UNL     1      -6.496   6.995  70.031  1.00  0.00    -0.036 A  
HETATM   34  O   UNL     1      -7.978   8.450  66.084  1.00  0.00    -0.095 OA 
HETATM   35  O   UNL     1      -9.228  13.117  66.909  1.00  0.00    -0.225 OA 
ENDBRANCH  21  22
ENDBRANCH  20  21
ENDBRANCH   2  20
TORSDOF 6
ENDMDL
MODEL      306
REMARK 921   NORMALIZED FREE ENERGY PREDICTED BY IDOCK:   -3.13 KCAL/MOL
REMARK 922        TOTAL FREE ENERGY PREDICTED BY IDOCK:   -5.52 KCAL/MOL
REMARK 923 INTER-LIGAND FREE ENERGY PREDICTED BY IDOCK:   -5.11 KCAL/MOL
REMARK 924 INTRA-LIGAND FREE ENERGY PREDICTED BY IDOCK:   -0.41 KCAL/MOL
REMARK 927      BINDING AFFINITY PREDICTED BY RF-SCORE:    0.00 PKD
ROOT
HETATM    1  O   UNL     1      -9.984  11.089  69.009  1.00  0.00    -0.237 OA 
HETATM    2  C   UNL     1      -9.223   9.995  68.462  1.00  0.00    -0.141 C  
HETATM    3  H   UNL     1     -10.609  10.727  69.626  1.00  0.00     0.000 HD 
ENDROOT
BRANCH   2   4
HETATM    4  C   UNL     1      -8.538   9.253  69.609  1.00  0.00    -0.150 C  
BRANCH   4   5
HETATM    5  O   UNL     1      -8.573   7.844  69.350  1.00  0.00    -0.135 OA 
BRANCH   5   6
HETATM    6  C   UNL     1      -7.805   7.355  68.329  1.00  0.00    -0.122 A  
HETATM    7  O   UNL     1     -11.055   3.206  64.527  1.00  0.00     0.174 OA 
HETATM    8  O   UNL     1      -8.917   3.150  63.791  1.00  0.00    -0.092 OA 
HETATM    9  C   UNL     1      -6.481   7.764  68.104  1.00  0.00    -0.054 A  
HETATM   10  C   UNL     1      -5.717   7.202  67.082  1.00  0.00    -0.025 A  
HETATM   11  C   UNL     1      -9.896   3.566  64.627  1.00  0.00    -0.168 C  
HETATM   12  C   UNL     1      -6.264   6.221  66.268  1.00  0.00    -0.037 A  
HETATM   13  O   UNL     1      -8.049   4.864  65.587  1.00  0.00    -0.108 OA 
HETATM   14  C   UNL     1      -9.381   4.513  65.652  1.00  0.00    -0.164 C  
HETATM   15  C   UNL     1      -7.584   5.816  66.463  1.00  0.00    -0.091 A  
HETATM   16  C   UNL     1     -10.241   4.969  66.570  1.00  0.00    -0.307 C  
HETATM   17  C   UNL     1      -8.363   6.373  67.487  1.00  0.00    -0.117 A  
HETATM   18  O   UNL     1     -10.562   6.284  68.454  1.00  0.00    -0.203 OA 
HETATM   19  C   UNL     1      -9.773   5.914  67.598  1.00  0.00    -0.115 C  
ENDBRANCH   5   6
ENDBRANCH   4   5
ENDBRANCH   2   4
BRANCH   2  20
HETATM   20  C   UNL     1      -8.215  10.580  67.466  1.00  0.00    -0.114 C  
BRANCH  20  21
HETATM   21  O   UNL     1      -8.483  11.912  67.078  1.00  0.00    -0.166 OA 
BRANCH  21  22
HETATM   22  C   UNL     1      -7.665  12.924  67.527  1.00  0.00    -0.174 A  
HETATM   23  C   UNL     1      -8.319  16.487  66.141  1.00  0.00    -0.305 C  
HETATM   24  C   UNL     1      -8.672  15.128  66.557  1.00  0.00    -0.245 C  
HETATM   25  C   UNL     1      -7.634  14.314  67.260  1.00  0.00    -0.118 A  
HETATM   26  C   UNL     1      -6.536  15.066  67.739  1.00  0.00    -0.163 A  
HETATM   27  C   UNL     1      -7.215  17.047  66.631  1.00  0.00    -0.258 C  
HETATM   28  C   UNL     1      -5.547  14.488  68.543  1.00  0.00    -0.098 A  
HETATM   29  O   UNL     1      -6.332  16.406  67.474  1.00  0.00    -0.134 OA 
HETATM   30  C   UNL     1      -5.622  13.143  68.870  1.00  0.00    -0.073 A  
HETATM   31  C   UNL     1      -6.978  18.474  66.287  1.00  0.00    -0.240 C  
HETATM   32  O   UNL     1      -5.844  18.952  66.842  1.00  0.00    -0.156 OA 
HETATM   33  C   UNL     1      -6.656  12.371  68.346  1.00  0.00    -0.065 A  
HETATM   34  O   UNL     1      -9.834  14.800  66.374  1.00  0.00    -0.254 OA 
HETATM   35  O   UNL     1      -7.719  19.152  65.594  1.00  0.00    -0.460 OA 
ENDBRANCH  21  22
ENDBRANCH  20  21
ENDBRANCH   2  20
TORSDOF 6
ENDMDL
MODEL      307
REMARK 921   NORMALIZED FREE ENERGY PREDICTED BY IDOCK:   -3.10 KCAL/MOL
REMARK 922        TOTAL FREE ENERGY PREDICTED BY IDOCK:   -5.49 KCAL/MOL
REMARK 923 INTER-LIGAND FREE ENERGY PREDICTED BY IDOCK:   -5.43 KCAL/MOL
REMARK 924 INTRA-LIGAND FREE ENERGY PREDICTED BY IDOCK:   -0.06 KCAL/MOL
REMARK 927      BINDING AFFINITY PREDICTED BY RF-SCORE:    0.00 PKD
ROOT
HETATM    1  O   UNL     1      -8.290  11.804  68.908  1.00  0.00    -0.343 OA 
HETATM    2  C   UNL     1      -7.303  11.508  67.901  1.00  0.00    -0.094 C  
HETATM    3  H   UNL     1      -8.676  10.981  69.186  1.00  0.00     0.000 HD 
ENDROOT
BRANCH   2   4
HETATM    4  C   UNL     1      -6.266  10.556  68.497  1.00  0.00    -0.046 C  
BRANCH   4   5
HETATM    5  O   UNL     1      -6.007   9.496  67.568  1.00  0.00    -0.051 OA 
BRANCH   5   6
HETATM    6  C   UNL     1      -7.075   8.840  67.020  1.00  0.00    -0.078 A  
HETATM    7  O   UNL     1      -8.495   3.329  70.159  1.00  0.00    -0.054 OA 
HETATM    8  O   UNL     1      -9.854   3.362  68.353  1.00  0.00    -0.043 OA 
HETATM    9  C   UNL     1      -7.811   9.347  65.938  1.00  0.00    -0.099 A  
HETATM   10  C   UNL     1      -8.862   8.621  65.378  1.00  0.00    -0.198 A  
HETATM   11  C   UNL     1      -8.869   3.864  69.131  1.00  0.00    -0.101 C  
HETATM   12  C   UNL     1      -9.193   7.375  65.891  1.00  0.00    -0.022 A  
HETATM   13  O   UNL     1      -8.906   5.637  67.436  1.00  0.00    -0.109 OA 
HETATM   14  C   UNL     1      -8.326   5.136  68.583  1.00  0.00    -0.088 C  
HETATM   15  C   UNL     1      -8.485   6.863  66.978  1.00  0.00    -0.121 A  
HETATM   16  C   UNL     1      -7.315   5.718  69.238  1.00  0.00    -0.079 C  
HETATM   17  C   UNL     1      -7.427   7.582  67.550  1.00  0.00    -0.104 A  
HETATM   18  O   UNL     1      -5.801   7.474  69.318  1.00  0.00    -0.025 OA 
HETATM   19  C   UNL     1      -6.754   6.982  68.732  1.00  0.00    -0.060 C  
ENDBRANCH   5   6
ENDBRANCH   4   5
ENDBRANCH   2   4
BRANCH   2  20
HETATM   20  C   UNL     1      -6.681  12.835  67.452  1.00  0.00    -0.134 C  
BRANCH  20  21
HETATM   21  O   UNL     1      -7.605  13.764  66.923  1.00  0.00     0.125 OA 
BRANCH  21  22
HETATM   22  C   UNL     1      -7.721  15.007  67.502  1.00  0.00    -0.185 A  
HETATM   23  C   UNL     1     -10.167  17.519  65.843  1.00  0.00    -0.251 C  
HETATM   24  C   UNL     1      -9.662  16.199  66.228  1.00  0.00    -0.307 C  
HETATM   25  C   UNL     1      -8.518  16.134  67.186  1.00  0.00    -0.218 A  
HETATM   26  C   UNL     1      -8.266  17.346  67.870  1.00  0.00    -0.225 A  
HETATM   27  C   UNL     1      -9.793  18.585  66.548  1.00  0.00    -0.363 C  
HETATM   28  C   UNL     1      -7.327  17.423  68.905  1.00  0.00    -0.244 A  
HETATM   29  O   UNL     1      -8.902  18.542  67.599  1.00  0.00    -0.267 OA 
HETATM   30  C   UNL     1      -6.606  16.296  69.266  1.00  0.00    -0.197 A  
HETATM   31  C   UNL     1     -10.442  19.878  66.203  1.00  0.00    -0.473 C  
HETATM   32  O   UNL     1     -10.007  20.891  66.982  1.00  0.00    -0.324 OA 
HETATM   33  C   UNL     1      -6.786  15.114  68.554  1.00  0.00    -0.108 A  
HETATM   34  O   UNL     1     -10.290  15.244  65.798  1.00  0.00    -0.296 OA 
HETATM   35  O   UNL     1     -11.281  20.021  65.328  1.00  0.00    -0.248 OA 
ENDBRANCH  21  22
ENDBRANCH  20  21
ENDBRANCH   2  20
TORSDOF 6
ENDMDL
MODEL      308
REMARK 921   NORMALIZED FREE ENERGY PREDICTED BY IDOCK:   -3.03 KCAL/MOL
REMARK 922        TOTAL FREE ENERGY PREDICTED BY IDOCK:   -5.39 KCAL/MOL
REMARK 923 INTER-LIGAND FREE ENERGY PREDICTED BY IDOCK:   -2.96 KCAL/MOL
REMARK 924 INTRA-LIGAND FREE ENERGY PREDICTED BY IDOCK:   -2.43 KCAL/MOL
REMARK 927      BINDING AFFINITY PREDICTED BY RF-SCORE:    0.00 PKD
ROOT
HETATM    1  O   UNL     1     -10.965   4.433  70.726  1.00  0.00     0.725 OA 
HETATM    2  C   UNL     1     -10.219   5.584  71.167  1.00  0.00    -0.222 C  
HETATM    3  H   UNL     1     -11.863   4.708  70.583  1.00  0.00     0.000 HD 
ENDROOT
BRANCH   2   4
HETATM    4  C   UNL     1     -10.328   6.675  70.102  1.00  0.00    -0.203 C  
BRANCH   4   5
HETATM    5  O   UNL     1     -10.771   6.092  68.870  1.00  0.00    -0.255 OA 
BRANCH   5   6
HETATM    6  C   UNL     1      -9.842   5.866  67.892  1.00  0.00    -0.125 A  
HETATM    7  O   UNL     1      -9.189  10.917  63.855  1.00  0.00    -0.205 OA 
HETATM    8  O   UNL     1      -7.913   9.271  62.972  1.00  0.00    -0.132 OA 
HETATM    9  C   UNL     1      -9.078   4.691  67.819  1.00  0.00    -0.136 A  
HETATM   10  C   UNL     1      -8.178   4.479  66.775  1.00  0.00    -0.102 A  
HETATM   11  C   UNL     1      -8.775   9.772  63.887  1.00  0.00    -0.218 C  
HETATM   12  C   UNL     1      -8.028   5.439  65.785  1.00  0.00    -0.106 A  
HETATM   13  O   UNL     1      -8.525   7.527  64.843  1.00  0.00    -0.082 OA 
HETATM   14  C   UNL     1      -9.131   8.763  64.920  1.00  0.00     0.079 C  
HETATM   15  C   UNL     1      -8.765   6.622  65.850  1.00  0.00    -0.137 A  
HETATM   16  C   UNL     1     -10.012   9.119  65.864  1.00  0.00    -0.232 C  
HETATM   17  C   UNL     1      -9.673   6.846  66.894  1.00  0.00    -0.222 A  
HETATM   18  O   UNL     1     -11.224   8.480  67.735  1.00  0.00     0.222 OA 
HETATM   19  C   UNL     1     -10.385   8.152  66.910  1.00  0.00    -0.331 C  
ENDBRANCH   5   6
ENDBRANCH   4   5
ENDBRANCH   2   4
BRANCH   2  20
HETATM   20  C   UNL     1      -8.770   5.141  71.397  1.00  0.00    -0.128 C  
BRANCH  20  21
HETATM   21  O   UNL     1      -7.855   6.204  71.577  1.00  0.00    -0.099 OA 
BRANCH  21  22
HETATM   22  C   UNL     1      -7.010   6.549  70.547  1.00  0.00    -0.064 A  
HETATM   23  C   UNL     1      -7.691   9.910  68.736  1.00  0.00    -0.086 C  
HETATM   24  C   UNL     1      -7.683   8.976  69.863  1.00  0.00    -0.076 C  
HETATM   25  C   UNL     1      -6.948   7.685  69.704  1.00  0.00    -0.052 A  
HETATM   26  C   UNL     1      -6.063   7.655  68.601  1.00  0.00    -0.035 A  
HETATM   27  C   UNL     1      -6.837   9.720  67.732  1.00  0.00    -0.081 C  
HETATM   28  C   UNL     1      -5.192   6.580  68.388  1.00  0.00    -0.008 A  
HETATM   29  O   UNL     1      -5.969   8.652  67.649  1.00  0.00    -0.046 OA 
HETATM   30  C   UNL     1      -5.198   5.505  69.262  1.00  0.00    -0.004 A  
HETATM   31  C   UNL     1      -6.790  10.772  66.683  1.00  0.00    -0.125 C  
HETATM   32  O   UNL     1      -5.886  10.493  65.720  1.00  0.00    -0.098 OA 
HETATM   33  C   UNL     1      -6.114   5.483  70.310  1.00  0.00    -0.025 A  
HETATM   34  O   UNL     1      -8.210   9.377  70.890  1.00  0.00    -0.255 OA 
HETATM   35  O   UNL     1      -7.475  11.782  66.683  1.00  0.00    -0.095 OA 
ENDBRANCH  21  22
ENDBRANCH  20  21
ENDBRANCH   2  20
TORSDOF 6
ENDMDL
MODEL      309
REMARK 921   NORMALIZED FREE ENERGY PREDICTED BY IDOCK:   -2.65 KCAL/MOL
REMARK 922        TOTAL FREE ENERGY PREDICTED BY IDOCK:   -4.87 KCAL/MOL
REMARK 923 INTER-LIGAND FREE ENERGY PREDICTED BY IDOCK:   -6.05 KCAL/MOL
REMARK 924 INTRA-LIGAND FREE ENERGY PREDICTED BY IDOCK:    1.18 KCAL/MOL
REMARK 927      BINDING AFFINITY PREDICTED BY RF-SCORE:    0.00 PKD
ROOT
HETATM    1  O   UNL     1      -5.880   7.226  67.821  1.00  0.00    -0.027 OA 
HETATM    2  C   UNL     1      -7.119   6.975  68.513  1.00  0.00    -0.089 C  
HETATM    3  H   UNL     1      -5.425   6.396  67.733  1.00  0.00     0.000 HD 
ENDROOT
BRANCH   2   4
HETATM    4  C   UNL     1      -7.928   5.953  67.715  1.00  0.00    -0.098 C  
BRANCH   4   5
HETATM    5  O   UNL     1      -8.885   6.639  66.899  1.00  0.00    -0.113 OA 
BRANCH   5   6
HETATM    6  C   UNL     1      -8.434   7.621  66.060  1.00  0.00    -0.144 A  
HETATM    7  O   UNL     1     -11.917  13.089  66.517  1.00  0.00    -0.393 OA 
HETATM    8  O   UNL     1     -10.480  13.431  64.805  1.00  0.00    -0.366 OA 
HETATM    9  C   UNL     1      -7.303   7.470  65.243  1.00  0.00    -0.072 A  
HETATM   10  C   UNL     1      -6.907   8.478  64.365  1.00  0.00    -0.070 A  
HETATM   11  C   UNL     1     -11.035  12.680  65.784  1.00  0.00    -0.280 C  
HETATM   12  C   UNL     1      -7.637   9.655  64.289  1.00  0.00    -0.128 A  
HETATM   13  O   UNL     1      -9.392  11.043  64.984  1.00  0.00    -0.214 OA 
HETATM   14  C   UNL     1     -10.427  11.325  65.852  1.00  0.00    -0.259 C  
HETATM   15  C   UNL     1      -8.753   9.833  65.107  1.00  0.00    -0.168 A  
HETATM   16  C   UNL     1     -10.915  10.465  66.754  1.00  0.00    -0.116 C  
HETATM   17  C   UNL     1      -9.161   8.826  65.993  1.00  0.00    -0.282 A  
HETATM   18  O   UNL     1     -10.825   8.330  67.656  1.00  0.00    -0.167 OA 
HETATM   19  C   UNL     1     -10.336   9.115  66.859  1.00  0.00    -0.251 C  
ENDBRANCH   5   6
ENDBRANCH   4   5
ENDBRANCH   2   4
BRANCH   2  20
HETATM   20  C   UNL     1      -7.854   8.312  68.656  1.00  0.00    -0.120 C  
BRANCH  20  21
HETATM   21  O   UNL     1      -7.937   8.795  69.981  1.00  0.00    -0.097 OA 
BRANCH  21  22
HETATM   22  C   UNL     1      -9.024   8.458  70.756  1.00  0.00    -0.155 A  
HETATM   23  C   UNL     1      -9.074   4.899  72.298  1.00  0.00    -0.146 C  
HETATM   24  C   UNL     1      -8.461   6.126  71.785  1.00  0.00    -0.129 C  
HETATM   25  C   UNL     1      -9.353   7.285  71.477  1.00  0.00    -0.155 A  
HETATM   26  C   UNL     1     -10.651   7.178  72.029  1.00  0.00    -0.210 A  
HETATM   27  C   UNL     1     -10.332   4.937  72.729  1.00  0.00    -0.190 C  
HETATM   28  C   UNL     1     -11.566   8.235  71.960  1.00  0.00    -0.403 A  
HETATM   29  O   UNL     1     -11.135   6.056  72.674  1.00  0.00    -0.246 OA 
HETATM   30  C   UNL     1     -11.212   9.413  71.323  1.00  0.00    -0.437 A  
HETATM   31  C   UNL     1     -10.859   3.702  73.367  1.00  0.00    -0.218 C  
HETATM   32  O   UNL     1     -12.136   3.846  73.783  1.00  0.00     0.211 OA 
HETATM   33  C   UNL     1      -9.966   9.509  70.709  1.00  0.00    -0.334 A  
HETATM   34  O   UNL     1      -7.240   6.132  71.738  1.00  0.00    -0.083 OA 
HETATM   35  O   UNL     1     -10.221   2.672  73.516  1.00  0.00    -0.103 OA 
ENDBRANCH  21  22
ENDBRANCH  20  21
ENDBRANCH   2  20
TORSDOF 6
ENDMDL
MODEL      310
REMARK 921   NORMALIZED FREE ENERGY PREDICTED BY IDOCK:   -2.56 KCAL/MOL
REMARK 922        TOTAL FREE ENERGY PREDICTED BY IDOCK:   -4.75 KCAL/MOL
REMARK 923 INTER-LIGAND FREE ENERGY PREDICTED BY IDOCK:   -5.51 KCAL/MOL
REMARK 924 INTRA-LIGAND FREE ENERGY PREDICTED BY IDOCK:    0.76 KCAL/MOL
REMARK 927      BINDING AFFINITY PREDICTED BY RF-SCORE:    0.00 PKD
ROOT
HETATM    1  O   UNL     1     -11.436   8.177  68.268  1.00  0.00     0.147 OA 
HETATM    2  C   UNL     1     -10.590   9.232  68.768  1.00  0.00    -0.193 C  
HETATM    3  H   UNL     1     -11.392   7.455  68.884  1.00  0.00     0.000 HD 
ENDROOT
BRANCH   2   4
HETATM    4  C   UNL     1     -11.075   9.629  70.162  1.00  0.00    -0.269 C  
BRANCH   4   5
HETATM    5  O   UNL     1      -9.952   9.700  71.051  1.00  0.00    -0.247 OA 
BRANCH   5   6
HETATM    6  C   UNL     1      -8.900   8.854  70.832  1.00  0.00    -0.219 A  
HETATM    7  O   UNL     1      -9.237   3.466  74.451  1.00  0.00    -0.088 OA 
HETATM    8  O   UNL     1      -7.233   3.367  73.408  1.00  0.00    -0.051 OA 
HETATM    9  C   UNL     1      -7.899   9.107  69.882  1.00  0.00    -0.091 A  
HETATM   10  C   UNL     1      -6.816   8.243  69.727  1.00  0.00    -0.044 A  
HETATM   11  C   UNL     1      -8.407   3.966  73.712  1.00  0.00    -0.088 C  
HETATM   12  C   UNL     1      -6.715   7.110  70.522  1.00  0.00    -0.052 A  
HETATM   13  O   UNL     1      -7.542   5.670  72.176  1.00  0.00    -0.097 OA 
HETATM   14  C   UNL     1      -8.552   5.279  73.029  1.00  0.00    -0.118 C  
HETATM   15  C   UNL     1      -7.710   6.831  71.458  1.00  0.00    -0.096 A  
HETATM   16  C   UNL     1      -9.654   5.995  73.278  1.00  0.00    -0.143 C  
HETATM   17  C   UNL     1      -8.804   7.692  71.624  1.00  0.00    -0.135 A  
HETATM   18  O   UNL     1     -10.830   7.956  72.890  1.00  0.00    -0.362 OA 
HETATM   19  C   UNL     1      -9.840   7.297  72.615  1.00  0.00    -0.169 C  
ENDBRANCH   5   6
ENDBRANCH   4   5
ENDBRANCH   2   4
BRANCH   2  20
HETATM   20  C   UNL     1     -10.662  10.397  67.775  1.00  0.00    -0.279 C  
BRANCH  20  21
HETATM   21  O   UNL     1     -11.683  11.335  68.047  1.00  0.00    -0.501 OA 
BRANCH  21  22
HETATM   22  C   UNL     1     -11.344  12.602  68.462  1.00  0.00    -0.296 A  
HETATM   23  C   UNL     1      -7.664  13.716  67.951  1.00  0.00    -0.157 C  
HETATM   24  C   UNL     1      -8.893  12.979  67.649  1.00  0.00    -0.191 C  
HETATM   25  C   UNL     1     -10.130  13.330  68.409  1.00  0.00    -0.237 A  
HETATM   26  C   UNL     1     -10.055  14.561  69.100  1.00  0.00    -0.137 A  
HETATM   27  C   UNL     1      -7.741  14.834  68.670  1.00  0.00    -0.130 C  
HETATM   28  C   UNL     1     -11.171  15.111  69.743  1.00  0.00    -0.298 A  
HETATM   29  O   UNL     1      -8.910  15.327  69.209  1.00  0.00    -0.229 OA 
HETATM   30  C   UNL     1     -12.380  14.434  69.725  1.00  0.00    -0.333 A  
HETATM   31  C   UNL     1      -6.487  15.616  68.829  1.00  0.00    -0.109 C  
HETATM   32  O   UNL     1      -6.673  16.736  69.560  1.00  0.00    -0.234 OA 
HETATM   33  C   UNL     1     -12.453  13.186  69.113  1.00  0.00     0.226 A  
HETATM   34  O   UNL     1      -8.824  12.188  66.721  1.00  0.00    -0.197 OA 
HETATM   35  O   UNL     1      -5.408  15.302  68.352  1.00  0.00    -0.093 OA 
ENDBRANCH  21  22
ENDBRANCH  20  21
ENDBRANCH   2  20
TORSDOF 6
ENDMDL
MODEL      311
REMARK 921   NORMALIZED FREE ENERGY PREDICTED BY IDOCK:   -2.55 KCAL/MOL
REMARK 922        TOTAL FREE ENERGY PREDICTED BY IDOCK:   -4.74 KCAL/MOL
REMARK 923 INTER-LIGAND FREE ENERGY PREDICTED BY IDOCK:   -5.03 KCAL/MOL
REMARK 924 INTRA-LIGAND FREE ENERGY PREDICTED BY IDOCK:    0.29 KCAL/MOL
REMARK 927      BINDING AFFINITY PREDICTED BY RF-SCORE:    0.00 PKD
ROOT
HETATM    1  O   UNL     1     -13.190   7.284  72.426  1.00  0.00    -0.482 OA 
HETATM    2  C   UNL     1     -13.605   7.370  71.049  1.00  0.00    -0.030 C  
HETATM    3  H   UNL     1     -13.189   6.365  72.671  1.00  0.00     0.000 HD 
ENDROOT
BRANCH   2   4
HETATM    4  C   UNL     1     -12.643   6.545  70.195  1.00  0.00     1.023 C  
BRANCH   4   5
HETATM    5  O   UNL     1     -11.299   6.977  70.443  1.00  0.00    -0.286 OA 
BRANCH   5   6
HETATM    6  C   UNL     1     -10.650   6.475  71.537  1.00  0.00    -0.229 A  
HETATM    7  O   UNL     1      -5.452  10.006  73.197  1.00  0.00    -0.320 OA 
HETATM    8  O   UNL     1      -5.408   8.195  74.551  1.00  0.00    -0.074 OA 
HETATM    9  C   UNL     1     -11.106   5.354  72.250  1.00  0.00    -0.259 A  
HETATM   10  C   UNL     1     -10.386   4.844  73.329  1.00  0.00    -0.233 A  
HETATM   11  C   UNL     1      -5.925   8.939  73.546  1.00  0.00    -0.045 C  
HETATM   12  C   UNL     1      -9.196   5.446  73.714  1.00  0.00    -0.125 A  
HETATM   13  O   UNL     1      -7.568   7.117  73.505  1.00  0.00    -0.088 OA 
HETATM   14  C   UNL     1      -7.128   8.301  72.949  1.00  0.00    -0.099 C  
HETATM   15  C   UNL     1      -8.737   6.572  73.031  1.00  0.00    -0.125 A  
HETATM   16  C   UNL     1      -7.714   8.916  71.915  1.00  0.00     0.026 C  
HETATM   17  C   UNL     1      -9.451   7.094  71.944  1.00  0.00    -0.157 A  
HETATM   18  O   UNL     1      -9.405   8.873  70.328  1.00  0.00    -0.163 OA 
HETATM   19  C   UNL     1      -8.913   8.321  71.299  1.00  0.00    -0.160 C  
ENDBRANCH   5   6
ENDBRANCH   4   5
ENDBRANCH   2   4
BRANCH   2  20
HETATM   20  C   UNL     1     -13.606   8.851  70.654  1.00  0.00     0.620 C  
BRANCH  20  21
HETATM   21  O   UNL     1     -12.959   9.703  71.578  1.00  0.00    -0.344 OA 
BRANCH  21  22
HETATM   22  C   UNL     1     -12.801  11.035  71.273  1.00  0.00    -0.425 A  
HETATM   23  C   UNL     1     -10.874  11.897  68.018  1.00  0.00    -0.256 C  
HETATM   24  C   UNL     1     -11.727  11.091  68.894  1.00  0.00    -0.330 C  
HETATM   25  C   UNL     1     -12.190  11.696  70.179  1.00  0.00    -0.367 A  
HETATM   26  C   UNL     1     -12.023  13.099  70.252  1.00  0.00    -0.292 A  
HETATM   27  C   UNL     1     -10.765  13.204  68.246  1.00  0.00    -0.245 C  
HETATM   28  C   UNL     1     -12.532  13.844  71.322  1.00  0.00    -0.440 A  
HETATM   29  O   UNL     1     -11.364  13.857  69.303  1.00  0.00    -0.253 OA 
HETATM   30  C   UNL     1     -13.201  13.203  72.352  1.00  0.00    -0.519 A  
HETATM   31  C   UNL     1     -10.001  13.997  67.247  1.00  0.00    -0.242 C  
HETATM   32  O   UNL     1      -9.961  15.310  67.561  1.00  0.00    -0.225 OA 
HETATM   33  C   UNL     1     -13.309  11.814  72.335  1.00  0.00     0.087 A  
HETATM   34  O   UNL     1     -12.072  10.007  68.450  1.00  0.00     0.279 OA 
HETATM   35  O   UNL     1      -9.474  13.533  66.250  1.00  0.00    -0.255 OA 
ENDBRANCH  21  22
ENDBRANCH  20  21
ENDBRANCH   2  20
TORSDOF 6
ENDMDL
MODEL      312
REMARK 921   NORMALIZED FREE ENERGY PREDICTED BY IDOCK:   -2.03 KCAL/MOL
REMARK 922        TOTAL FREE ENERGY PREDICTED BY IDOCK:   -4.04 KCAL/MOL
REMARK 923 INTER-LIGAND FREE ENERGY PREDICTED BY IDOCK:   -7.11 KCAL/MOL
REMARK 924 INTRA-LIGAND FREE ENERGY PREDICTED BY IDOCK:    3.07 KCAL/MOL
REMARK 927      BINDING AFFINITY PREDICTED BY RF-SCORE:    0.00 PKD
ROOT
HETATM    1  O   UNL     1     -12.150   7.394  70.639  1.00  0.00    -0.486 OA 
HETATM    2  C   UNL     1     -11.532   6.119  70.906  1.00  0.00    -0.248 C  
HETATM    3  H   UNL     1     -12.546   7.699  71.447  1.00  0.00     0.000 HD 
ENDROOT
BRANCH   2   4
HETATM    4  C   UNL     1     -10.503   6.299  72.021  1.00  0.00    -0.207 C  
BRANCH   4   5
HETATM    5  O   UNL     1     -10.258   7.697  72.219  1.00  0.00    -0.195 OA 
BRANCH   5   6
HETATM    6  C   UNL     1     -11.309   8.563  72.085  1.00  0.00    -0.372 A  
HETATM    7  O   UNL     1     -10.219  13.135  67.597  1.00  0.00    -0.218 OA 
HETATM    8  O   UNL     1     -12.181  13.700  68.569  1.00  0.00    -0.342 OA 
HETATM    9  C   UNL     1     -12.508   8.427  72.801  1.00  0.00    -0.112 A  
HETATM   10  C   UNL     1     -13.535   9.361  72.672  1.00  0.00    -0.323 A  
HETATM   11  C   UNL     1     -11.079  12.927  68.434  1.00  0.00    -0.262 C  
HETATM   12  C   UNL     1     -13.379  10.449  71.825  1.00  0.00    -0.456 A  
HETATM   13  O   UNL     1     -12.152  11.680  70.254  1.00  0.00    -0.340 OA 
HETATM   14  C   UNL     1     -11.067  11.807  69.412  1.00  0.00    -0.181 C  
HETATM   15  C   UNL     1     -12.202  10.591  71.090  1.00  0.00    -0.391 A  
HETATM   16  C   UNL     1     -10.008  10.989  69.412  1.00  0.00    -0.019 C  
HETATM   17  C   UNL     1     -11.162   9.658  71.211  1.00  0.00    -0.446 A  
HETATM   18  O   UNL     1      -8.965   9.155  70.376  1.00  0.00    -0.187 OA 
HETATM   19  C   UNL     1      -9.960   9.863  70.361  1.00  0.00    -0.160 C  
ENDBRANCH   5   6
ENDBRANCH   4   5
ENDBRANCH   2   4
BRANCH   2  20
HETATM   20  C   UNL     1     -10.894   5.627  69.602  1.00  0.00    -0.295 C  
BRANCH  20  21
HETATM   21  O   UNL     1     -10.712   6.632  68.625  1.00  0.00    -0.215 OA 
BRANCH  21  22
HETATM   22  C   UNL     1      -9.455   6.855  68.111  1.00  0.00    -0.122 A  
HETATM   23  C   UNL     1      -9.193   9.120  64.973  1.00  0.00    -0.180 C  
HETATM   24  C   UNL     1      -9.768   8.638  66.231  1.00  0.00    -0.251 C  
HETATM   25  C   UNL     1      -8.997   7.630  67.018  1.00  0.00    -0.148 A  
HETATM   26  C   UNL     1      -7.644   7.501  66.625  1.00  0.00    -0.097 A  
HETATM   27  C   UNL     1      -7.913   8.869  64.709  1.00  0.00    -0.129 C  
HETATM   28  C   UNL     1      -6.743   6.710  67.347  1.00  0.00    -0.067 A  
HETATM   29  O   UNL     1      -7.088   8.125  65.525  1.00  0.00    -0.065 OA 
HETATM   30  C   UNL     1      -7.177   6.015  68.465  1.00  0.00    -0.084 A  
HETATM   31  C   UNL     1      -7.345   9.498  63.488  1.00  0.00    -0.107 C  
HETATM   32  O   UNL     1      -6.040   9.195  63.317  1.00  0.00    -0.088 OA 
HETATM   33  C   UNL     1      -8.521   6.071  68.822  1.00  0.00    -0.113 A  
HETATM   34  O   UNL     1     -10.805   9.179  66.583  1.00  0.00    -0.071 OA 
HETATM   35  O   UNL     1      -7.968  10.216  62.723  1.00  0.00    -0.134 OA 
ENDBRANCH  21  22
ENDBRANCH  20  21
ENDBRANCH   2  20
TORSDOF 6
ENDMDL
MODEL      313
REMARK 921   NORMALIZED FREE ENERGY PREDICTED BY IDOCK:   -1.86 KCAL/MOL
REMARK 922        TOTAL FREE ENERGY PREDICTED BY IDOCK:   -3.81 KCAL/MOL
REMARK 923 INTER-LIGAND FREE ENERGY PREDICTED BY IDOCK:   -4.49 KCAL/MOL
REMARK 924 INTRA-LIGAND FREE ENERGY PREDICTED BY IDOCK:    0.68 KCAL/MOL
REMARK 927      BINDING AFFINITY PREDICTED BY RF-SCORE:    0.00 PKD
ROOT
HETATM    1  O   UNL     1     -10.246   3.609  67.898  1.00  0.00     0.139 OA 
HETATM    2  C   UNL     1     -10.652   4.682  67.026  1.00  0.00     0.224 C  
HETATM    3  H   UNL     1      -9.946   2.891  67.353  1.00  0.00     0.000 HD 
ENDROOT
BRANCH   2   4
HETATM    4  C   UNL     1      -9.463   5.078  66.151  1.00  0.00    -0.160 C  
BRANCH   4   5
HETATM    5  O   UNL     1      -8.245   4.720  66.817  1.00  0.00    -0.107 OA 
BRANCH   5   6
HETATM    6  C   UNL     1      -7.496   5.718  67.376  1.00  0.00    -0.081 A  
HETATM    7  O   UNL     1      -6.339  10.592  63.236  1.00  0.00    -0.123 OA 
HETATM    8  O   UNL     1      -5.127  11.070  65.084  1.00  0.00    -0.209 OA 
HETATM    9  C   UNL     1      -7.085   5.705  68.718  1.00  0.00    -0.072 A  
HETATM   10  C   UNL     1      -6.279   6.719  69.236  1.00  0.00    -0.027 A  
HETATM   11  C   UNL     1      -5.954  10.290  64.352  1.00  0.00    -0.134 C  
HETATM   12  C   UNL     1      -5.870   7.763  68.418  1.00  0.00    -0.032 A  
HETATM   13  O   UNL     1      -5.858   8.892  66.365  1.00  0.00    -0.052 OA 
HETATM   14  C   UNL     1      -6.335   9.051  65.081  1.00  0.00    -0.061 C  
HETATM   15  C   UNL     1      -6.285   7.804  67.087  1.00  0.00    -0.054 A  
HETATM   16  C   UNL     1      -7.120   8.170  64.449  1.00  0.00    -0.078 C  
HETATM   17  C   UNL     1      -7.095   6.790  66.555  1.00  0.00    -0.071 A  
HETATM   18  O   UNL     1      -8.205   6.122  64.530  1.00  0.00    -0.130 OA 
HETATM   19  C   UNL     1      -7.526   6.934  65.139  1.00  0.00    -0.094 C  
ENDBRANCH   5   6
ENDBRANCH   4   5
ENDBRANCH   2   4
BRANCH   2  20
HETATM   20  C   UNL     1     -11.136   5.841  67.905  1.00  0.00     0.156 C  
BRANCH  20  21
HETATM   21  O   UNL     1     -10.100   6.616  68.473  1.00  0.00    -0.148 OA 
BRANCH  21  22
HETATM   22  C   UNL     1     -10.400   7.834  69.039  1.00  0.00    -0.211 A  
HETATM   23  C   UNL     1      -9.728  11.002  66.904  1.00  0.00    -0.215 C  
HETATM   24  C   UNL     1     -10.061   9.596  67.144  1.00  0.00    -0.218 C  
HETATM   25  C   UNL     1     -10.309   9.160  68.551  1.00  0.00    -0.236 A  
HETATM   26  C   UNL     1     -10.520  10.225  69.458  1.00  0.00    -0.244 A  
HETATM   27  C   UNL     1      -9.924  11.888  67.879  1.00  0.00    -0.191 C  
HETATM   28  C   UNL     1     -10.908   9.994  70.783  1.00  0.00    -0.330 A  
HETATM   29  O   UNL     1     -10.372  11.561  69.141  1.00  0.00    -0.167 OA 
HETATM   30  C   UNL     1     -11.074   8.695  71.236  1.00  0.00    -0.336 A  
HETATM   31  C   UNL     1      -9.702  13.318  67.539  1.00  0.00    -0.224 C  
HETATM   32  O   UNL     1      -9.940  14.135  68.587  1.00  0.00    -0.232 OA 
HETATM   33  C   UNL     1     -10.798   7.633  70.379  1.00  0.00    -0.252 A  
HETATM   34  O   UNL     1     -10.201   8.905  66.146  1.00  0.00    -0.259 OA 
HETATM   35  O   UNL     1      -9.355  13.724  66.441  1.00  0.00    -0.262 OA 
ENDBRANCH  21  22
ENDBRANCH  20  21
ENDBRANCH   2  20
TORSDOF 6
ENDMDL
MODEL      314
REMARK 921   NORMALIZED FREE ENERGY PREDICTED BY IDOCK:   -1.85 KCAL/MOL
REMARK 922        TOTAL FREE ENERGY PREDICTED BY IDOCK:   -3.79 KCAL/MOL
REMARK 923 INTER-LIGAND FREE ENERGY PREDICTED BY IDOCK:   -3.56 KCAL/MOL
REMARK 924 INTRA-LIGAND FREE ENERGY PREDICTED BY IDOCK:   -0.23 KCAL/MOL
REMARK 927      BINDING AFFINITY PREDICTED BY RF-SCORE:    0.00 PKD
ROOT
HETATM    1  O   UNL     1     -14.155   8.275  71.087  1.00  0.00    -0.613 OA 
HETATM    2  C   UNL     1     -13.121   7.592  71.822  1.00  0.00    -0.323 C  
HETATM    3  H   UNL     1     -14.588   8.874  71.685  1.00  0.00     0.000 HD 
ENDROOT
BRANCH   2   4
HETATM    4  C   UNL     1     -12.159   8.633  72.395  1.00  0.00    -0.345 C  
BRANCH   4   5
HETATM    5  O   UNL     1     -10.814   8.271  72.057  1.00  0.00    -0.257 OA 
BRANCH   5   6
HETATM    6  C   UNL     1     -10.274   7.163  72.651  1.00  0.00    -0.200 A  
HETATM    7  O   UNL     1      -5.135   4.851  69.412  1.00  0.00     0.000 OA 
HETATM    8  O   UNL     1      -5.539   3.349  71.054  1.00  0.00    -0.011 OA 
HETATM    9  C   UNL     1     -10.751   6.634  73.860  1.00  0.00    -0.141 A  
HETATM   10  C   UNL     1     -10.204   5.473  74.405  1.00  0.00    -0.297 A  
HETATM   11  C   UNL     1      -5.811   4.474  70.353  1.00  0.00    -0.013 C  
HETATM   12  C   UNL     1      -9.170   4.820  73.748  1.00  0.00    -0.114 A  
HETATM   13  O   UNL     1      -7.626   4.645  71.994  1.00  0.00    -0.084 OA 
HETATM   14  C   UNL     1      -7.010   5.178  70.881  1.00  0.00    -0.055 C  
HETATM   15  C   UNL     1      -8.670   5.342  72.554  1.00  0.00    -0.120 A  
HETATM   16  C   UNL     1      -7.413   6.286  70.249  1.00  0.00    -0.094 C  
HETATM   17  C   UNL     1      -9.212   6.508  71.996  1.00  0.00    -0.147 A  
HETATM   18  O   UNL     1      -8.970   8.001  70.128  1.00  0.00    -0.148 OA 
HETATM   19  C   UNL     1      -8.592   7.018  70.745  1.00  0.00    -0.143 C  
ENDBRANCH   5   6
ENDBRANCH   4   5
ENDBRANCH   2   4
BRANCH   2  20
HETATM   20  C   UNL     1     -12.423   6.626  70.858  1.00  0.00    -0.122 C  
BRANCH  20  21
HETATM   21  O   UNL     1     -12.594   6.941  69.491  1.00  0.00     1.006 OA 
BRANCH  21  22
HETATM   22  C   UNL     1     -11.497   6.964  68.660  1.00  0.00     0.243 A  
HETATM   23  C   UNL     1     -10.686  10.314  66.880  1.00  0.00    -0.252 C  
HETATM   24  C   UNL     1     -11.203   9.459  67.951  1.00  0.00     0.263 C  
HETATM   25  C   UNL     1     -10.907   7.996  67.890  1.00  0.00    -0.045 A  
HETATM   26  C   UNL     1      -9.880   7.650  66.981  1.00  0.00    -0.215 A  
HETATM   27  C   UNL     1      -9.759   9.829  66.057  1.00  0.00    -0.255 C  
HETATM   28  C   UNL     1      -9.378   6.346  66.902  1.00  0.00    -0.150 A  
HETATM   29  O   UNL     1      -9.283   8.536  66.104  1.00  0.00    -0.187 OA 
HETATM   30  C   UNL     1      -9.903   5.355  67.716  1.00  0.00    -0.174 A  
HETATM   31  C   UNL     1      -9.169  10.780  65.078  1.00  0.00    -0.211 C  
HETATM   32  O   UNL     1      -8.232  10.197  64.301  1.00  0.00    -0.156 OA 
HETATM   33  C   UNL     1     -10.965   5.660  68.563  1.00  0.00    -0.053 A  
HETATM   34  O   UNL     1     -11.764  10.037  68.869  1.00  0.00    -0.003 OA 
HETATM   35  O   UNL     1      -9.477  11.957  64.983  1.00  0.00    -0.149 OA 
ENDBRANCH  21  22
ENDBRANCH  20  21
ENDBRANCH   2  20
TORSDOF 6
ENDMDL
MODEL      315
REMARK 921   NORMALIZED FREE ENERGY PREDICTED BY IDOCK:   -1.82 KCAL/MOL
REMARK 922        TOTAL FREE ENERGY PREDICTED BY IDOCK:   -3.76 KCAL/MOL
REMARK 923 INTER-LIGAND FREE ENERGY PREDICTED BY IDOCK:   -4.35 KCAL/MOL
REMARK 924 INTRA-LIGAND FREE ENERGY PREDICTED BY IDOCK:    0.60 KCAL/MOL
REMARK 927      BINDING AFFINITY PREDICTED BY RF-SCORE:    0.00 PKD
ROOT
HETATM    1  O   UNL     1     -10.019  11.220  65.078  1.00  0.00    -0.244 OA 
HETATM    2  C   UNL     1      -9.324  10.851  66.286  1.00  0.00    -0.179 C  
HETATM    3  H   UNL     1      -9.383  11.603  64.485  1.00  0.00     0.000 HD 
ENDROOT
BRANCH   2   4
HETATM    4  C   UNL     1      -8.204   9.874  65.928  1.00  0.00    -0.124 C  
BRANCH   4   5
HETATM    5  O   UNL     1      -8.276   8.733  66.792  1.00  0.00    -0.106 OA 
BRANCH   5   6
HETATM    6  C   UNL     1      -7.417   7.694  66.564  1.00  0.00    -0.092 A  
HETATM    7  O   UNL     1     -10.397   2.495  64.048  1.00  0.00    -0.114 OA 
HETATM    8  O   UNL     1      -8.273   1.835  64.454  1.00  0.00    -0.072 OA 
HETATM    9  C   UNL     1      -6.035   7.780  66.795  1.00  0.00    -0.047 A  
HETATM   10  C   UNL     1      -5.201   6.680  66.597  1.00  0.00    -0.013 A  
HETATM   11  C   UNL     1      -9.283   2.734  64.478  1.00  0.00    -0.133 C  
HETATM   12  C   UNL     1      -5.736   5.474  66.165  1.00  0.00    -0.017 A  
HETATM   13  O   UNL     1      -7.537   4.152  65.458  1.00  0.00    -0.083 OA 
HETATM   14  C   UNL     1      -8.856   4.029  65.074  1.00  0.00    -0.128 C  
HETATM   15  C   UNL     1      -7.104   5.375  65.912  1.00  0.00    -0.068 A  
HETATM   16  C   UNL     1      -9.774   4.994  65.196  1.00  0.00     0.072 C  
HETATM   17  C   UNL     1      -7.953   6.474  66.108  1.00  0.00    -0.110 A  
HETATM   18  O   UNL     1     -10.253   7.146  65.918  1.00  0.00     0.491 OA 
HETATM   19  C   UNL     1      -9.391   6.294  65.774  1.00  0.00     0.105 C  
ENDBRANCH   5   6
ENDBRANCH   4   5
ENDBRANCH   2   4
BRANCH   2  20
HETATM   20  C   UNL     1     -10.349  10.232  67.243  1.00  0.00    -0.232 C  
BRANCH  20  21
HETATM   21  O   UNL     1      -9.843   9.181  68.041  1.00  0.00    -0.157 OA 
BRANCH  21  22
HETATM   22  C   UNL     1     -10.311   9.022  69.326  1.00  0.00    -0.219 A  
HETATM   23  C   UNL     1      -9.908   5.521  70.945  1.00  0.00    -0.241 C  
HETATM   24  C   UNL     1      -9.557   6.634  70.061  1.00  0.00    -0.156 C  
HETATM   25  C   UNL     1     -10.306   7.918  70.212  1.00  0.00    -0.212 A  
HETATM   26  C   UNL     1     -11.044   8.019  71.415  1.00  0.00    -0.241 A  
HETATM   27  C   UNL     1     -10.666   5.758  72.014  1.00  0.00    -0.233 C  
HETATM   28  C   UNL     1     -11.686   9.207  71.783  1.00  0.00    -0.456 A  
HETATM   29  O   UNL     1     -11.202   6.990  72.323  1.00  0.00    -0.246 OA 
HETATM   30  C   UNL     1     -11.621  10.313  70.951  1.00  0.00    -0.454 A  
HETATM   31  C   UNL     1     -10.876   4.623  72.951  1.00  0.00    -0.221 C  
HETATM   32  O   UNL     1     -11.644   4.969  74.007  1.00  0.00     0.186 OA 
HETATM   33  C   UNL     1     -10.963  10.208  69.728  1.00  0.00    -0.325 A  
HETATM   34  O   UNL     1      -8.601   6.447  69.324  1.00  0.00    -0.124 OA 
HETATM   35  O   UNL     1     -10.408   3.506  72.804  1.00  0.00    -0.161 OA 
ENDBRANCH  21  22
ENDBRANCH  20  21
ENDBRANCH   2  20
TORSDOF 6
ENDMDL
MODEL      316
REMARK 921   NORMALIZED FREE ENERGY PREDICTED BY IDOCK:   -1.74 KCAL/MOL
REMARK 922        TOTAL FREE ENERGY PREDICTED BY IDOCK:   -3.65 KCAL/MOL
REMARK 923 INTER-LIGAND FREE ENERGY PREDICTED BY IDOCK:   -5.23 KCAL/MOL
REMARK 924 INTRA-LIGAND FREE ENERGY PREDICTED BY IDOCK:    1.58 KCAL/MOL
REMARK 927      BINDING AFFINITY PREDICTED BY RF-SCORE:    0.00 PKD
ROOT
HETATM    1  O   UNL     1      -7.789  12.988  66.244  1.00  0.00     0.224 OA 
HETATM    2  C   UNL     1      -8.437  11.938  66.989  1.00  0.00    -0.177 C  
HETATM    3  H   UNL     1      -8.370  13.242  65.536  1.00  0.00     0.000 HD 
ENDROOT
BRANCH   2   4
HETATM    4  C   UNL     1      -9.780  12.458  67.500  1.00  0.00    -0.191 C  
BRANCH   4   5
HETATM    5  O   UNL     1     -10.753  11.408  67.429  1.00  0.00    -0.207 OA 
BRANCH   5   6
HETATM    6  C   UNL     1     -11.321  10.973  68.595  1.00  0.00    -0.281 A  
HETATM    7  O   UNL     1     -13.399  15.861  72.340  1.00  0.00    -0.461 OA 
HETATM    8  O   UNL     1     -13.683  13.990  73.578  1.00  0.00     0.323 OA 
HETATM    9  C   UNL     1     -11.486   9.613  68.904  1.00  0.00     0.184 A  
HETATM   10  C   UNL     1     -12.023   9.212  70.127  1.00  0.00     0.224 A  
HETATM   11  C   UNL     1     -13.281  14.656  72.471  1.00  0.00    -0.428 C  
HETATM   12  C   UNL     1     -12.404  10.164  71.062  1.00  0.00    -0.474 A  
HETATM   13  O   UNL     1     -12.701  12.388  71.738  1.00  0.00    -0.251 OA 
HETATM   14  C   UNL     1     -12.703  13.737  71.454  1.00  0.00    -0.367 C  
HETATM   15  C   UNL     1     -12.266  11.520  70.764  1.00  0.00    -0.363 A  
HETATM   16  C   UNL     1     -12.228  14.275  70.324  1.00  0.00    -0.407 C  
HETATM   17  C   UNL     1     -11.727  11.936  69.539  1.00  0.00    -0.410 A  
HETATM   18  O   UNL     1     -11.185  13.914  68.284  1.00  0.00    -0.249 OA 
HETATM   19  C   UNL     1     -11.655  13.400  69.288  1.00  0.00    -0.310 C  
ENDBRANCH   5   6
ENDBRANCH   4   5
ENDBRANCH   2   4
BRANCH   2  20
HETATM   20  C   UNL     1      -7.501  11.529  68.132  1.00  0.00    -0.101 C  
BRANCH  20  21
HETATM   21  O   UNL     1      -8.088  10.674  69.091  1.00  0.00    -0.139 OA 
BRANCH  21  22
HETATM   22  C   UNL     1      -7.659   9.370  69.188  1.00  0.00    -0.074 A  
HETATM   23  C   UNL     1      -8.069   7.612  72.621  1.00  0.00    -0.148 C  
HETATM   24  C   UNL     1      -8.406   8.554  71.551  1.00  0.00    -0.162 C  
HETATM   25  C   UNL     1      -7.677   8.437  70.253  1.00  0.00    -0.080 A  
HETATM   26  C   UNL     1      -6.978   7.218  70.089  1.00  0.00    -0.060 A  
HETATM   27  C   UNL     1      -7.348   6.533  72.327  1.00  0.00    -0.090 C  
HETATM   28  C   UNL     1      -6.362   6.883  68.878  1.00  0.00    -0.028 A  
HETATM   29  O   UNL     1      -6.836   6.262  71.076  1.00  0.00    -0.062 OA 
HETATM   30  C   UNL     1      -6.414   7.764  67.810  1.00  0.00    -0.052 A  
HETATM   31  C   UNL     1      -7.152   5.540  73.417  1.00  0.00    -0.086 C  
HETATM   32  O   UNL     1      -6.422   4.479  73.016  1.00  0.00    -0.038 OA 
HETATM   33  C   UNL     1      -7.034   9.001  67.976  1.00  0.00    -0.077 A  
HETATM   34  O   UNL     1      -9.337   9.311  71.783  1.00  0.00    -0.309 OA 
HETATM   35  O   UNL     1      -7.603   5.653  74.546  1.00  0.00    -0.094 OA 
ENDBRANCH  21  22
ENDBRANCH  20  21
ENDBRANCH   2  20
TORSDOF 6
ENDMDL
MODEL      317
REMARK 921   NORMALIZED FREE ENERGY PREDICTED BY IDOCK:   -1.72 KCAL/MOL
REMARK 922        TOTAL FREE ENERGY PREDICTED BY IDOCK:   -3.62 KCAL/MOL
REMARK 923 INTER-LIGAND FREE ENERGY PREDICTED BY IDOCK:   -3.66 KCAL/MOL
REMARK 924 INTRA-LIGAND FREE ENERGY PREDICTED BY IDOCK:    0.05 KCAL/MOL
REMARK 927      BINDING AFFINITY PREDICTED BY RF-SCORE:    0.00 PKD
ROOT
HETATM    1  O   UNL     1     -11.104  13.405  68.855  1.00  0.00    -0.253 OA 
HETATM    2  C   UNL     1      -9.673  13.345  69.011  1.00  0.00     0.268 C  
HETATM    3  H   UNL     1     -11.355  14.321  68.832  1.00  0.00     0.000 HD 
ENDROOT
BRANCH   2   4
HETATM    4  C   UNL     1      -9.022  14.094  67.848  1.00  0.00    -0.185 C  
BRANCH   4   5
HETATM    5  O   UNL     1      -8.926  13.220  66.716  1.00  0.00    -0.228 OA 
BRANCH   5   6
HETATM    6  C   UNL     1      -7.788  12.476  66.569  1.00  0.00     0.418 A  
HETATM    7  O   UNL     1      -8.766   7.084  63.074  1.00  0.00     0.320 OA 
HETATM    8  O   UNL     1      -6.638   6.938  63.826  1.00  0.00    -0.041 OA 
HETATM    9  C   UNL     1      -6.541  12.878  67.070  1.00  0.00     0.326 A  
HETATM   10  C   UNL     1      -5.415  12.065  66.943  1.00  0.00    -0.058 A  
HETATM   11  C   UNL     1      -7.847   7.538  63.732  1.00  0.00    -0.112 C  
HETATM   12  C   UNL     1      -5.519  10.834  66.311  1.00  0.00    -0.101 A  
HETATM   13  O   UNL     1      -6.744   9.206  65.153  1.00  0.00    -0.071 OA 
HETATM   14  C   UNL     1      -7.897   8.804  64.511  1.00  0.00    -0.129 C  
HETATM   15  C   UNL     1      -6.746  10.425  65.789  1.00  0.00    -0.126 A  
HETATM   16  C   UNL     1      -9.053   9.477  64.536  1.00  0.00    -0.250 C  
HETATM   17  C   UNL     1      -7.885  11.233  65.912  1.00  0.00     0.115 A  
HETATM   18  O   UNL     1     -10.218  11.316  65.338  1.00  0.00    -0.247 OA 
HETATM   19  C   UNL     1      -9.142  10.740  65.290  1.00  0.00    -0.195 C  
ENDBRANCH   5   6
ENDBRANCH   4   5
ENDBRANCH   2   4
BRANCH   2  20
HETATM   20  C   UNL     1      -9.269  11.867  69.047  1.00  0.00     0.293 C  
BRANCH  20  21
HETATM   21  O   UNL     1     -10.323  10.966  68.774  1.00  0.00    -0.181 OA 
BRANCH  21  22
HETATM   22  C   UNL     1     -10.917  10.286  69.812  1.00  0.00    -0.289 A  
HETATM   23  C   UNL     1      -9.908   6.575  70.317  1.00  0.00    -0.185 C  
HETATM   24  C   UNL     1      -9.716   7.972  69.919  1.00  0.00    -0.180 C  
HETATM   25  C   UNL     1     -10.770   8.962  70.292  1.00  0.00    -0.248 A  
HETATM   26  C   UNL     1     -11.676   8.501  71.276  1.00  0.00    -0.284 A  
HETATM   27  C   UNL     1     -10.846   6.282  71.215  1.00  0.00    -0.265 C  
HETATM   28  C   UNL     1     -12.635   9.347  71.845  1.00  0.00    -0.481 A  
HETATM   29  O   UNL     1     -11.706   7.209  71.765  1.00  0.00    -0.267 OA 
HETATM   30  C   UNL     1     -12.723  10.666  71.430  1.00  0.00    -0.545 A  
HETATM   31  C   UNL     1     -10.905   4.873  71.686  1.00  0.00     0.084 C  
HETATM   32  O   UNL     1     -11.878   4.682  72.603  1.00  0.00     0.139 OA 
HETATM   33  C   UNL     1     -11.890  11.117  70.409  1.00  0.00    -0.462 A  
HETATM   34  O   UNL     1      -8.648   8.231  69.387  1.00  0.00    -0.131 OA 
HETATM   35  O   UNL     1     -10.162   3.983  71.307  1.00  0.00    -0.112 OA 
ENDBRANCH  21  22
ENDBRANCH  20  21
ENDBRANCH   2  20
TORSDOF 6
ENDMDL
MODEL      318
REMARK 921   NORMALIZED FREE ENERGY PREDICTED BY IDOCK:   -0.75 KCAL/MOL
REMARK 922        TOTAL FREE ENERGY PREDICTED BY IDOCK:   -2.30 KCAL/MOL
REMARK 923 INTER-LIGAND FREE ENERGY PREDICTED BY IDOCK:   -3.36 KCAL/MOL
REMARK 924 INTRA-LIGAND FREE ENERGY PREDICTED BY IDOCK:    1.05 KCAL/MOL
REMARK 927      BINDING AFFINITY PREDICTED BY RF-SCORE:    0.00 PKD
ROOT
HETATM    1  O   UNL     1      -7.766   9.943  65.303  1.00  0.00    -0.117 OA 
HETATM    2  C   UNL     1      -7.182   9.337  66.473  1.00  0.00    -0.086 C  
HETATM    3  H   UNL     1      -7.064  10.120  64.687  1.00  0.00     0.000 HD 
ENDROOT
BRANCH   2   4
HETATM    4  C   UNL     1      -6.448   8.064  66.050  1.00  0.00    -0.046 C  
BRANCH   4   5
HETATM    5  O   UNL     1      -6.948   6.956  66.809  1.00  0.00    -0.062 OA 
BRANCH   5   6
HETATM    6  C   UNL     1      -6.682   5.692  66.359  1.00  0.00    -0.057 A  
HETATM    7  O   UNL     1     -11.635   3.137  63.015  1.00  0.00     0.051 OA 
HETATM    8  O   UNL     1     -10.119   1.471  63.214  1.00  0.00    -0.108 OA 
HETATM    9  C   UNL     1      -5.446   5.055  66.553  1.00  0.00    -0.013 A  
HETATM   10  C   UNL     1      -5.234   3.746  66.123  1.00  0.00    -0.009 A  
HETATM   11  C   UNL     1     -10.572   2.725  63.443  1.00  0.00    -0.224 C  
HETATM   12  C   UNL     1      -6.255   3.051  65.491  1.00  0.00    -0.024 A  
HETATM   13  O   UNL     1      -8.423   2.917  64.610  1.00  0.00    -0.090 OA 
HETATM   14  C   UNL     1      -9.612   3.519  64.257  1.00  0.00    -0.160 C  
HETATM   15  C   UNL     1      -7.484   3.673  65.272  1.00  0.00    -0.077 A  
HETATM   16  C   UNL     1      -9.959   4.767  64.590  1.00  0.00     0.203 C  
HETATM   17  C   UNL     1      -7.710   4.989  65.700  1.00  0.00    -0.087 A  
HETATM   18  O   UNL     1      -9.388   6.710  65.721  1.00  0.00    -0.001 OA 
HETATM   19  C   UNL     1      -9.034   5.590  65.389  1.00  0.00    -0.099 C  
ENDBRANCH   5   6
ENDBRANCH   4   5
ENDBRANCH   2   4
BRANCH   2  20
HETATM   20  C   UNL     1      -8.314   9.052  67.466  1.00  0.00    -0.116 C  
BRANCH  20  21
HETATM   21  O   UNL     1      -8.209   7.809  68.131  1.00  0.00    -0.122 OA 
BRANCH  21  22
HETATM   22  C   UNL     1      -8.450   7.745  69.484  1.00  0.00    -0.131 A  
HETATM   23  C   UNL     1      -9.585   4.328  70.928  1.00  0.00    -0.253 C  
HETATM   24  C   UNL     1      -8.886   5.225  70.004  1.00  0.00    -0.120 C  
HETATM   25  C   UNL     1      -8.843   6.681  70.332  1.00  0.00    -0.152 A  
HETATM   26  C   UNL     1      -9.196   6.984  71.668  1.00  0.00    -0.142 A  
HETATM   27  C   UNL     1      -9.910   4.774  72.139  1.00  0.00    -0.172 C  
HETATM   28  C   UNL     1      -9.071   8.279  72.185  1.00  0.00    -0.279 A  
HETATM   29  O   UNL     1      -9.684   6.062  72.575  1.00  0.00    -0.158 OA 
HETATM   30  C   UNL     1      -8.609   9.303  71.374  1.00  0.00     0.082 A  
HETATM   31  C   UNL     1     -10.491   3.784  73.084  1.00  0.00    -0.176 C  
HETATM   32  O   UNL     1     -10.773   4.329  74.286  1.00  0.00    -0.248 OA 
HETATM   33  C   UNL     1      -8.328   9.039  70.036  1.00  0.00    -0.144 A  
HETATM   34  O   UNL     1      -8.308   4.684  69.073  1.00  0.00    -0.080 OA 
HETATM   35  O   UNL     1     -10.686   2.608  72.822  1.00  0.00    -0.141 OA 
ENDBRANCH  21  22
ENDBRANCH  20  21
ENDBRANCH   2  20
TORSDOF 6
ENDMDL
MODEL      319
REMARK 921   NORMALIZED FREE ENERGY PREDICTED BY IDOCK:   -0.68 KCAL/MOL
REMARK 922        TOTAL FREE ENERGY PREDICTED BY IDOCK:   -2.22 KCAL/MOL
REMARK 923 INTER-LIGAND FREE ENERGY PREDICTED BY IDOCK:   -2.99 KCAL/MOL
REMARK 924 INTRA-LIGAND FREE ENERGY PREDICTED BY IDOCK:    0.77 KCAL/MOL
REMARK 927      BINDING AFFINITY PREDICTED BY RF-SCORE:    0.00 PKD
ROOT
HETATM    1  O   UNL     1      -9.046   4.492  65.834  1.00  0.00    -0.123 OA 
HETATM    2  C   UNL     1      -7.860   5.181  66.275  1.00  0.00    -0.103 C  
HETATM    3  H   UNL     1      -9.258   3.834  66.486  1.00  0.00     0.000 HD 
ENDROOT
BRANCH   2   4
HETATM    4  C   UNL     1      -8.131   5.793  67.649  1.00  0.00    -0.102 C  
BRANCH   4   5
HETATM    5  O   UNL     1      -9.230   6.707  67.551  1.00  0.00    -0.116 OA 
BRANCH   5   6
HETATM    6  C   UNL     1      -9.375   7.652  68.530  1.00  0.00    -0.147 A  
HETATM    7  O   UNL     1     -14.379   6.408  72.485  1.00  0.00    -0.097 OA 
HETATM    8  O   UNL     1     -13.608   8.440  73.109  1.00  0.00     0.085 OA 
HETATM    9  C   UNL     1      -8.492   8.732  68.686  1.00  0.00    -0.129 A  
HETATM   10  C   UNL     1      -8.704   9.701  69.665  1.00  0.00    -0.206 A  
HETATM   11  C   UNL     1     -13.608   7.337  72.326  1.00  0.00     0.188 C  
HETATM   12  C   UNL     1      -9.805   9.607  70.505  1.00  0.00    -0.294 A  
HETATM   13  O   UNL     1     -11.725   8.506  71.274  1.00  0.00    -0.271 OA 
HETATM   14  C   UNL     1     -12.555   7.404  71.277  1.00  0.00    -0.340 C  
HETATM   15  C   UNL     1     -10.683   8.531  70.378  1.00  0.00    -0.228 A  
HETATM   16  C   UNL     1     -12.474   6.391  70.407  1.00  0.00     0.546 C  
HETATM   17  C   UNL     1     -10.480   7.550  69.397  1.00  0.00    -0.222 A  
HETATM   18  O   UNL     1     -11.412   5.504  68.546  1.00  0.00     0.606 OA 
HETATM   19  C   UNL     1     -11.440   6.415  69.358  1.00  0.00    -0.305 C  
ENDBRANCH   5   6
ENDBRANCH   4   5
ENDBRANCH   2   4
BRANCH   2  20
HETATM   20  C   UNL     1      -7.518   6.242  65.224  1.00  0.00    -0.084 C  
BRANCH  20  21
HETATM   21  O   UNL     1      -6.369   7.010  65.520  1.00  0.00    -0.041 OA 
BRANCH  21  22
HETATM   22  C   UNL     1      -6.517   8.259  66.079  1.00  0.00    -0.049 A  
HETATM   23  C   UNL     1      -9.556  10.375  64.925  1.00  0.00    -0.348 C  
HETATM   24  C   UNL     1      -8.818   9.146  65.225  1.00  0.00    -0.199 C  
HETATM   25  C   UNL     1      -7.499   9.266  65.914  1.00  0.00    -0.095 A  
HETATM   26  C   UNL     1      -7.263  10.534  66.497  1.00  0.00    -0.124 A  
HETATM   27  C   UNL     1      -9.180  11.513  65.505  1.00  0.00    -0.142 C  
HETATM   28  C   UNL     1      -6.144  10.775  67.302  1.00  0.00    -0.056 A  
HETATM   29  O   UNL     1      -8.088  11.631  66.339  1.00  0.00    -0.130 OA 
HETATM   30  C   UNL     1      -5.226   9.762  67.527  1.00  0.00    -0.035 A  
HETATM   31  C   UNL     1     -10.045  12.700  65.276  1.00  0.00    -0.253 C  
HETATM   32  O   UNL     1      -9.587  13.797  65.916  1.00  0.00    -0.233 OA 
HETATM   33  C   UNL     1      -5.401   8.530  66.901  1.00  0.00    -0.036 A  
HETATM   34  O   UNL     1      -9.396   8.102  64.965  1.00  0.00     0.390 OA 
HETATM   35  O   UNL     1     -11.061  12.697  64.600  1.00  0.00    -0.291 OA 
ENDBRANCH  21  22
ENDBRANCH  20  21
ENDBRANCH   2  20
TORSDOF 6
ENDMDL
MODEL      320
REMARK 921   NORMALIZED FREE ENERGY PREDICTED BY IDOCK:   -0.06 KCAL/MOL
REMARK 922        TOTAL FREE ENERGY PREDICTED BY IDOCK:   -1.38 KCAL/MOL
REMARK 923 INTER-LIGAND FREE ENERGY PREDICTED BY IDOCK:   -2.86 KCAL/MOL
REMARK 924 INTRA-LIGAND FREE ENERGY PREDICTED BY IDOCK:    1.48 KCAL/MOL
REMARK 927      BINDING AFFINITY PREDICTED BY RF-SCORE:    0.00 PKD
ROOT
HETATM    1  O   UNL     1      -6.613   9.900  64.964  1.00  0.00    -0.096 OA 
HETATM    2  C   UNL     1      -6.129   9.207  66.131  1.00  0.00    -0.059 C  
HETATM    3  H   UNL     1      -5.896   9.957  64.344  1.00  0.00     0.000 HD 
ENDROOT
BRANCH   2   4
HETATM    4  C   UNL     1      -5.620   7.830  65.707  1.00  0.00    -0.033 C  
BRANCH   4   5
HETATM    5  O   UNL     1      -6.290   6.821  66.473  1.00  0.00    -0.042 OA 
BRANCH   5   6
HETATM    6  C   UNL     1      -6.250   5.531  66.018  1.00  0.00    -0.034 A  
HETATM    7  O   UNL     1     -11.628   3.860  62.774  1.00  0.00     0.262 OA 
HETATM    8  O   UNL     1     -10.412   1.961  62.944  1.00  0.00    -0.106 OA 
HETATM    9  C   UNL     1      -5.136   4.694  66.188  1.00  0.00    -0.008 A  
HETATM   10  C   UNL     1      -5.156   3.369  65.754  1.00  0.00    -0.008 A  
HETATM   11  C   UNL     1     -10.641   3.273  63.181  1.00  0.00    -0.231 C  
HETATM   12  C   UNL     1      -6.293   2.858  65.143  1.00  0.00    -0.027 A  
HETATM   13  O   UNL     1      -8.468   3.096  64.305  1.00  0.00    -0.089 OA 
HETATM   14  C   UNL     1      -9.546   3.891  63.975  1.00  0.00    -0.162 C  
HETATM   15  C   UNL     1      -7.403   3.680  64.948  1.00  0.00    -0.072 A  
HETATM   16  C   UNL     1      -9.670   5.179  64.315  1.00  0.00     0.611 C  
HETATM   17  C   UNL     1      -7.395   5.014  65.380  1.00  0.00    -0.072 A  
HETATM   18  O   UNL     1      -8.756   6.994  65.433  1.00  0.00    -0.094 OA 
HETATM   19  C   UNL     1      -8.604   5.831  65.095  1.00  0.00    -0.109 C  
ENDBRANCH   5   6
ENDBRANCH   4   5
ENDBRANCH   2   4
BRANCH   2  20
HETATM   20  C   UNL     1      -7.286   9.114  67.133  1.00  0.00    -0.087 C  
BRANCH  20  21
HETATM   21  O   UNL     1      -7.141   8.095  68.101  1.00  0.00    -0.078 OA 
BRANCH  21  22
HETATM   22  C   UNL     1      -8.047   8.009  69.133  1.00  0.00    -0.119 A  
HETATM   23  C   UNL     1     -11.015  10.507  69.106  1.00  0.00    -0.286 C  
HETATM   24  C   UNL     1      -9.973   9.661  68.520  1.00  0.00    -0.165 C  
HETATM   25  C   UNL     1      -9.234   8.726  69.421  1.00  0.00    -0.146 A  
HETATM   26  C   UNL     1      -9.851   8.524  70.678  1.00  0.00    -0.186 A  
HETATM   27  C   UNL     1     -11.458  10.231  70.331  1.00  0.00    -0.335 C  
HETATM   28  C   UNL     1      -9.373   7.573  71.586  1.00  0.00    -0.164 A  
HETATM   29  O   UNL     1     -10.957   9.222  71.125  1.00  0.00    -0.281 OA 
HETATM   30  C   UNL     1      -8.257   6.816  71.267  1.00  0.00    -0.119 A  
HETATM   31  C   UNL     1     -12.610  11.032  70.822  1.00  0.00    -0.369 C  
HETATM   32  O   UNL     1     -12.992  10.668  72.065  1.00  0.00    -0.461 OA 
HETATM   33  C   UNL     1      -7.592   7.053  70.066  1.00  0.00    -0.099 A  
HETATM   34  O   UNL     1      -9.857   9.725  67.306  1.00  0.00    -0.165 OA 
HETATM   35  O   UNL     1     -13.165  11.913  70.185  1.00  0.00     0.569 OA 
ENDBRANCH  21  22
ENDBRANCH  20  21
ENDBRANCH   2  20
TORSDOF 6
ENDMDL
MODEL      321
REMARK 921   NORMALIZED FREE ENERGY PREDICTED BY IDOCK:   -0.02 KCAL/MOL
REMARK 922        TOTAL FREE ENERGY PREDICTED BY IDOCK:   -1.32 KCAL/MOL
REMARK 923 INTER-LIGAND FREE ENERGY PREDICTED BY IDOCK:   -1.43 KCAL/MOL
REMARK 924 INTRA-LIGAND FREE ENERGY PREDICTED BY IDOCK:    0.11 KCAL/MOL
REMARK 927      BINDING AFFINITY PREDICTED BY RF-SCORE:    0.00 PKD
ROOT
HETATM    1  O   UNL     1     -13.364  15.014  64.625  1.00  0.00     0.217 OA 
HETATM    2  C   UNL     1     -12.174  15.804  64.437  1.00  0.00     0.079 C  
HETATM    3  H   UNL     1     -13.543  14.560  63.810  1.00  0.00     0.000 HD 
ENDROOT
BRANCH   2   4
HETATM    4  C   UNL     1     -11.030  14.875  64.029  1.00  0.00     0.753 C  
BRANCH   4   5
HETATM    5  O   UNL     1     -11.044  13.711  64.865  1.00  0.00    -0.320 OA 
BRANCH   5   6
HETATM    6  C   UNL     1     -10.073  13.589  65.820  1.00  0.00    -0.287 A  
HETATM    7  O   UNL     1     -11.127   8.582  69.828  1.00  0.00    -0.188 OA 
HETATM    8  O   UNL     1      -9.339   9.672  70.682  1.00  0.00    -0.239 OA 
HETATM    9  C   UNL     1      -8.946  14.424  65.876  1.00  0.00     0.384 A  
HETATM   10  C   UNL     1      -8.006  14.298  66.898  1.00  0.00     0.131 A  
HETATM   11  C   UNL     1     -10.342   9.513  69.788  1.00  0.00    -0.230 C  
HETATM   12  C   UNL     1      -8.177  13.335  67.882  1.00  0.00    -0.163 A  
HETATM   13  O   UNL     1      -9.348  11.541  68.831  1.00  0.00    -0.121 OA 
HETATM   14  C   UNL     1     -10.348  10.593  68.766  1.00  0.00    -0.193 C  
HETATM   15  C   UNL     1      -9.281  12.483  67.832  1.00  0.00    -0.200 A  
HETATM   16  C   UNL     1     -11.318  10.576  67.844  1.00  0.00    -0.297 C  
HETATM   17  C   UNL     1     -10.233  12.600  66.811  1.00  0.00    -0.246 A  
HETATM   18  O   UNL     1     -12.274  11.618  66.005  1.00  0.00    -0.160 OA 
HETATM   19  C   UNL     1     -11.356  11.624  66.810  1.00  0.00    -0.286 C  
ENDBRANCH   5   6
ENDBRANCH   4   5
ENDBRANCH   2   4
BRANCH   2  20
HETATM   20  C   UNL     1     -11.885  16.535  65.753  1.00  0.00     1.575 C  
BRANCH  20  21
HETATM   21  O   UNL     1     -11.793  15.691  66.882  1.00  0.00     0.179 OA 
BRANCH  21  22
HETATM   22  C   UNL     1     -11.024  16.080  67.955  1.00  0.00    -0.341 A  
HETATM   23  C   UNL     1      -7.870  18.209  67.204  1.00  0.00    -0.230 C  
HETATM   24  C   UNL     1      -9.227  17.704  66.984  1.00  0.00    -0.250 C  
HETATM   25  C   UNL     1      -9.849  16.864  68.051  1.00  0.00    -0.264 A  
HETATM   26  C   UNL     1      -9.183  16.927  69.298  1.00  0.00    -0.005 A  
HETATM   27  C   UNL     1      -7.347  18.146  68.427  1.00  0.00    -0.270 C  
HETATM   28  C   UNL     1      -9.711  16.318  70.442  1.00  0.00     1.159 A  
HETATM   29  O   UNL     1      -7.982  17.576  69.510  1.00  0.00     0.197 OA 
HETATM   30  C   UNL     1     -10.904  15.618  70.363  1.00  0.00    -0.358 A  
HETATM   31  C   UNL     1      -6.026  18.797  68.626  1.00  0.00    -0.210 C  
HETATM   32  O   UNL     1      -5.590  18.691  69.899  1.00  0.00    -0.219 OA 
HETATM   33  C   UNL     1     -11.535  15.482  69.128  1.00  0.00    -0.356 A  
HETATM   34  O   UNL     1      -9.781  18.095  65.968  1.00  0.00    -0.497 OA 
HETATM   35  O   UNL     1      -5.399  19.374  67.752  1.00  0.00    -0.175 OA 
ENDBRANCH  21  22
ENDBRANCH  20  21
ENDBRANCH   2  20
TORSDOF 6
ENDMDL
MODEL      322
REMARK 921   NORMALIZED FREE ENERGY PREDICTED BY IDOCK:    0.72 KCAL/MOL
REMARK 922        TOTAL FREE ENERGY PREDICTED BY IDOCK:   -0.33 KCAL/MOL
REMARK 923 INTER-LIGAND FREE ENERGY PREDICTED BY IDOCK:   -3.93 KCAL/MOL
REMARK 924 INTRA-LIGAND FREE ENERGY PREDICTED BY IDOCK:    3.60 KCAL/MOL
REMARK 927      BINDING AFFINITY PREDICTED BY RF-SCORE:    0.00 PKD
ROOT
HETATM    1  O   UNL     1      -9.254   4.411  65.826  1.00  0.00    -0.127 OA 
HETATM    2  C   UNL     1      -8.047   5.032  66.313  1.00  0.00    -0.108 C  
HETATM    3  H   UNL     1      -9.510   3.745  66.454  1.00  0.00     0.000 HD 
ENDROOT
BRANCH   2   4
HETATM    4  C   UNL     1      -8.322   5.616  67.698  1.00  0.00    -0.100 C  
BRANCH   4   5
HETATM    5  O   UNL     1      -9.405   6.551  67.611  1.00  0.00    -0.120 OA 
BRANCH   5   6
HETATM    6  C   UNL     1      -9.498   7.524  68.568  1.00  0.00    -0.146 A  
HETATM    7  O   UNL     1      -6.497   5.883  74.095  1.00  0.00    -0.072 OA 
HETATM    8  O   UNL     1      -7.549   7.836  74.536  1.00  0.00    -0.148 OA 
HETATM    9  C   UNL     1     -10.122   8.761  68.344  1.00  0.00    -0.217 A  
HETATM   10  C   UNL     1     -10.240   9.705  69.363  1.00  0.00    -0.220 A  
HETATM   11  C   UNL     1      -7.224   6.793  73.738  1.00  0.00    -0.082 C  
HETATM   12  C   UNL     1      -9.735   9.427  70.626  1.00  0.00    -0.336 A  
HETATM   13  O   UNL     1      -8.599   8.039  72.133  1.00  0.00    -0.128 OA 
HETATM   14  C   UNL     1      -7.849   6.911  72.394  1.00  0.00    -0.096 C  
HETATM   15  C   UNL     1      -9.094   8.211  70.863  1.00  0.00    -0.151 A  
HETATM   16  C   UNL     1      -7.641   5.921  71.519  1.00  0.00    -0.099 C  
HETATM   17  C   UNL     1      -8.970   7.253  69.846  1.00  0.00    -0.142 A  
HETATM   18  O   UNL     1      -8.072   5.068  69.405  1.00  0.00    -0.078 OA 
HETATM   19  C   UNL     1      -8.236   6.003  70.173  1.00  0.00    -0.119 C  
ENDBRANCH   5   6
ENDBRANCH   4   5
ENDBRANCH   2   4
BRANCH   2  20
HETATM   20  C   UNL     1      -7.634   6.106  65.300  1.00  0.00    -0.089 C  
BRANCH  20  21
HETATM   21  O   UNL     1      -6.470   6.825  65.654  1.00  0.00    -0.047 OA 
BRANCH  21  22
HETATM   22  C   UNL     1      -6.593   8.059  66.250  1.00  0.00    -0.047 A  
HETATM   23  C   UNL     1      -9.429  10.376  64.974  1.00  0.00    -0.308 C  
HETATM   24  C   UNL     1      -8.779   9.099  65.275  1.00  0.00    -0.188 C  
HETATM   25  C   UNL     1      -7.507   9.123  66.058  1.00  0.00    -0.095 A  
HETATM   26  C   UNL     1      -7.249  10.354  66.706  1.00  0.00    -0.109 A  
HETATM   27  C   UNL     1      -9.037  11.471  65.623  1.00  0.00    -0.126 C  
HETATM   28  C   UNL     1      -6.179  10.505  67.595  1.00  0.00    -0.056 A  
HETATM   29  O   UNL     1      -8.003  11.499  66.534  1.00  0.00    -0.158 OA 
HETATM   30  C   UNL     1      -5.332   9.437  67.843  1.00  0.00    -0.037 A  
HETATM   31  C   UNL     1      -9.822  12.710  65.382  1.00  0.00    -0.141 C  
HETATM   32  O   UNL     1      -9.355  13.757  66.095  1.00  0.00    -0.201 OA 
HETATM   33  C   UNL     1      -5.526   8.240  67.158  1.00  0.00    -0.037 A  
HETATM   34  O   UNL     1      -9.390   8.098  64.935  1.00  0.00     0.500 OA 
HETATM   35  O   UNL     1     -10.786  12.787  64.638  1.00  0.00    -0.302 OA 
ENDBRANCH  21  22
ENDBRANCH  20  21
ENDBRANCH   2  20
TORSDOF 6
ENDMDL
MODEL      323
REMARK 921   NORMALIZED FREE ENERGY PREDICTED BY IDOCK:    7.86 KCAL/MOL
REMARK 922        TOTAL FREE ENERGY PREDICTED BY IDOCK:    9.32 KCAL/MOL
REMARK 923 INTER-LIGAND FREE ENERGY PREDICTED BY IDOCK:    4.77 KCAL/MOL
REMARK 924 INTRA-LIGAND FREE ENERGY PREDICTED BY IDOCK:    4.55 KCAL/MOL
REMARK 927      BINDING AFFINITY PREDICTED BY RF-SCORE:    0.00 PKD
ROOT
HETATM    1  O   UNL     1     -11.242   9.191  65.005  1.00  0.00     3.361 OA 
HETATM    2  C   UNL     1     -10.975  10.534  64.557  1.00  0.00     0.728 C  
HETATM    3  H   UNL     1     -11.195   8.618  64.248  1.00  0.00     0.000 HD 
ENDROOT
BRANCH   2   4
HETATM    4  C   UNL     1      -9.599  10.564  63.892  1.00  0.00    -0.309 C  
BRANCH   4   5
HETATM    5  O   UNL     1      -9.094   9.227  63.789  1.00  0.00    -0.141 OA 
BRANCH   5   6
HETATM    6  C   UNL     1      -9.238   8.396  64.866  1.00  0.00     0.502 A  
HETATM    7  O   UNL     1      -6.412  10.743  70.227  1.00  0.00    -0.146 OA 
HETATM    8  O   UNL     1      -7.116   8.665  70.776  1.00  0.00    -0.049 OA 
HETATM    9  C   UNL     1      -9.974   7.201  64.817  1.00  0.00     3.493 A  
HETATM   10  C   UNL     1     -10.053   6.358  65.924  1.00  0.00     0.458 A  
HETATM   11  C   UNL     1      -6.937   9.690  69.912  1.00  0.00    -0.081 C  
HETATM   12  C   UNL     1      -9.398   6.695  67.100  1.00  0.00    -0.150 A  
HETATM   13  O   UNL     1      -8.091   8.152  68.388  1.00  0.00    -0.124 OA 
HETATM   14  C   UNL     1      -7.469   9.371  68.560  1.00  0.00    -0.080 C  
HETATM   15  C   UNL     1      -8.678   7.888  67.174  1.00  0.00    -0.131 A  
HETATM   16  C   UNL     1      -7.319  10.288  67.596  1.00  0.00    -0.088 C  
HETATM   17  C   UNL     1      -8.590   8.744  66.067  1.00  0.00    -0.166 A  
HETATM   18  O   UNL     1      -7.651  10.844  65.369  1.00  0.00    -0.026 OA 
HETATM   19  C   UNL     1      -7.838  10.014  66.245  1.00  0.00    -0.111 C  
ENDBRANCH   5   6
ENDBRANCH   4   5
ENDBRANCH   2   4
BRANCH   2  20
HETATM   20  C   UNL     1     -11.050  11.457  65.778  1.00  0.00    -0.153 C  
BRANCH  20  21
HETATM   21  O   UNL     1     -10.060  12.466  65.809  1.00  0.00    -0.247 OA 
BRANCH  21  22
HETATM   22  C   UNL     1     -10.442  13.788  65.780  1.00  0.00    -0.299 A  
HETATM   23  C   UNL     1      -8.305  16.301  67.819  1.00  0.00    -0.169 C  
HETATM   24  C   UNL     1      -8.561  15.093  67.032  1.00  0.00    -0.237 C  
HETATM   25  C   UNL     1      -9.892  14.952  66.370  1.00  0.00    -0.292 A  
HETATM   26  C   UNL     1     -10.637  16.153  66.305  1.00  0.00    -0.274 A  
HETATM   27  C   UNL     1      -9.131  17.338  67.699  1.00  0.00    -0.228 C  
HETATM   28  C   UNL     1     -11.839  16.233  65.593  1.00  0.00     1.168 A  
HETATM   29  O   UNL     1     -10.266  17.335  66.915  1.00  0.00    -0.305 OA 
HETATM   30  C   UNL     1     -12.334  15.111  64.948  1.00  0.00     0.015 A  
HETATM   31  C   UNL     1      -8.749  18.586  68.412  1.00  0.00    -0.327 C  
HETATM   32  O   UNL     1      -9.642  19.579  68.216  1.00  0.00    -0.340 OA 
HETATM   33  C   UNL     1     -11.654  13.901  65.064  1.00  0.00    -0.350 A  
HETATM   34  O   UNL     1      -7.614  14.332  66.904  1.00  0.00     0.079 OA 
HETATM   35  O   UNL     1      -7.743  18.716  69.090  1.00  0.00    -0.216 OA 
ENDBRANCH  21  22
ENDBRANCH  20  21
ENDBRANCH   2  20
TORSDOF 6
ENDMDL
MODEL      324
REMARK 921   NORMALIZED FREE ENERGY PREDICTED BY IDOCK:   11.35 KCAL/MOL
REMARK 922        TOTAL FREE ENERGY PREDICTED BY IDOCK:   14.03 KCAL/MOL
REMARK 923 INTER-LIGAND FREE ENERGY PREDICTED BY IDOCK:   12.67 KCAL/MOL
REMARK 924 INTRA-LIGAND FREE ENERGY PREDICTED BY IDOCK:    1.37 KCAL/MOL
REMARK 927      BINDING AFFINITY PREDICTED BY RF-SCORE:    0.00 PKD
ROOT
HETATM    1  O   UNL     1     -13.493  15.417  64.444  1.00  0.00     0.547 OA 
HETATM    2  C   UNL     1     -12.523  16.453  64.698  1.00  0.00     1.829 C  
HETATM    3  H   UNL     1     -13.581  15.327  63.502  1.00  0.00     0.000 HD 
ENDROOT
BRANCH   2   4
HETATM    4  C   UNL     1     -11.206  16.064  64.028  1.00  0.00     0.421 C  
BRANCH   4   5
HETATM    5  O   UNL     1     -10.651  14.925  64.699  1.00  0.00    -0.360 OA 
BRANCH   5   6
HETATM    6  C   UNL     1     -11.101  13.684  64.343  1.00  0.00    -0.364 A  
HETATM    7  O   UNL     1      -6.495   9.125  64.828  1.00  0.00    -0.069 OA 
HETATM    8  O   UNL     1      -8.270   8.090  63.886  1.00  0.00    -0.133 OA 
HETATM    9  C   UNL     1     -12.432  13.428  63.977  1.00  0.00    -0.310 A  
HETATM   10  C   UNL     1     -12.838  12.157  63.572  1.00  0.00    -0.453 A  
HETATM   11  C   UNL     1      -7.629   9.170  64.386  1.00  0.00    -0.115 C  
HETATM   12  C   UNL     1     -11.918  11.119  63.527  1.00  0.00     0.642 A  
HETATM   13  O   UNL     1      -9.766  10.254  63.859  1.00  0.00    -0.307 OA 
HETATM   14  C   UNL     1      -8.479  10.390  64.337  1.00  0.00    -0.163 C  
HETATM   15  C   UNL     1     -10.595  11.349  63.906  1.00  0.00    -0.392 A  
HETATM   16  C   UNL     1      -7.947  11.540  64.765  1.00  0.00     1.210 C  
HETATM   17  C   UNL     1     -10.175  12.623  64.314  1.00  0.00    -0.358 A  
HETATM   18  O   UNL     1      -8.240  13.818  65.093  1.00  0.00     3.673 OA 
HETATM   19  C   UNL     1      -8.758  12.770  64.741  1.00  0.00     2.257 C  
ENDBRANCH   5   6
ENDBRANCH   4   5
ENDBRANCH   2   4
BRANCH   2  20
HETATM   20  C   UNL     1     -12.382  16.598  66.217  1.00  0.00     3.472 C  
BRANCH  20  21
HETATM   21  O   UNL     1     -12.447  15.378  66.929  1.00  0.00     0.728 OA 
BRANCH  21  22
HETATM   22  C   UNL     1     -11.918  15.307  68.197  1.00  0.00    -0.074 A  
HETATM   23  C   UNL     1      -8.060  15.526  68.530  1.00  0.00    -0.146 C  
HETATM   24  C   UNL     1      -9.368  15.790  67.926  1.00  0.00    -0.200 C  
HETATM   25  C   UNL     1     -10.589  15.377  68.681  1.00  0.00    -0.239 A  
HETATM   26  C   UNL     1     -10.354  15.077  70.043  1.00  0.00    -0.075 A  
HETATM   27  C   UNL     1      -7.998  15.192  69.817  1.00  0.00    -0.019 C  
HETATM   28  C   UNL     1     -11.405  14.813  70.928  1.00  0.00    -0.206 A  
HETATM   29  O   UNL     1      -9.102  15.017  70.624  1.00  0.00     0.898 OA 
HETATM   30  C   UNL     1     -12.713  14.824  70.469  1.00  0.00    -0.397 A  
HETATM   31  C   UNL     1      -6.641  15.072  70.413  1.00  0.00     0.005 C  
HETATM   32  O   UNL     1      -6.686  14.744  71.722  1.00  0.00     0.850 OA 
HETATM   33  C   UNL     1     -12.958  15.044  69.115  1.00  0.00     0.831 A  
HETATM   34  O   UNL     1      -9.353  16.421  66.880  1.00  0.00    -0.215 OA 
HETATM   35  O   UNL     1      -5.598  15.255  69.806  1.00  0.00    -0.103 OA 
ENDBRANCH  21  22
ENDBRANCH  20  21
ENDBRANCH   2  20
TORSDOF 6
ENDMDL
MODEL      325
REMARK 921   NORMALIZED FREE ENERGY PREDICTED BY IDOCK:   12.56 KCAL/MOL
REMARK 922        TOTAL FREE ENERGY PREDICTED BY IDOCK:   15.67 KCAL/MOL
REMARK 923 INTER-LIGAND FREE ENERGY PREDICTED BY IDOCK:    4.78 KCAL/MOL
REMARK 924 INTRA-LIGAND FREE ENERGY PREDICTED BY IDOCK:   10.89 KCAL/MOL
REMARK 927      BINDING AFFINITY PREDICTED BY RF-SCORE:    0.00 PKD
ROOT
HETATM    1  O   UNL     1     -10.920  13.849  69.220  1.00  0.00    -0.311 OA 
HETATM    2  C   UNL     1      -9.697  14.600  69.356  1.00  0.00     0.032 C  
HETATM    3  H   UNL     1     -11.645  14.449  69.354  1.00  0.00     0.000 HD 
ENDROOT
BRANCH   2   4
HETATM    4  C   UNL     1      -9.705  15.737  68.335  1.00  0.00    -0.203 C  
BRANCH   4   5
HETATM    5  O   UNL     1      -9.327  15.223  67.051  1.00  0.00    -0.208 OA 
BRANCH   5   6
HETATM    6  C   UNL     1      -8.024  14.854  66.860  1.00  0.00    -0.032 A  
HETATM    7  O   UNL     1      -7.437   8.679  64.921  1.00  0.00    -0.087 OA 
HETATM    8  O   UNL     1      -5.324   9.406  65.265  1.00  0.00    -0.040 OA 
HETATM    9  C   UNL     1      -6.948  15.742  67.010  1.00  0.00    -0.128 A  
HETATM   10  C   UNL     1      -5.630  15.312  66.856  1.00  0.00     1.140 A  
HETATM   11  C   UNL     1      -6.668   9.556  65.272  1.00  0.00    -0.083 C  
HETATM   12  C   UNL     1      -5.368  13.984  66.549  1.00  0.00     3.261 A  
HETATM   13  O   UNL     1      -6.068  11.806  66.043  1.00  0.00     0.039 OA 
HETATM   14  C   UNL     1      -7.071  10.909  65.741  1.00  0.00     0.014 C  
HETATM   15  C   UNL     1      -6.425  13.091  66.377  1.00  0.00     2.545 A  
HETATM   16  C   UNL     1      -8.379  11.174  65.834  1.00  0.00    -0.076 C  
HETATM   17  C   UNL     1      -7.754  13.511  66.530  1.00  0.00     1.158 A  
HETATM   18  O   UNL     1     -10.018  12.712  66.410  1.00  0.00    -0.243 OA 
HETATM   19  C   UNL     1      -8.821  12.505  66.287  1.00  0.00     0.067 C  
ENDBRANCH   5   6
ENDBRANCH   4   5
ENDBRANCH   2   4
BRANCH   2  20
HETATM   20  C   UNL     1      -8.529  13.632  69.138  1.00  0.00     0.450 C  
BRANCH  20  21
HETATM   21  O   UNL     1      -8.873  12.446  68.451  1.00  0.00    -0.182 OA 
BRANCH  21  22
HETATM   22  C   UNL     1      -9.674  11.514  69.071  1.00  0.00     0.036 A  
HETATM   23  C   UNL     1      -8.052   8.122  70.021  1.00  0.00    -0.114 C  
HETATM   24  C   UNL     1      -8.085   9.563  69.760  1.00  0.00    -0.140 C  
HETATM   25  C   UNL     1      -9.415  10.214  69.568  1.00  0.00    -0.235 A  
HETATM   26  C   UNL     1     -10.512   9.425  69.988  1.00  0.00    -0.234 A  
HETATM   27  C   UNL     1      -9.181   7.498  70.349  1.00  0.00    -0.157 C  
HETATM   28  C   UNL     1     -11.815   9.935  70.014  1.00  0.00    -0.131 A  
HETATM   29  O   UNL     1     -10.414   8.112  70.406  1.00  0.00    -0.207 OA 
HETATM   30  C   UNL     1     -12.054  11.237  69.603  1.00  0.00    -0.391 A  
HETATM   31  C   UNL     1      -9.068   6.067  70.737  1.00  0.00    -0.153 C  
HETATM   32  O   UNL     1     -10.263   5.531  71.065  1.00  0.00    -0.202 OA 
HETATM   33  C   UNL     1     -10.999  12.003  69.115  1.00  0.00    -0.231 A  
HETATM   34  O   UNL     1      -7.009  10.138  69.815  1.00  0.00    -0.084 OA 
HETATM   35  O   UNL     1      -8.023   5.439  70.772  1.00  0.00    -0.094 OA 
ENDBRANCH  21  22
ENDBRANCH  20  21
ENDBRANCH   2  20
TORSDOF 6
ENDMDL
MODEL      326
REMARK 921   NORMALIZED FREE ENERGY PREDICTED BY IDOCK:   12.99 KCAL/MOL
REMARK 922        TOTAL FREE ENERGY PREDICTED BY IDOCK:   16.26 KCAL/MOL
REMARK 923 INTER-LIGAND FREE ENERGY PREDICTED BY IDOCK:   11.81 KCAL/MOL
REMARK 924 INTRA-LIGAND FREE ENERGY PREDICTED BY IDOCK:    4.45 KCAL/MOL
REMARK 927      BINDING AFFINITY PREDICTED BY RF-SCORE:    0.00 PKD
ROOT
HETATM    1  O   UNL     1      -6.416   9.427  64.889  1.00  0.00    -0.073 OA 
HETATM    2  C   UNL     1      -5.840   8.813  66.059  1.00  0.00    -0.047 C  
HETATM    3  H   UNL     1      -5.719   9.551  64.255  1.00  0.00     0.000 HD 
ENDROOT
BRANCH   2   4
HETATM    4  C   UNL     1      -5.189   7.492  65.649  1.00  0.00    -0.028 C  
BRANCH   4   5
HETATM    5  O   UNL     1      -5.892   6.406  66.267  1.00  0.00    -0.022 OA 
BRANCH   5   6
HETATM    6  C   UNL     1      -6.444   5.450  65.460  1.00  0.00    -0.040 A  
HETATM    7  O   UNL     1     -12.926   5.842  65.197  1.00  0.00     4.874 OA 
HETATM    8  O   UNL     1     -12.388   3.966  64.054  1.00  0.00     2.608 OA 
HETATM    9  C   UNL     1      -5.676   4.533  64.726  1.00  0.00    -0.014 A  
HETATM   10  C   UNL     1      -6.280   3.541  63.954  1.00  0.00    -0.019 A  
HETATM   11  C   UNL     1     -12.086   5.054  64.799  1.00  0.00     3.364 C  
HETATM   12  C   UNL     1      -7.664   3.450  63.904  1.00  0.00    -0.079 A  
HETATM   13  O   UNL     1      -9.804   4.216  64.474  1.00  0.00    -0.170 OA 
HETATM   14  C   UNL     1     -10.624   5.164  65.050  1.00  0.00     0.714 C  
HETATM   15  C   UNL     1      -8.444   4.365  64.611  1.00  0.00    -0.125 A  
HETATM   16  C   UNL     1     -10.195   6.177  65.812  1.00  0.00     0.600 C  
HETATM   17  C   UNL     1      -7.848   5.366  65.391  1.00  0.00    -0.095 A  
HETATM   18  O   UNL     1      -8.386   7.229  66.812  1.00  0.00    -0.114 OA 
HETATM   19  C   UNL     1      -8.753   6.325  66.078  1.00  0.00    -0.151 C  
ENDBRANCH   5   6
ENDBRANCH   4   5
ENDBRANCH   2   4
BRANCH   2  20
HETATM   20  C   UNL     1      -6.964   8.613  67.082  1.00  0.00    -0.074 C  
BRANCH  20  21
HETATM   21  O   UNL     1      -7.498   9.812  67.605  1.00  0.00    -0.090 OA 
BRANCH  21  22
HETATM   22  C   UNL     1      -8.267   9.768  68.746  1.00  0.00    -0.108 A  
HETATM   23  C   UNL     1      -8.984   6.277  70.275  1.00  0.00    -0.154 C  
HETATM   24  C   UNL     1      -8.216   7.282  69.536  1.00  0.00    -0.131 C  
HETATM   25  C   UNL     1      -8.695   8.696  69.566  1.00  0.00    -0.139 A  
HETATM   26  C   UNL     1      -9.648   8.964  70.577  1.00  0.00    -0.202 A  
HETATM   27  C   UNL     1      -9.897   6.680  71.156  1.00  0.00    -0.181 C  
HETATM   28  C   UNL     1     -10.093  10.264  70.839  1.00  0.00     0.802 A  
HETATM   29  O   UNL     1     -10.219   8.000  71.386  1.00  0.00    -0.190 OA 
HETATM   30  C   UNL     1      -9.612  11.323  70.087  1.00  0.00     1.867 A  
HETATM   31  C   UNL     1     -10.547   5.624  71.977  1.00  0.00    -0.229 C  
HETATM   32  O   UNL     1     -11.444   6.135  72.847  1.00  0.00    -0.216 OA 
HETATM   33  C   UNL     1      -8.730  11.070  69.039  1.00  0.00    -0.072 A  
HETATM   34  O   UNL     1      -7.179   6.888  69.024  1.00  0.00    -0.085 OA 
HETATM   35  O   UNL     1     -10.301   4.432  71.895  1.00  0.00    -0.174 OA 
ENDBRANCH  21  22
ENDBRANCH  20  21
ENDBRANCH   2  20
TORSDOF 6
ENDMDL
MODEL      327
REMARK 921   NORMALIZED FREE ENERGY PREDICTED BY IDOCK:   17.53 KCAL/MOL
REMARK 922        TOTAL FREE ENERGY PREDICTED BY IDOCK:   22.39 KCAL/MOL
REMARK 923 INTER-LIGAND FREE ENERGY PREDICTED BY IDOCK:   16.38 KCAL/MOL
REMARK 924 INTRA-LIGAND FREE ENERGY PREDICTED BY IDOCK:    6.01 KCAL/MOL
REMARK 927      BINDING AFFINITY PREDICTED BY RF-SCORE:    0.00 PKD
ROOT
HETATM    1  O   UNL     1     -11.414  12.983  67.017  1.00  0.00    -0.299 OA 
HETATM    2  C   UNL     1     -12.672  12.905  67.715  1.00  0.00     1.472 C  
HETATM    3  H   UNL     1     -11.067  13.859  67.142  1.00  0.00     0.000 HD 
ENDROOT
BRANCH   2   4
HETATM    4  C   UNL     1     -12.435  13.229  69.190  1.00  0.00     0.234 C  
BRANCH   4   5
HETATM    5  O   UNL     1     -11.047  13.047  69.497  1.00  0.00    -0.130 OA 
BRANCH   5   6
HETATM    6  C   UNL     1     -10.136  13.858  68.878  1.00  0.00    -0.098 A  
HETATM    7  O   UNL     1     -11.481  20.169  69.656  1.00  0.00     2.406 OA 
HETATM    8  O   UNL     1      -9.735  20.097  68.221  1.00  0.00    -0.333 OA 
HETATM    9  C   UNL     1      -9.006  13.367  68.207  1.00  0.00    -0.176 A  
HETATM   10  C   UNL     1      -8.129  14.227  67.546  1.00  0.00    -0.200 A  
HETATM   11  C   UNL     1     -10.685  19.525  68.997  1.00  0.00     0.630 C  
HETATM   12  C   UNL     1      -8.369  15.594  67.545  1.00  0.00    -0.186 A  
HETATM   13  O   UNL     1      -9.614  17.470  68.194  1.00  0.00    -0.273 OA 
HETATM   14  C   UNL     1     -10.618  18.040  68.947  1.00  0.00     0.052 C  
HETATM   15  C   UNL     1      -9.477  16.102  68.223  1.00  0.00    -0.208 A  
HETATM   16  C   UNL     1     -11.532  17.350  69.640  1.00  0.00     1.647 C  
HETATM   17  C   UNL     1     -10.366  15.248  68.891  1.00  0.00    -0.243 A  
HETATM   18  O   UNL     1     -12.365  15.266  70.225  1.00  0.00    -0.334 OA 
HETATM   19  C   UNL     1     -11.496  15.878  69.624  1.00  0.00    -0.346 C  
ENDBRANCH   5   6
ENDBRANCH   4   5
ENDBRANCH   2   4
BRANCH   2  20
HETATM   20  C   UNL     1     -13.231  11.492  67.514  1.00  0.00     6.778 C  
BRANCH  20  21
HETATM   21  O   UNL     1     -12.412  10.645  66.733  1.00  0.00     2.662 OA 
BRANCH  21  22
HETATM   22  C   UNL     1     -11.786  11.152  65.617  1.00  0.00     1.081 A  
HETATM   23  C   UNL     1      -8.030  10.308  65.146  1.00  0.00    -0.147 C  
HETATM   24  C   UNL     1      -9.405  10.083  65.597  1.00  0.00    -0.204 C  
HETATM   25  C   UNL     1     -10.464  11.027  65.126  1.00  0.00    -0.329 A  
HETATM   26  C   UNL     1     -10.074  11.835  64.033  1.00  0.00    -0.327 A  
HETATM   27  C   UNL     1      -7.809  11.149  64.139  1.00  0.00     0.788 C  
HETATM   28  C   UNL     1     -10.986  12.669  63.376  1.00  0.00    -0.305 A  
HETATM   29  O   UNL     1      -8.795  11.883  63.514  1.00  0.00     0.320 OA 
HETATM   30  C   UNL     1     -12.301  12.729  63.809  1.00  0.00    -0.533 A  
HETATM   31  C   UNL     1      -6.414  11.235  63.631  1.00  0.00     1.407 C  
HETATM   32  O   UNL     1      -6.297  12.102  62.602  1.00  0.00     1.667 OA 
HETATM   33  C   UNL     1     -12.684  11.997  64.930  1.00  0.00     0.274 A  
HETATM   34  O   UNL     1      -9.590   9.072  66.256  1.00  0.00    -0.217 OA 
HETATM   35  O   UNL     1      -5.474  10.594  64.073  1.00  0.00    -0.155 OA 
ENDBRANCH  21  22
ENDBRANCH  20  21
ENDBRANCH   2  20
TORSDOF 6
ENDMDL
MODEL      328
REMARK 921   NORMALIZED FREE ENERGY PREDICTED BY IDOCK:   20.38 KCAL/MOL
REMARK 922        TOTAL FREE ENERGY PREDICTED BY IDOCK:   26.24 KCAL/MOL
REMARK 923 INTER-LIGAND FREE ENERGY PREDICTED BY IDOCK:    8.91 KCAL/MOL
REMARK 924 INTRA-LIGAND FREE ENERGY PREDICTED BY IDOCK:   17.33 KCAL/MOL
REMARK 927      BINDING AFFINITY PREDICTED BY RF-SCORE:    0.00 PKD
ROOT
HETATM    1  O   UNL     1     -10.891  14.149  69.121  1.00  0.00    -0.250 OA 
HETATM    2  C   UNL     1      -9.700  14.868  69.499  1.00  0.00    -0.034 C  
HETATM    3  H   UNL     1     -11.602  14.777  69.063  1.00  0.00     0.000 HD 
ENDROOT
BRANCH   2   4
HETATM    4  C   UNL     1      -9.431  15.951  68.455  1.00  0.00    -0.201 C  
BRANCH   4   5
HETATM    5  O   UNL     1      -8.115  15.773  67.916  1.00  0.00    -0.137 OA 
BRANCH   5   6
HETATM    6  C   UNL     1      -7.285  14.869  68.521  1.00  0.00    -0.113 A  
HETATM    7  O   UNL     1      -6.350   9.540  64.920  1.00  0.00    -0.074 OA 
HETATM    8  O   UNL     1      -5.328   9.122  66.893  1.00  0.00    -0.038 OA 
HETATM    9  C   UNL     1      -6.663  15.109  69.756  1.00  0.00    -0.180 A  
HETATM   10  C   UNL     1      -5.865  14.139  70.362  1.00  0.00    -0.158 A  
HETATM   11  C   UNL     1      -6.065   9.884  66.054  1.00  0.00    -0.072 C  
HETATM   12  C   UNL     1      -5.677  12.912  69.743  1.00  0.00    -0.112 A  
HETATM   13  O   UNL     1      -6.001  11.432  67.955  1.00  0.00    -0.046 OA 
HETATM   14  C   UNL     1      -6.460  11.173  66.681  1.00  0.00    -0.134 C  
HETATM   15  C   UNL     1      -6.271  12.662  68.506  1.00  0.00    -0.067 A  
HETATM   16  C   UNL     1      -7.229  12.005  65.969  1.00  0.00     1.068 C  
HETATM   17  C   UNL     1      -7.076  13.629  67.887  1.00  0.00    -0.151 A  
HETATM   18  O   UNL     1      -8.376  14.021  65.903  1.00  0.00     1.168 OA 
HETATM   19  C   UNL     1      -7.636  13.296  66.550  1.00  0.00     1.211 C  
ENDBRANCH   5   6
ENDBRANCH   4   5
ENDBRANCH   2   4
BRANCH   2  20
HETATM   20  C   UNL     1      -8.554  13.855  69.592  1.00  0.00     1.117 C  
BRANCH  20  21
HETATM   21  O   UNL     1      -8.715  12.713  68.776  1.00  0.00    -0.002 OA 
BRANCH  21  22
HETATM   22  C   UNL     1      -9.906  12.022  68.808  1.00  0.00    -0.044 A  
HETATM   23  C   UNL     1     -10.205   9.111  71.353  1.00  0.00    -0.402 C  
HETATM   24  C   UNL     1      -9.723  10.395  70.840  1.00  0.00     1.673 C  
HETATM   25  C   UNL     1     -10.362  10.947  69.608  1.00  0.00    -0.080 A  
HETATM   26  C   UNL     1     -11.587  10.327  69.264  1.00  0.00    -0.119 A  
HETATM   27  C   UNL     1     -11.351   8.618  70.889  1.00  0.00    -0.272 C  
HETATM   28  C   UNL     1     -12.388  10.814  68.226  1.00  0.00     0.943 A  
HETATM   29  O   UNL     1     -12.103   9.214  69.899  1.00  0.00     0.325 OA 
HETATM   30  C   UNL     1     -11.977  11.918  67.496  1.00  0.00    -0.102 A  
HETATM   31  C   UNL     1     -11.864   7.385  71.542  1.00  0.00    -0.297 C  
HETATM   32  O   UNL     1     -13.035   6.975  71.010  1.00  0.00    -0.326 OA 
HETATM   33  C   UNL     1     -10.739  12.494  67.771  1.00  0.00    -0.242 A  
HETATM   34  O   UNL     1      -8.887  10.962  71.528  1.00  0.00     5.322 OA 
HETATM   35  O   UNL     1     -11.308   6.804  72.460  1.00  0.00    -0.262 OA 
ENDBRANCH  21  22
ENDBRANCH  20  21
ENDBRANCH   2  20
TORSDOF 6
ENDMDL
MODEL      329
REMARK 921   NORMALIZED FREE ENERGY PREDICTED BY IDOCK:   25.29 KCAL/MOL
REMARK 922        TOTAL FREE ENERGY PREDICTED BY IDOCK:   32.87 KCAL/MOL
REMARK 923 INTER-LIGAND FREE ENERGY PREDICTED BY IDOCK:   29.01 KCAL/MOL
REMARK 924 INTRA-LIGAND FREE ENERGY PREDICTED BY IDOCK:    3.85 KCAL/MOL
REMARK 927      BINDING AFFINITY PREDICTED BY RF-SCORE:    0.00 PKD
ROOT
HETATM    1  O   UNL     1     -13.120  15.498  66.868  1.00  0.00     1.812 OA 
HETATM    2  C   UNL     1     -12.589  16.087  68.071  1.00  0.00     1.766 C  
HETATM    3  H   UNL     1     -12.662  15.885  66.130  1.00  0.00     0.000 HD 
ENDROOT
BRANCH   2   4
HETATM    4  C   UNL     1     -11.084  15.826  68.121  1.00  0.00    -0.341 C  
BRANCH   4   5
HETATM    5  O   UNL     1     -10.845  14.544  68.716  1.00  0.00    -0.232 OA 
BRANCH   5   6
HETATM    6  C   UNL     1     -10.960  13.433  67.925  1.00  0.00    -0.256 A  
HETATM    7  O   UNL     1      -5.197  11.161  65.959  1.00  0.00    -0.127 OA 
HETATM    8  O   UNL     1      -6.739   9.918  64.868  1.00  0.00    -0.109 OA 
HETATM    9  C   UNL     1     -12.192  12.827  67.632  1.00  0.00    -0.000 A  
HETATM   10  C   UNL     1     -12.269  11.726  66.779  1.00  0.00     0.790 A  
HETATM   11  C   UNL     1      -6.362  10.914  65.702  1.00  0.00     0.001 C  
HETATM   12  C   UNL     1     -11.114  11.213  66.205  1.00  0.00    -0.152 A  
HETATM   13  O   UNL     1      -8.790  11.194  65.910  1.00  0.00    -0.190 OA 
HETATM   14  C   UNL     1      -7.533  11.642  66.259  1.00  0.00     0.201 C  
HETATM   15  C   UNL     1      -9.879  11.790  66.499  1.00  0.00    -0.206 A  
HETATM   16  C   UNL     1      -7.296  12.681  67.068  1.00  0.00     0.046 C  
HETATM   17  C   UNL     1      -9.789  12.898  67.354  1.00  0.00    -0.207 A  
HETATM   18  O   UNL     1      -8.192  14.396  68.348  1.00  0.00    -0.133 OA 
HETATM   19  C   UNL     1      -8.429  13.424  67.648  1.00  0.00    -0.187 C  
ENDBRANCH   5   6
ENDBRANCH   4   5
ENDBRANCH   2   4
BRANCH   2  20
HETATM   20  C   UNL     1     -13.326  15.463  69.261  1.00  0.00     1.756 C  
BRANCH  20  21
HETATM   21  O   UNL     1     -12.482  14.856  70.218  1.00  0.00    -0.330 OA 
BRANCH  21  22
HETATM   22  C   UNL     1     -12.238  15.501  71.410  1.00  0.00    -0.393 A  
HETATM   23  C   UNL     1     -10.230  18.816  71.260  1.00  0.00     3.108 C  
HETATM   24  C   UNL     1     -11.140  17.780  70.767  1.00  0.00     2.291 C  
HETATM   25  C   UNL     1     -11.577  16.714  71.719  1.00  0.00    -0.037 A  
HETATM   26  C   UNL     1     -11.325  17.014  73.079  1.00  0.00     1.153 A  
HETATM   27  C   UNL     1     -10.043  18.941  72.572  1.00  0.00     4.630 C  
HETATM   28  C   UNL     1     -11.798  16.194  74.110  1.00  0.00    -0.068 A  
HETATM   29  O   UNL     1     -10.611  18.112  73.516  1.00  0.00     2.420 OA 
HETATM   30  C   UNL     1     -12.516  15.049  73.806  1.00  0.00    -0.665 A  
HETATM   31  C   UNL     1      -9.221  20.094  73.025  1.00  0.00     3.807 C  
HETATM   32  O   UNL     1      -9.103  20.141  74.369  1.00  0.00     5.645 OA 
HETATM   33  C   UNL     1     -12.709  14.698  72.472  1.00  0.00    -0.448 A  
HETATM   34  O   UNL     1     -11.546  17.928  69.625  1.00  0.00     2.304 OA 
HETATM   35  O   UNL     1      -8.714  20.918  72.282  1.00  0.00     1.364 OA 
ENDBRANCH  21  22
ENDBRANCH  20  21
ENDBRANCH   2  20
TORSDOF 6
ENDMDL
MODEL      330
REMARK 921   NORMALIZED FREE ENERGY PREDICTED BY IDOCK:   38.45 KCAL/MOL
REMARK 922        TOTAL FREE ENERGY PREDICTED BY IDOCK:   50.64 KCAL/MOL
REMARK 923 INTER-LIGAND FREE ENERGY PREDICTED BY IDOCK:   45.84 KCAL/MOL
REMARK 924 INTRA-LIGAND FREE ENERGY PREDICTED BY IDOCK:    4.80 KCAL/MOL
REMARK 927      BINDING AFFINITY PREDICTED BY RF-SCORE:    0.00 PKD
ROOT
HETATM    1  O   UNL     1     -13.178  15.588  66.917  1.00  0.00     2.218 OA 
HETATM    2  C   UNL     1     -12.469  16.185  68.021  1.00  0.00     1.556 C  
HETATM    3  H   UNL     1     -12.778  15.901  66.114  1.00  0.00     0.000 HD 
ENDROOT
BRANCH   2   4
HETATM    4  C   UNL     1     -10.993  15.800  67.920  1.00  0.00    -0.324 C  
BRANCH   4   5
HETATM    5  O   UNL     1     -10.782  14.551  68.591  1.00  0.00    -0.238 OA 
BRANCH   5   6
HETATM    6  C   UNL     1     -11.254  13.412  68.000  1.00  0.00    -0.268 A  
HETATM    7  O   UNL     1      -9.177   8.015  70.966  1.00  0.00    -0.145 OA 
HETATM    8  O   UNL     1     -10.282   7.304  69.125  1.00  0.00    -0.185 OA 
HETATM    9  C   UNL     1     -12.140  13.426  66.911  1.00  0.00    -0.406 A  
HETATM   10  C   UNL     1     -12.558  12.241  66.306  1.00  0.00     1.073 A  
HETATM   11  C   UNL     1      -9.788   8.263  69.942  1.00  0.00    -0.186 C  
HETATM   12  C   UNL     1     -12.095  11.021  66.779  1.00  0.00     1.673 A  
HETATM   13  O   UNL     1     -10.850   9.733  68.290  1.00  0.00    -0.239 OA 
HETATM   14  C   UNL     1     -10.094   9.629  69.439  1.00  0.00    -0.203 C  
HETATM   15  C   UNL     1     -11.229  10.986  67.872  1.00  0.00    -0.310 A  
HETATM   16  C   UNL     1      -9.625  10.671  70.134  1.00  0.00     0.672 C  
HETATM   17  C   UNL     1     -10.802  12.171  68.489  1.00  0.00    -0.267 A  
HETATM   18  O   UNL     1      -9.437  12.977  70.297  1.00  0.00     3.392 OA 
HETATM   19  C   UNL     1      -9.913  12.041  69.674  1.00  0.00     1.154 C  
ENDBRANCH   5   6
ENDBRANCH   4   5
ENDBRANCH   2   4
BRANCH   2  20
HETATM   20  C   UNL     1     -13.113  15.679  69.317  1.00  0.00     1.264 C  
BRANCH  20  21
HETATM   21  O   UNL     1     -12.224  15.009  70.188  1.00  0.00    -0.310 OA 
BRANCH  21  22
HETATM   22  C   UNL     1     -11.805  15.636  71.339  1.00  0.00    -0.421 A  
HETATM   23  C   UNL     1      -9.737  18.893  70.940  1.00  0.00     2.917 C  
HETATM   24  C   UNL     1     -10.735  17.888  70.567  1.00  0.00     1.804 C  
HETATM   25  C   UNL     1     -11.072  16.827  71.563  1.00  0.00     0.670 A  
HETATM   26  C   UNL     1     -10.633  17.107  72.879  1.00  0.00     4.696 A  
HETATM   27  C   UNL     1      -9.373  19.001  72.216  1.00  0.00     6.802 C  
HETATM   28  C   UNL     1     -10.988  16.292  73.960  1.00  0.00     3.436 A  
HETATM   29  O   UNL     1      -9.834  18.180  73.223  1.00  0.00     6.304 OA 
HETATM   30  C   UNL     1     -11.773  15.170  73.749  1.00  0.00    -0.148 A  
HETATM   31  C   UNL     1      -8.465  20.126  72.560  1.00  0.00     2.919 C  
HETATM   32  O   UNL     1      -8.167  20.157  73.877  1.00  0.00     4.726 OA 
HETATM   33  C   UNL     1     -12.153  14.837  72.451  1.00  0.00    -0.340 A  
HETATM   34  O   UNL     1     -11.285  18.058  69.490  1.00  0.00     1.337 OA 
HETATM   35  O   UNL     1      -8.037  20.942  71.760  1.00  0.00     1.215 OA 
ENDBRANCH  21  22
ENDBRANCH  20  21
ENDBRANCH   2  20
TORSDOF 6
ENDMDL
MODEL      331
REMARK 921   NORMALIZED FREE ENERGY PREDICTED BY IDOCK:   38.91 KCAL/MOL
REMARK 922        TOTAL FREE ENERGY PREDICTED BY IDOCK:   51.26 KCAL/MOL
REMARK 923 INTER-LIGAND FREE ENERGY PREDICTED BY IDOCK:    6.63 KCAL/MOL
REMARK 924 INTRA-LIGAND FREE ENERGY PREDICTED BY IDOCK:   44.63 KCAL/MOL
REMARK 927      BINDING AFFINITY PREDICTED BY RF-SCORE:    0.00 PKD
ROOT
HETATM    1  O   UNL     1     -10.979   4.426  66.586  1.00  0.00    -0.053 OA 
HETATM    2  C   UNL     1     -11.100   5.705  67.240  1.00  0.00     0.246 C  
HETATM    3  H   UNL     1     -11.854   4.075  66.471  1.00  0.00     0.000 HD 
ENDROOT
BRANCH   2   4
HETATM    4  C   UNL     1     -11.979   6.612  66.380  1.00  0.00     3.435 C  
BRANCH   4   5
HETATM    5  O   UNL     1     -12.040   6.088  65.047  1.00  0.00     4.463 OA 
BRANCH   5   6
HETATM    6  C   UNL     1     -11.175   5.085  64.707  1.00  0.00     1.182 A  
HETATM    7  O   UNL     1      -5.339   5.773  67.483  1.00  0.00    -0.004 OA 
HETATM    8  O   UNL     1      -5.132   4.018  66.073  1.00  0.00    -0.008 OA 
HETATM    9  C   UNL     1     -11.542   4.000  63.896  1.00  0.00     1.169 A  
HETATM   10  C   UNL     1     -10.614   3.025  63.531  1.00  0.00    -0.237 A  
HETATM   11  C   UNL     1      -5.818   5.037  66.639  1.00  0.00    -0.022 C  
HETATM   12  C   UNL     1      -9.301   3.120  63.971  1.00  0.00    -0.128 A  
HETATM   13  O   UNL     1      -7.611   4.173  65.205  1.00  0.00    -0.079 OA 
HETATM   14  C   UNL     1      -7.208   5.126  66.117  1.00  0.00    -0.073 C  
HETATM   15  C   UNL     1      -8.922   4.181  64.793  1.00  0.00    -0.140 A  
HETATM   16  C   UNL     1      -7.982   6.120  66.567  1.00  0.00    -0.105 C  
HETATM   17  C   UNL     1      -9.845   5.167  65.167  1.00  0.00     0.217 A  
HETATM   18  O   UNL     1     -10.044   7.179  66.468  1.00  0.00    -0.180 OA 
HETATM   19  C   UNL     1      -9.367   6.239  66.080  1.00  0.00    -0.036 C  
ENDBRANCH   5   6
ENDBRANCH   4   5
ENDBRANCH   2   4
BRANCH   2  20
HETATM   20  C   UNL     1      -9.688   6.271  67.425  1.00  0.00    -0.120 C  
BRANCH  20  21
HETATM   21  O   UNL     1      -9.642   7.530  68.064  1.00  0.00    -0.141 OA 
BRANCH  21  22
HETATM   22  C   UNL     1      -9.131   8.613  67.386  1.00  0.00    -0.133 A  
HETATM   23  C   UNL     1     -10.672  12.087  68.162  1.00  0.00    -0.246 C  
HETATM   24  C   UNL     1     -10.263  10.710  68.449  1.00  0.00    -0.173 C  
HETATM   25  C   UNL     1      -9.428   9.997  67.437  1.00  0.00    -0.176 A  
HETATM   26  C   UNL     1      -8.848  10.844  66.464  1.00  0.00    -0.163 A  
HETATM   27  C   UNL     1     -10.076  12.745  67.170  1.00  0.00    -0.234 C  
HETATM   28  C   UNL     1      -7.924  10.363  65.529  1.00  0.00    -0.153 A  
HETATM   29  O   UNL     1      -9.124  12.192  66.340  1.00  0.00    -0.212 OA 
HETATM   30  C   UNL     1      -7.573   9.023  65.534  1.00  0.00    -0.090 A  
HETATM   31  C   UNL     1     -10.428  14.180  67.010  1.00  0.00    -0.271 C  
HETATM   32  O   UNL     1      -9.762  14.759  65.988  1.00  0.00    -0.295 OA 
HETATM   33  C   UNL     1      -8.190   8.159  66.436  1.00  0.00    -0.108 A  
HETATM   34  O   UNL     1     -10.567  10.285  69.553  1.00  0.00    -0.213 OA 
HETATM   35  O   UNL     1     -11.217  14.783  67.719  1.00  0.00    -0.288 OA 
ENDBRANCH  21  22
ENDBRANCH  20  21
ENDBRANCH   2  20
TORSDOF 6
ENDMDL
MODEL      332
REMARK 921   NORMALIZED FREE ENERGY PREDICTED BY IDOCK:   41.51 KCAL/MOL
REMARK 922        TOTAL FREE ENERGY PREDICTED BY IDOCK:   54.78 KCAL/MOL
REMARK 923 INTER-LIGAND FREE ENERGY PREDICTED BY IDOCK:    8.84 KCAL/MOL
REMARK 924 INTRA-LIGAND FREE ENERGY PREDICTED BY IDOCK:   45.94 KCAL/MOL
REMARK 927      BINDING AFFINITY PREDICTED BY RF-SCORE:    0.00 PKD
ROOT
HETATM    1  O   UNL     1      -6.416   9.428  64.890  1.00  0.00    -0.073 OA 
HETATM    2  C   UNL     1      -5.850   8.820  66.067  1.00  0.00    -0.047 C  
HETATM    3  H   UNL     1      -5.717   9.536  64.255  1.00  0.00     0.000 HD 
ENDROOT
BRANCH   2   4
HETATM    4  C   UNL     1      -5.216   7.487  65.672  1.00  0.00    -0.028 C  
BRANCH   4   5
HETATM    5  O   UNL     1      -5.935   6.416  66.298  1.00  0.00    -0.026 OA 
BRANCH   5   6
HETATM    6  C   UNL     1      -7.194   6.132  65.845  1.00  0.00    -0.075 A  
HETATM    7  O   UNL     1     -11.825   8.000  70.005  1.00  0.00     0.151 OA 
HETATM    8  O   UNL     1     -12.904   6.871  68.369  1.00  0.00     4.773 OA 
HETATM    9  C   UNL     1      -7.444   5.556  64.589  1.00  0.00    -0.067 A  
HETATM   10  C   UNL     1      -8.740   5.236  64.187  1.00  0.00    -0.017 A  
HETATM   11  C   UNL     1     -11.793   7.352  68.974  1.00  0.00     1.184 C  
HETATM   12  C   UNL     1      -9.809   5.485  65.036  1.00  0.00     0.644 A  
HETATM   13  O   UNL     1     -10.706   6.312  67.037  1.00  0.00    -0.281 OA 
HETATM   14  C   UNL     1     -10.559   7.002  68.222  1.00  0.00    -0.196 C  
HETATM   15  C   UNL     1      -9.583   6.074  66.280  1.00  0.00    -0.102 A  
HETATM   16  C   UNL     1      -9.384   7.384  68.736  1.00  0.00    -0.144 C  
HETATM   17  C   UNL     1      -8.285   6.400  66.696  1.00  0.00    -0.111 A  
HETATM   18  O   UNL     1      -7.074   7.381  68.526  1.00  0.00    -0.079 OA 
HETATM   19  C   UNL     1      -8.138   7.064  68.018  1.00  0.00    -0.119 C  
ENDBRANCH   5   6
ENDBRANCH   4   5
ENDBRANCH   2   4
BRANCH   2  20
HETATM   20  C   UNL     1      -6.978   8.645  67.091  1.00  0.00    -0.074 C  
BRANCH  20  21
HETATM   21  O   UNL     1      -7.455   9.854  67.645  1.00  0.00    -0.089 OA 
BRANCH  21  22
HETATM   22  C   UNL     1      -8.090   9.834  68.866  1.00  0.00    -0.101 A  
HETATM   23  C   UNL     1      -8.613   6.374  70.540  1.00  0.00    -0.143 C  
HETATM   24  C   UNL     1      -7.939   7.364  69.698  1.00  0.00    -0.126 C  
HETATM   25  C   UNL     1      -8.417   8.779  69.752  1.00  0.00    -0.129 A  
HETATM   26  C   UNL     1      -9.251   9.066  70.858  1.00  0.00    -0.259 A  
HETATM   27  C   UNL     1      -9.422   6.794  71.510  1.00  0.00    -0.156 C  
HETATM   28  C   UNL     1      -9.669  10.371  71.142  1.00  0.00     2.367 A  
HETATM   29  O   UNL     1      -9.722   8.118  71.747  1.00  0.00    -0.164 OA 
HETATM   30  C   UNL     1      -9.281  11.414  70.317  1.00  0.00     2.948 A  
HETATM   31  C   UNL     1      -9.971   5.755  72.422  1.00  0.00    -0.169 C  
HETATM   32  O   UNL     1     -10.766   6.282  73.377  1.00  0.00    -0.255 OA 
HETATM   33  C   UNL     1      -8.523  11.140  69.182  1.00  0.00     0.029 A  
HETATM   34  O   UNL     1      -6.965   6.962  69.080  1.00  0.00    -0.076 OA 
HETATM   35  O   UNL     1      -9.731   4.562  72.337  1.00  0.00    -0.147 OA 
ENDBRANCH  21  22
ENDBRANCH  20  21
ENDBRANCH   2  20
TORSDOF 6
ENDMDL
