MODEL        1
REMARK 921   NORMALIZED FREE ENERGY PREDICTED BY IDOCK:   -5.62 KCAL/MOL
REMARK 922        TOTAL FREE ENERGY PREDICTED BY IDOCK:   -7.16 KCAL/MOL
REMARK 923 INTER-LIGAND FREE ENERGY PREDICTED BY IDOCK:   -6.60 KCAL/MOL
REMARK 924 INTRA-LIGAND FREE ENERGY PREDICTED BY IDOCK:   -0.55 KCAL/MOL
REMARK 927      BINDING AFFINITY PREDICTED BY RF-SCORE:    0.00 PKD
ROOT
HETATM    1  C   UNL     1     -11.639  14.997  68.311  1.00  0.00    -0.355 C  
HETATM    2  C   UNL     1     -10.329  15.414  67.655  1.00  0.00    -0.262 C  
ENDROOT
BRANCH   2   3
HETATM    3  N   UNL     1     -10.241  16.319  66.492  1.00  0.00    -0.290 N  
HETATM    4  O   UNL     1     -11.064  16.855  64.357  1.00  0.00    -1.128 OA 
HETATM    5  C   UNL     1     -10.720  16.023  65.202  1.00  0.00    -0.409 C  
BRANCH   3   6
HETATM    6  C   UNL     1      -9.802  17.704  66.775  1.00  0.00    -0.304 A  
HETATM    7  C   UNL     1     -10.773  18.618  67.245  1.00  0.00    -0.449 A  
HETATM    8  C   UNL     1      -7.265  17.453  66.156  1.00  0.00    -0.327 C  
HETATM    9  C   UNL     1      -8.491  18.230  66.561  1.00  0.00    -0.287 A  
HETATM   10  C   UNL     1     -10.493  19.969  67.498  1.00  0.00    -0.487 A  
HETATM   11  C   UNL     1      -9.227  20.466  67.272  1.00  0.00    -0.525 A  
HETATM   12  C   UNL     1      -8.240  19.606  66.808  1.00  0.00    -0.331 A  
ENDBRANCH   3   6
BRANCH   5  13
HETATM   13  C   UNL     1     -10.787  14.598  64.786  1.00  0.00    -0.402 C  
HETATM   14  C   UNL     1     -11.945  14.069  64.355  1.00  0.00    -0.480 C  
HETATM   15  C   UNL     1     -12.110  12.647  63.924  1.00  0.00    -0.567 C  
ENDBRANCH   5  13
ENDBRANCH   2   3
TORSDOF 3
ENDMDL
MODEL        2
REMARK 921   NORMALIZED FREE ENERGY PREDICTED BY IDOCK:   -5.10 KCAL/MOL
REMARK 922        TOTAL FREE ENERGY PREDICTED BY IDOCK:   -6.55 KCAL/MOL
REMARK 923 INTER-LIGAND FREE ENERGY PREDICTED BY IDOCK:   -5.95 KCAL/MOL
REMARK 924 INTRA-LIGAND FREE ENERGY PREDICTED BY IDOCK:   -0.60 KCAL/MOL
REMARK 927      BINDING AFFINITY PREDICTED BY RF-SCORE:    0.00 PKD
ROOT
HETATM    1  C   UNL     1     -11.779  15.423  68.487  1.00  0.00    -0.355 C  
HETATM    2  C   UNL     1     -10.822  14.968  67.394  1.00  0.00    -0.305 C  
ENDROOT
BRANCH   2   3
HETATM    3  N   UNL     1     -10.464  15.786  66.217  1.00  0.00    -0.300 N  
HETATM    4  O   UNL     1     -11.199  16.758  64.208  1.00  0.00    -1.163 OA 
HETATM    5  C   UNL     1     -11.186  15.819  65.009  1.00  0.00    -0.308 C  
BRANCH   3   6
HETATM    6  C   UNL     1      -9.390  16.784  66.420  1.00  0.00    -0.278 A  
HETATM    7  C   UNL     1      -8.055  16.360  66.235  1.00  0.00    -0.311 A  
HETATM    8  C   UNL     1     -10.882  18.856  67.028  1.00  0.00    -0.392 C  
HETATM    9  C   UNL     1      -9.570  18.135  66.848  1.00  0.00    -0.299 A  
HETATM   10  C   UNL     1      -6.950  17.196  66.448  1.00  0.00    -0.296 A  
HETATM   11  C   UNL     1      -7.138  18.493  66.876  1.00  0.00    -0.220 A  
HETATM   12  C   UNL     1      -8.433  18.955  67.074  1.00  0.00    -0.292 A  
ENDBRANCH   3   6
BRANCH   5  13
HETATM   13  C   UNL     1     -11.971  14.617  64.626  1.00  0.00    -0.472 C  
HETATM   14  C   UNL     1     -11.363  13.558  64.064  1.00  0.00    -0.306 C  
HETATM   15  C   UNL     1     -12.071  12.311  63.639  1.00  0.00    -0.648 C  
ENDBRANCH   5  13
ENDBRANCH   2   3
TORSDOF 3
ENDMDL
MODEL        3
REMARK 921   NORMALIZED FREE ENERGY PREDICTED BY IDOCK:   -4.97 KCAL/MOL
REMARK 922        TOTAL FREE ENERGY PREDICTED BY IDOCK:   -6.39 KCAL/MOL
REMARK 923 INTER-LIGAND FREE ENERGY PREDICTED BY IDOCK:   -5.75 KCAL/MOL
REMARK 924 INTRA-LIGAND FREE ENERGY PREDICTED BY IDOCK:   -0.64 KCAL/MOL
REMARK 927      BINDING AFFINITY PREDICTED BY RF-SCORE:    0.00 PKD
ROOT
HETATM    1  C   UNL     1     -11.201  15.916  68.792  1.00  0.00    -0.359 C  
HETATM    2  C   UNL     1     -10.084  15.753  67.769  1.00  0.00    -0.238 C  
ENDROOT
BRANCH   2   3
HETATM    3  N   UNL     1     -10.025  16.485  66.488  1.00  0.00    -0.271 N  
HETATM    4  O   UNL     1     -11.151  17.072  64.511  1.00  0.00    -1.098 OA 
HETATM    5  C   UNL     1     -10.865  16.248  65.385  1.00  0.00    -0.273 C  
BRANCH   3   6
HETATM    6  C   UNL     1      -9.154  17.682  66.461  1.00  0.00    -0.265 A  
HETATM    7  C   UNL     1      -7.814  17.511  66.045  1.00  0.00    -0.213 A  
HETATM    8  C   UNL     1     -10.900  19.464  67.276  1.00  0.00    -0.561 C  
HETATM    9  C   UNL     1      -9.523  18.998  66.877  1.00  0.00    -0.355 A  
HETATM   10  C   UNL     1      -6.879  18.556  66.027  1.00  0.00    -0.303 A  
HETATM   11  C   UNL     1      -7.245  19.817  66.447  1.00  0.00    -0.267 A  
HETATM   12  C   UNL     1      -8.551  20.034  66.867  1.00  0.00    -0.402 A  
ENDBRANCH   3   6
BRANCH   5  13
HETATM   13  C   UNL     1     -11.434  14.886  65.214  1.00  0.00    -0.336 C  
HETATM   14  C   UNL     1     -10.719  13.921  64.611  1.00  0.00    -0.422 C  
HETATM   15  C   UNL     1     -11.211  12.527  64.387  1.00  0.00    -0.388 C  
ENDBRANCH   5  13
ENDBRANCH   2   3
TORSDOF 3
ENDMDL
MODEL        4
REMARK 921   NORMALIZED FREE ENERGY PREDICTED BY IDOCK:   -4.94 KCAL/MOL
REMARK 922        TOTAL FREE ENERGY PREDICTED BY IDOCK:   -6.36 KCAL/MOL
REMARK 923 INTER-LIGAND FREE ENERGY PREDICTED BY IDOCK:   -5.78 KCAL/MOL
REMARK 924 INTRA-LIGAND FREE ENERGY PREDICTED BY IDOCK:   -0.57 KCAL/MOL
REMARK 927      BINDING AFFINITY PREDICTED BY RF-SCORE:    0.00 PKD
ROOT
HETATM    1  C   UNL     1      -8.074  14.229  67.456  1.00  0.00    -0.200 C  
HETATM    2  C   UNL     1      -8.530  15.547  66.845  1.00  0.00    -0.254 C  
ENDROOT
BRANCH   2   3
HETATM    3  N   UNL     1      -9.805  15.724  66.122  1.00  0.00    -0.290 N  
HETATM    4  O   UNL     1     -11.070  17.080  64.678  1.00  0.00    -0.997 OA 
HETATM    5  C   UNL     1     -10.286  16.949  65.624  1.00  0.00    -0.237 C  
BRANCH   3   6
HETATM    6  C   UNL     1     -10.507  14.482  65.725  1.00  0.00    -0.323 A  
HETATM    7  C   UNL     1     -10.168  13.904  64.481  1.00  0.00    -0.143 A  
HETATM    8  C   UNL     1     -12.032  14.193  67.841  1.00  0.00    -0.378 C  
HETATM    9  C   UNL     1     -11.549  13.836  66.459  1.00  0.00    -0.386 A  
HETATM   10  C   UNL     1     -10.799  12.760  63.971  1.00  0.00    -0.458 A  
HETATM   11  C   UNL     1     -11.814  12.156  64.683  1.00  0.00    -0.400 A  
HETATM   12  C   UNL     1     -12.184  12.690  65.911  1.00  0.00    -0.375 A  
ENDBRANCH   3   6
BRANCH   5  13
HETATM   13  C   UNL     1      -9.862  18.200  66.303  1.00  0.00    -0.311 C  
HETATM   14  C   UNL     1     -10.525  18.645  67.385  1.00  0.00    -0.467 C  
HETATM   15  C   UNL     1     -10.177  19.895  68.128  1.00  0.00    -0.564 C  
ENDBRANCH   5  13
ENDBRANCH   2   3
TORSDOF 3
ENDMDL
MODEL        5
REMARK 921   NORMALIZED FREE ENERGY PREDICTED BY IDOCK:   -4.91 KCAL/MOL
REMARK 922        TOTAL FREE ENERGY PREDICTED BY IDOCK:   -6.33 KCAL/MOL
REMARK 923 INTER-LIGAND FREE ENERGY PREDICTED BY IDOCK:   -5.73 KCAL/MOL
REMARK 924 INTRA-LIGAND FREE ENERGY PREDICTED BY IDOCK:   -0.60 KCAL/MOL
REMARK 927      BINDING AFFINITY PREDICTED BY RF-SCORE:    0.00 PKD
ROOT
HETATM    1  C   UNL     1     -11.250  14.438  69.153  1.00  0.00    -0.300 C  
HETATM    2  C   UNL     1     -11.887  14.835  67.828  1.00  0.00    -0.294 C  
ENDROOT
BRANCH   2   3
HETATM    3  N   UNL     1     -11.127  15.058  66.581  1.00  0.00    -0.330 N  
HETATM    4  O   UNL     1      -9.300  16.128  65.562  1.00  0.00    -0.405 OA 
HETATM    5  C   UNL     1     -10.247  16.132  66.355  1.00  0.00    -0.306 C  
BRANCH   3   6
HETATM    6  C   UNL     1     -11.152  13.953  65.596  1.00  0.00    -0.298 A  
HETATM    7  C   UNL     1     -12.090  14.033  64.542  1.00  0.00    -0.484 A  
HETATM    8  C   UNL     1      -9.227  12.480  66.601  1.00  0.00    -0.223 C  
HETATM    9  C   UNL     1     -10.353  12.770  65.642  1.00  0.00    -0.296 A  
HETATM   10  C   UNL     1     -12.247  13.026  63.579  1.00  0.00    -0.580 A  
HETATM   11  C   UNL     1     -11.479  11.883  63.644  1.00  0.00    -0.551 A  
HETATM   12  C   UNL     1     -10.545  11.757  64.665  1.00  0.00    -0.359 A  
ENDBRANCH   3   6
BRANCH   5  13
HETATM   13  C   UNL     1     -10.482  17.402  67.090  1.00  0.00    -0.305 C  
HETATM   14  C   UNL     1     -10.114  18.577  66.552  1.00  0.00    -0.425 C  
HETATM   15  C   UNL     1     -10.303  19.902  67.219  1.00  0.00    -0.574 C  
ENDBRANCH   5  13
ENDBRANCH   2   3
TORSDOF 3
ENDMDL
MODEL        6
REMARK 921   NORMALIZED FREE ENERGY PREDICTED BY IDOCK:   -4.83 KCAL/MOL
REMARK 922        TOTAL FREE ENERGY PREDICTED BY IDOCK:   -6.23 KCAL/MOL
REMARK 923 INTER-LIGAND FREE ENERGY PREDICTED BY IDOCK:   -5.63 KCAL/MOL
REMARK 924 INTRA-LIGAND FREE ENERGY PREDICTED BY IDOCK:   -0.60 KCAL/MOL
REMARK 927      BINDING AFFINITY PREDICTED BY RF-SCORE:    0.00 PKD
ROOT
HETATM    1  C   UNL     1     -12.047  15.470  69.802  1.00  0.00    -0.372 C  
HETATM    2  C   UNL     1     -12.394  13.988  69.752  1.00  0.00    -0.291 C  
ENDROOT
BRANCH   2   3
HETATM    3  N   UNL     1     -11.823  13.040  68.774  1.00  0.00    -0.318 N  
HETATM    4  O   UNL     1     -11.787  10.830  67.974  1.00  0.00    -0.546 OA 
HETATM    5  C   UNL     1     -11.837  11.639  68.907  1.00  0.00    -0.329 C  
BRANCH   3   6
HETATM    6  C   UNL     1     -11.398  13.617  67.479  1.00  0.00    -0.308 A  
HETATM    7  C   UNL     1     -12.385  13.799  66.484  1.00  0.00    -0.432 A  
HETATM    8  C   UNL     1      -8.848  13.943  68.006  1.00  0.00    -0.184 C  
HETATM    9  C   UNL     1     -10.060  13.956  67.110  1.00  0.00    -0.252 A  
HETATM   10  C   UNL     1     -12.098  14.286  65.201  1.00  0.00    -0.410 A  
HETATM   11  C   UNL     1     -10.800  14.595  64.854  1.00  0.00    -0.436 A  
HETATM   12  C   UNL     1      -9.794  14.430  65.798  1.00  0.00    -0.330 A  
ENDBRANCH   3   6
BRANCH   5  13
HETATM   13  C   UNL     1     -11.873  11.062  70.275  1.00  0.00    -0.456 C  
HETATM   14  C   UNL     1     -12.965  10.411  70.710  1.00  0.00    -0.422 C  
HETATM   15  C   UNL     1     -13.096   9.805  72.071  1.00  0.00    -0.546 C  
ENDBRANCH   5  13
ENDBRANCH   2   3
TORSDOF 3
ENDMDL
MODEL        7
REMARK 921   NORMALIZED FREE ENERGY PREDICTED BY IDOCK:   -4.79 KCAL/MOL
REMARK 922        TOTAL FREE ENERGY PREDICTED BY IDOCK:   -6.19 KCAL/MOL
REMARK 923 INTER-LIGAND FREE ENERGY PREDICTED BY IDOCK:   -5.60 KCAL/MOL
REMARK 924 INTRA-LIGAND FREE ENERGY PREDICTED BY IDOCK:   -0.59 KCAL/MOL
REMARK 927      BINDING AFFINITY PREDICTED BY RF-SCORE:    0.00 PKD
ROOT
HETATM    1  C   UNL     1     -11.968  11.247  68.916  1.00  0.00    -0.378 C  
HETATM    2  C   UNL     1     -11.507  12.601  69.438  1.00  0.00    -0.266 C  
ENDROOT
BRANCH   2   3
HETATM    3  N   UNL     1     -11.644  13.865  68.687  1.00  0.00    -0.304 N  
HETATM    4  O   UNL     1     -11.434  16.205  68.729  1.00  0.00    -0.362 OA 
HETATM    5  C   UNL     1     -11.753  15.141  69.269  1.00  0.00    -0.329 C  
BRANCH   3   6
HETATM    6  C   UNL     1     -11.442  13.777  67.223  1.00  0.00    -0.341 A  
HETATM    7  C   UNL     1     -12.581  13.895  66.394  1.00  0.00    -0.314 A  
HETATM    8  C   UNL     1      -8.839  13.446  67.198  1.00  0.00    -0.225 C  
HETATM    9  C   UNL     1     -10.202  13.522  66.560  1.00  0.00    -0.283 A  
HETATM   10  C   UNL     1     -12.526  13.777  64.998  1.00  0.00    -0.449 A  
HETATM   11  C   UNL     1     -11.326  13.515  64.373  1.00  0.00    -0.407 A  
HETATM   12  C   UNL     1     -10.179  13.388  65.147  1.00  0.00    -0.316 A  
ENDBRANCH   3   6
BRANCH   5  13
HETATM   13  C   UNL     1     -12.338  15.245  70.631  1.00  0.00    -0.427 C  
HETATM   14  C   UNL     1     -11.671  15.880  71.611  1.00  0.00    -0.563 C  
HETATM   15  C   UNL     1     -12.175  16.028  73.011  1.00  0.00    -0.637 C  
ENDBRANCH   5  13
ENDBRANCH   2   3
TORSDOF 3
ENDMDL
MODEL        8
REMARK 921   NORMALIZED FREE ENERGY PREDICTED BY IDOCK:   -4.75 KCAL/MOL
REMARK 922        TOTAL FREE ENERGY PREDICTED BY IDOCK:   -6.13 KCAL/MOL
REMARK 923 INTER-LIGAND FREE ENERGY PREDICTED BY IDOCK:   -5.68 KCAL/MOL
REMARK 924 INTRA-LIGAND FREE ENERGY PREDICTED BY IDOCK:   -0.45 KCAL/MOL
REMARK 927      BINDING AFFINITY PREDICTED BY RF-SCORE:    0.00 PKD
ROOT
HETATM    1  C   UNL     1     -10.311  15.685  67.233  1.00  0.00    -0.277 C  
HETATM    2  C   UNL     1     -11.549  14.805  67.343  1.00  0.00    -0.360 C  
ENDROOT
BRANCH   2   3
HETATM    3  N   UNL     1     -11.519  13.329  67.300  1.00  0.00    -0.320 N  
HETATM    4  O   UNL     1     -12.264  11.323  68.270  1.00  0.00    -0.611 OA 
HETATM    5  C   UNL     1     -11.858  12.484  68.373  1.00  0.00    -0.304 C  
BRANCH   3   6
HETATM    6  C   UNL     1     -11.315  12.720  65.966  1.00  0.00    -0.321 A  
HETATM    7  C   UNL     1     -12.335  12.891  65.002  1.00  0.00    -0.541 A  
HETATM    8  C   UNL     1      -8.951  11.656  66.371  1.00  0.00    -0.198 C  
HETATM    9  C   UNL     1     -10.202  11.917  65.572  1.00  0.00    -0.290 A  
HETATM   10  C   UNL     1     -12.283  12.319  63.723  1.00  0.00    -0.642 A  
HETATM   11  C   UNL     1     -11.210  11.533  63.362  1.00  0.00    -0.342 A  
HETATM   12  C   UNL     1     -10.184  11.334  64.277  1.00  0.00    -0.383 A  
ENDBRANCH   3   6
BRANCH   5  13
HETATM   13  C   UNL     1     -11.680  12.997  69.756  1.00  0.00    -0.346 C  
HETATM   14  C   UNL     1     -12.645  13.730  70.339  1.00  0.00    -0.325 C  
HETATM   15  C   UNL     1     -12.552  14.293  71.721  1.00  0.00    -0.418 C  
ENDBRANCH   5  13
ENDBRANCH   2   3
TORSDOF 3
ENDMDL
MODEL        9
REMARK 921   NORMALIZED FREE ENERGY PREDICTED BY IDOCK:   -4.72 KCAL/MOL
REMARK 922        TOTAL FREE ENERGY PREDICTED BY IDOCK:   -6.11 KCAL/MOL
REMARK 923 INTER-LIGAND FREE ENERGY PREDICTED BY IDOCK:   -5.50 KCAL/MOL
REMARK 924 INTRA-LIGAND FREE ENERGY PREDICTED BY IDOCK:   -0.61 KCAL/MOL
REMARK 927      BINDING AFFINITY PREDICTED BY RF-SCORE:    0.00 PKD
ROOT
HETATM    1  C   UNL     1      -8.458  13.305  68.162  1.00  0.00    -0.173 C  
HETATM    2  C   UNL     1      -8.871  12.045  67.412  1.00  0.00    -0.178 C  
ENDROOT
BRANCH   2   3
HETATM    3  N   UNL     1     -10.272  11.622  67.220  1.00  0.00    -0.199 N  
HETATM    4  O   UNL     1     -12.285  10.976  68.247  1.00  0.00    -0.582 OA 
HETATM    5  C   UNL     1     -11.052  10.954  68.183  1.00  0.00    -0.280 C  
BRANCH   3   6
HETATM    6  C   UNL     1     -10.945  12.127  66.002  1.00  0.00    -0.293 A  
HETATM    7  C   UNL     1     -10.834  11.357  64.822  1.00  0.00    -0.339 A  
HETATM    8  C   UNL     1     -11.988  14.317  67.003  1.00  0.00    -0.463 C  
HETATM    9  C   UNL     1     -11.652  13.363  65.886  1.00  0.00    -0.370 A  
HETATM   10  C   UNL     1     -11.381  11.756  63.594  1.00  0.00    -0.525 A  
HETATM   11  C   UNL     1     -12.048  12.958  63.493  1.00  0.00    -0.633 A  
HETATM   12  C   UNL     1     -12.180  13.751  64.626  1.00  0.00    -0.440 A  
ENDBRANCH   3   6
BRANCH   5  13
HETATM   13  C   UNL     1     -10.357  10.112  69.191  1.00  0.00    -0.237 C  
HETATM   14  C   UNL     1     -10.846  10.001  70.438  1.00  0.00    -0.380 C  
HETATM   15  C   UNL     1     -10.212   9.185  71.519  1.00  0.00    -0.403 C  
ENDBRANCH   5  13
ENDBRANCH   2   3
TORSDOF 3
ENDMDL
MODEL       10
REMARK 921   NORMALIZED FREE ENERGY PREDICTED BY IDOCK:   -4.67 KCAL/MOL
REMARK 922        TOTAL FREE ENERGY PREDICTED BY IDOCK:   -6.05 KCAL/MOL
REMARK 923 INTER-LIGAND FREE ENERGY PREDICTED BY IDOCK:   -5.52 KCAL/MOL
REMARK 924 INTRA-LIGAND FREE ENERGY PREDICTED BY IDOCK:   -0.53 KCAL/MOL
REMARK 927      BINDING AFFINITY PREDICTED BY RF-SCORE:    0.00 PKD
ROOT
HETATM    1  C   UNL     1      -9.963  15.394  65.590  1.00  0.00    -0.396 C  
HETATM    2  C   UNL     1     -11.182  14.683  66.161  1.00  0.00    -0.341 C  
ENDROOT
BRANCH   2   3
HETATM    3  N   UNL     1     -11.174  13.285  66.637  1.00  0.00    -0.299 N  
HETATM    4  O   UNL     1     -12.248  11.649  67.938  1.00  0.00    -0.560 OA 
HETATM    5  C   UNL     1     -11.873  12.812  67.763  1.00  0.00    -0.332 C  
BRANCH   3   6
HETATM    6  C   UNL     1     -10.547  12.293  65.734  1.00  0.00    -0.254 A  
HETATM    7  C   UNL     1      -9.328  11.707  66.146  1.00  0.00    -0.237 A  
HETATM    8  C   UNL     1     -12.337  12.314  63.815  1.00  0.00    -0.637 C  
HETATM    9  C   UNL     1     -11.029  11.909  64.445  1.00  0.00    -0.392 A  
HETATM   10  C   UNL     1      -8.612  10.796  65.356  1.00  0.00    -0.162 A  
HETATM   11  C   UNL     1      -9.081  10.447  64.107  1.00  0.00    -0.272 A  
HETATM   12  C   UNL     1     -10.274  10.999  63.658  1.00  0.00    -0.431 A  
ENDBRANCH   3   6
BRANCH   5  13
HETATM   13  C   UNL     1     -12.159  13.766  68.865  1.00  0.00    -0.348 C  
HETATM   14  C   UNL     1     -12.146  13.352  70.144  1.00  0.00    -0.415 C  
HETATM   15  C   UNL     1     -12.429  14.237  71.316  1.00  0.00    -0.439 C  
ENDBRANCH   5  13
ENDBRANCH   2   3
TORSDOF 3
ENDMDL
MODEL       11
REMARK 921   NORMALIZED FREE ENERGY PREDICTED BY IDOCK:   -4.67 KCAL/MOL
REMARK 922        TOTAL FREE ENERGY PREDICTED BY IDOCK:   -6.04 KCAL/MOL
REMARK 923 INTER-LIGAND FREE ENERGY PREDICTED BY IDOCK:   -5.51 KCAL/MOL
REMARK 924 INTRA-LIGAND FREE ENERGY PREDICTED BY IDOCK:   -0.53 KCAL/MOL
REMARK 927      BINDING AFFINITY PREDICTED BY RF-SCORE:    0.00 PKD
ROOT
HETATM    1  C   UNL     1     -10.527  19.827  66.017  1.00  0.00    -0.609 C  
HETATM    2  C   UNL     1     -10.623  18.976  67.277  1.00  0.00    -0.470 C  
ENDROOT
BRANCH   2   3
HETATM    3  N   UNL     1      -9.774  17.797  67.541  1.00  0.00    -0.278 N  
HETATM    4  O   UNL     1      -8.108  16.843  68.897  1.00  0.00    -0.248 OA 
HETATM    5  C   UNL     1      -8.587  17.811  68.298  1.00  0.00    -0.277 C  
BRANCH   3   6
HETATM    6  C   UNL     1     -10.339  16.486  67.148  1.00  0.00    -0.298 A  
HETATM    7  C   UNL     1     -10.044  16.005  65.852  1.00  0.00    -0.378 A  
HETATM    8  C   UNL     1     -11.609  15.916  69.373  1.00  0.00    -0.352 C  
HETATM    9  C   UNL     1     -11.213  15.678  67.938  1.00  0.00    -0.328 A  
HETATM   10  C   UNL     1     -10.562  14.805  65.345  1.00  0.00    -0.395 A  
HETATM   11  C   UNL     1     -11.417  14.043  66.113  1.00  0.00    -0.350 A  
HETATM   12  C   UNL     1     -11.739  14.477  67.393  1.00  0.00    -0.425 A  
ENDBRANCH   3   6
BRANCH   5  13
HETATM   13  C   UNL     1      -7.808  19.074  68.360  1.00  0.00    -0.372 C  
HETATM   14  C   UNL     1      -6.830  19.226  69.271  1.00  0.00    -0.353 C  
HETATM   15  C   UNL     1      -6.000  20.461  69.414  1.00  0.00    -0.379 C  
ENDBRANCH   5  13
ENDBRANCH   2   3
TORSDOF 3
ENDMDL
MODEL       12
REMARK 921   NORMALIZED FREE ENERGY PREDICTED BY IDOCK:   -4.58 KCAL/MOL
REMARK 922        TOTAL FREE ENERGY PREDICTED BY IDOCK:   -5.94 KCAL/MOL
REMARK 923 INTER-LIGAND FREE ENERGY PREDICTED BY IDOCK:   -5.35 KCAL/MOL
REMARK 924 INTRA-LIGAND FREE ENERGY PREDICTED BY IDOCK:   -0.59 KCAL/MOL
REMARK 927      BINDING AFFINITY PREDICTED BY RF-SCORE:    0.00 PKD
ROOT
HETATM    1  C   UNL     1     -10.063  10.475  65.660  1.00  0.00    -0.333 C  
HETATM    2  C   UNL     1     -10.705  10.661  67.029  1.00  0.00    -0.259 C  
ENDROOT
BRANCH   2   3
HETATM    3  N   UNL     1     -11.340  11.916  67.478  1.00  0.00    -0.294 N  
HETATM    4  O   UNL     1     -11.948  13.261  69.307  1.00  0.00    -0.312 OA 
HETATM    5  C   UNL     1     -11.828  12.152  68.777  1.00  0.00    -0.303 C  
BRANCH   3   6
HETATM    6  C   UNL     1     -11.259  13.059  66.541  1.00  0.00    -0.302 A  
HETATM    7  C   UNL     1     -12.369  13.299  65.699  1.00  0.00    -0.521 A  
HETATM    8  C   UNL     1      -8.870  13.933  67.183  1.00  0.00    -0.236 C  
HETATM    9  C   UNL     1     -10.132  13.918  66.360  1.00  0.00    -0.298 A  
HETATM   10  C   UNL     1     -12.392  14.316  64.735  1.00  0.00    -0.440 A  
HETATM   11  C   UNL     1     -11.291  15.127  64.560  1.00  0.00    -0.297 A  
HETATM   12  C   UNL     1     -10.175  14.928  65.363  1.00  0.00    -0.409 A  
ENDBRANCH   3   6
BRANCH   5  13
HETATM   13  C   UNL     1     -12.281  10.988  69.581  1.00  0.00    -0.370 C  
HETATM   14  C   UNL     1     -12.169  11.001  70.920  1.00  0.00    -0.471 C  
HETATM   15  C   UNL     1     -12.590   9.875  71.810  1.00  0.00    -0.506 C  
ENDBRANCH   5  13
ENDBRANCH   2   3
TORSDOF 3
ENDMDL
MODEL       13
REMARK 921   NORMALIZED FREE ENERGY PREDICTED BY IDOCK:   -4.58 KCAL/MOL
REMARK 922        TOTAL FREE ENERGY PREDICTED BY IDOCK:   -5.94 KCAL/MOL
REMARK 923 INTER-LIGAND FREE ENERGY PREDICTED BY IDOCK:   -5.29 KCAL/MOL
REMARK 924 INTRA-LIGAND FREE ENERGY PREDICTED BY IDOCK:   -0.64 KCAL/MOL
REMARK 927      BINDING AFFINITY PREDICTED BY RF-SCORE:    0.00 PKD
ROOT
HETATM    1  C   UNL     1     -10.176  16.992  66.912  1.00  0.00    -0.305 C  
HETATM    2  C   UNL     1     -11.214  16.390  67.850  1.00  0.00    -0.184 C  
ENDROOT
BRANCH   2   3
HETATM    3  N   UNL     1     -11.367  14.941  68.090  1.00  0.00    -0.299 N  
HETATM    4  O   UNL     1     -12.281  13.265  69.461  1.00  0.00    -0.269 OA 
HETATM    5  C   UNL     1     -11.730  14.361  69.320  1.00  0.00    -0.317 C  
BRANCH   3   6
HETATM    6  C   UNL     1     -11.334  14.074  66.890  1.00  0.00    -0.329 A  
HETATM    7  C   UNL     1     -12.509  13.989  66.108  1.00  0.00    -0.467 A  
HETATM    8  C   UNL     1      -8.855  13.235  67.072  1.00  0.00    -0.216 C  
HETATM    9  C   UNL     1     -10.237  13.260  66.473  1.00  0.00    -0.283 A  
HETATM   10  C   UNL     1     -12.619  13.163  64.981  1.00  0.00    -0.499 A  
HETATM   11  C   UNL     1     -11.558  12.370  64.599  1.00  0.00    -0.400 A  
HETATM   12  C   UNL     1     -10.382  12.418  65.338  1.00  0.00    -0.303 A  
ENDBRANCH   3   6
BRANCH   5  13
HETATM   13  C   UNL     1     -11.393  15.092  70.569  1.00  0.00    -0.334 C  
HETATM   14  C   UNL     1     -12.368  15.579  71.356  1.00  0.00    -0.461 C  
HETATM   15  C   UNL     1     -12.126  16.332  72.625  1.00  0.00    -0.628 C  
ENDBRANCH   5  13
ENDBRANCH   2   3
TORSDOF 3
ENDMDL
MODEL       14
REMARK 921   NORMALIZED FREE ENERGY PREDICTED BY IDOCK:   -4.57 KCAL/MOL
REMARK 922        TOTAL FREE ENERGY PREDICTED BY IDOCK:   -5.92 KCAL/MOL
REMARK 923 INTER-LIGAND FREE ENERGY PREDICTED BY IDOCK:   -5.38 KCAL/MOL
REMARK 924 INTRA-LIGAND FREE ENERGY PREDICTED BY IDOCK:   -0.54 KCAL/MOL
REMARK 927      BINDING AFFINITY PREDICTED BY RF-SCORE:    0.00 PKD
ROOT
HETATM    1  C   UNL     1      -7.684  11.994  67.448  1.00  0.00    -0.162 C  
HETATM    2  C   UNL     1      -9.023  12.531  67.936  1.00  0.00    -0.188 C  
ENDROOT
BRANCH   2   3
HETATM    3  N   UNL     1     -10.328  11.944  67.573  1.00  0.00    -0.198 N  
HETATM    4  O   UNL     1     -12.389  11.116  68.343  1.00  0.00    -0.556 OA 
HETATM    5  C   UNL     1     -11.164  11.231  68.453  1.00  0.00    -0.262 C  
BRANCH   3   6
HETATM    6  C   UNL     1     -10.866  12.321  66.246  1.00  0.00    -0.278 A  
HETATM    7  C   UNL     1     -11.638  13.502  66.161  1.00  0.00    -0.371 A  
HETATM    8  C   UNL     1      -9.892  10.330  64.841  1.00  0.00    -0.404 C  
HETATM    9  C   UNL     1     -10.731  11.566  65.041  1.00  0.00    -0.350 A  
HETATM   10  C   UNL     1     -12.245  13.935  64.974  1.00  0.00    -0.444 A  
HETATM   11  C   UNL     1     -12.119  13.189  63.822  1.00  0.00    -0.563 A  
HETATM   12  C   UNL     1     -11.371  12.018  63.857  1.00  0.00    -0.503 A  
ENDBRANCH   3   6
BRANCH   5  13
HETATM   13  C   UNL     1     -10.538  10.515  69.594  1.00  0.00    -0.281 C  
HETATM   14  C   UNL     1     -11.295   9.816  70.457  1.00  0.00    -0.382 C  
HETATM   15  C   UNL     1     -10.755   9.072  71.636  1.00  0.00    -0.441 C  
ENDBRANCH   5  13
ENDBRANCH   2   3
TORSDOF 3
ENDMDL
MODEL       15
REMARK 921   NORMALIZED FREE ENERGY PREDICTED BY IDOCK:   -4.57 KCAL/MOL
REMARK 922        TOTAL FREE ENERGY PREDICTED BY IDOCK:   -5.92 KCAL/MOL
REMARK 923 INTER-LIGAND FREE ENERGY PREDICTED BY IDOCK:   -5.53 KCAL/MOL
REMARK 924 INTRA-LIGAND FREE ENERGY PREDICTED BY IDOCK:   -0.39 KCAL/MOL
REMARK 927      BINDING AFFINITY PREDICTED BY RF-SCORE:    0.00 PKD
ROOT
HETATM    1  C   UNL     1     -11.541  10.643  70.295  1.00  0.00    -0.424 C  
HETATM    2  C   UNL     1     -12.270  11.333  69.150  1.00  0.00    -0.183 C  
ENDROOT
BRANCH   2   3
HETATM    3  N   UNL     1     -11.655  12.354  68.277  1.00  0.00    -0.312 N  
HETATM    4  O   UNL     1     -10.315  14.280  68.154  1.00  0.00    -0.224 OA 
HETATM    5  C   UNL     1     -11.192  13.610  68.709  1.00  0.00    -0.279 C  
BRANCH   3   6
HETATM    6  C   UNL     1     -11.328  11.921  66.899  1.00  0.00    -0.330 A  
HETATM    7  C   UNL     1     -10.450  10.825  66.746  1.00  0.00    -0.305 A  
HETATM    8  C   UNL     1     -12.773  13.670  65.579  1.00  0.00    -0.514 C  
HETATM    9  C   UNL     1     -11.771  12.550  65.695  1.00  0.00    -0.473 A  
HETATM   10  C   UNL     1     -10.023  10.356  65.495  1.00  0.00    -0.348 A  
HETATM   11  C   UNL     1     -10.446  10.982  64.342  1.00  0.00    -0.422 A  
HETATM   12  C   UNL     1     -11.308  12.066  64.443  1.00  0.00    -0.411 A  
ENDBRANCH   3   6
BRANCH   5  13
HETATM   13  C   UNL     1     -11.824  14.220  69.907  1.00  0.00    -0.382 C  
HETATM   14  C   UNL     1     -11.298  15.323  70.467  1.00  0.00    -0.340 C  
HETATM   15  C   UNL     1     -11.859  16.001  71.675  1.00  0.00    -0.582 C  
ENDBRANCH   5  13
ENDBRANCH   2   3
TORSDOF 3
ENDMDL
MODEL       16
REMARK 921   NORMALIZED FREE ENERGY PREDICTED BY IDOCK:   -4.56 KCAL/MOL
REMARK 922        TOTAL FREE ENERGY PREDICTED BY IDOCK:   -5.91 KCAL/MOL
REMARK 923 INTER-LIGAND FREE ENERGY PREDICTED BY IDOCK:   -5.33 KCAL/MOL
REMARK 924 INTRA-LIGAND FREE ENERGY PREDICTED BY IDOCK:   -0.58 KCAL/MOL
REMARK 927      BINDING AFFINITY PREDICTED BY RF-SCORE:    0.00 PKD
ROOT
HETATM    1  C   UNL     1      -9.695  10.573  65.955  1.00  0.00    -0.270 C  
HETATM    2  C   UNL     1      -9.752  11.542  67.128  1.00  0.00    -0.183 C  
ENDROOT
BRANCH   2   3
HETATM    3  N   UNL     1     -10.851  12.503  67.351  1.00  0.00    -0.234 N  
HETATM    4  O   UNL     1     -12.264  13.538  68.918  1.00  0.00    -0.315 OA 
HETATM    5  C   UNL     1     -11.667  12.542  68.497  1.00  0.00    -0.324 C  
BRANCH   3   6
HETATM    6  C   UNL     1     -10.947  13.619  66.384  1.00  0.00    -0.297 A  
HETATM    7  C   UNL     1     -10.128  14.750  66.601  1.00  0.00    -0.269 A  
HETATM    8  C   UNL     1     -12.749  12.596  64.773  1.00  0.00    -0.460 C  
HETATM    9  C   UNL     1     -11.842  13.692  65.273  1.00  0.00    -0.365 A  
HETATM   10  C   UNL     1     -10.166  15.891  65.786  1.00  0.00    -0.389 A  
HETATM   11  C   UNL     1     -11.046  15.953  64.727  1.00  0.00    -0.397 A  
HETATM   12  C   UNL     1     -11.874  14.867  64.475  1.00  0.00    -0.404 A  
ENDBRANCH   3   6
BRANCH   5  13
HETATM   13  C   UNL     1     -11.876  11.282  69.256  1.00  0.00    -0.423 C  
HETATM   14  C   UNL     1     -12.192  11.319  70.562  1.00  0.00    -0.474 C  
HETATM   15  C   UNL     1     -12.413  10.106  71.408  1.00  0.00    -0.524 C  
ENDBRANCH   5  13
ENDBRANCH   2   3
TORSDOF 3
ENDMDL
MODEL       17
REMARK 921   NORMALIZED FREE ENERGY PREDICTED BY IDOCK:   -4.55 KCAL/MOL
REMARK 922        TOTAL FREE ENERGY PREDICTED BY IDOCK:   -5.90 KCAL/MOL
REMARK 923 INTER-LIGAND FREE ENERGY PREDICTED BY IDOCK:   -5.40 KCAL/MOL
REMARK 924 INTRA-LIGAND FREE ENERGY PREDICTED BY IDOCK:   -0.51 KCAL/MOL
REMARK 927      BINDING AFFINITY PREDICTED BY RF-SCORE:    0.00 PKD
ROOT
HETATM    1  C   UNL     1      -8.774   9.354  70.362  1.00  0.00    -0.278 C  
HETATM    2  C   UNL     1     -10.217   9.840  70.308  1.00  0.00    -0.289 C  
ENDROOT
BRANCH   2   3
HETATM    3  N   UNL     1     -11.317   9.248  71.095  1.00  0.00    -0.311 N  
HETATM    4  O   UNL     1     -13.636   9.150  71.459  1.00  0.00    -0.365 OA 
HETATM    5  C   UNL     1     -12.611   9.790  71.206  1.00  0.00    -0.365 C  
BRANCH   3   6
HETATM    6  C   UNL     1     -11.079   7.886  71.626  1.00  0.00    -0.244 A  
HETATM    7  C   UNL     1     -10.895   7.747  73.020  1.00  0.00    -0.451 A  
HETATM    8  C   UNL     1     -11.195   6.553  69.368  1.00  0.00    -0.418 C  
HETATM    9  C   UNL     1     -10.957   6.693  70.850  1.00  0.00    -0.315 A  
HETATM   10  C   UNL     1     -10.610   6.520  73.635  1.00  0.00    -0.306 A  
HETATM   11  C   UNL     1     -10.479   5.379  72.873  1.00  0.00    -0.250 A  
HETATM   12  C   UNL     1     -10.649   5.467  71.497  1.00  0.00    -0.285 A  
ENDBRANCH   3   6
BRANCH   5  13
HETATM   13  C   UNL     1     -12.775  11.258  71.050  1.00  0.00    -0.457 C  
HETATM   14  C   UNL     1     -13.249  12.001  72.065  1.00  0.00    -0.481 C  
HETATM   15  C   UNL     1     -13.455  13.480  71.998  1.00  0.00    -0.584 C  
ENDBRANCH   5  13
ENDBRANCH   2   3
TORSDOF 3
ENDMDL
MODEL       18
REMARK 921   NORMALIZED FREE ENERGY PREDICTED BY IDOCK:   -4.52 KCAL/MOL
REMARK 922        TOTAL FREE ENERGY PREDICTED BY IDOCK:   -5.86 KCAL/MOL
REMARK 923 INTER-LIGAND FREE ENERGY PREDICTED BY IDOCK:   -5.27 KCAL/MOL
REMARK 924 INTRA-LIGAND FREE ENERGY PREDICTED BY IDOCK:   -0.59 KCAL/MOL
REMARK 927      BINDING AFFINITY PREDICTED BY RF-SCORE:    0.00 PKD
ROOT
HETATM    1  C   UNL     1     -10.772  19.660  66.842  1.00  0.00    -0.570 C  
HETATM    2  C   UNL     1     -10.356  19.025  68.162  1.00  0.00    -0.368 C  
ENDROOT
BRANCH   2   3
HETATM    3  N   UNL     1      -9.631  17.743  68.268  1.00  0.00    -0.299 N  
HETATM    4  O   UNL     1      -7.715  16.631  69.053  1.00  0.00    -0.231 OA 
HETATM    5  C   UNL     1      -8.255  17.614  68.536  1.00  0.00    -0.292 C  
BRANCH   3   6
HETATM    6  C   UNL     1     -10.468  16.522  68.296  1.00  0.00    -0.313 A  
HETATM    7  C   UNL     1     -11.054  16.155  69.528  1.00  0.00    -0.344 A  
HETATM    8  C   UNL     1     -10.260  15.839  65.770  1.00  0.00    -0.394 C  
HETATM    9  C   UNL     1     -10.693  15.634  67.199  1.00  0.00    -0.314 A  
HETATM   10  C   UNL     1     -11.823  14.993  69.694  1.00  0.00    -0.358 A  
HETATM   11  C   UNL     1     -12.019  14.138  68.631  1.00  0.00    -0.373 A  
HETATM   12  C   UNL     1     -11.459  14.455  67.399  1.00  0.00    -0.377 A  
ENDBRANCH   3   6
BRANCH   5  13
HETATM   13  C   UNL     1      -7.353  18.724  68.133  1.00  0.00    -0.281 C  
HETATM   14  C   UNL     1      -6.869  19.575  69.054  1.00  0.00    -0.384 C  
HETATM   15  C   UNL     1      -5.963  20.723  68.743  1.00  0.00    -0.376 C  
ENDBRANCH   5  13
ENDBRANCH   2   3
TORSDOF 3
ENDMDL
MODEL       19
REMARK 921   NORMALIZED FREE ENERGY PREDICTED BY IDOCK:   -4.51 KCAL/MOL
REMARK 922        TOTAL FREE ENERGY PREDICTED BY IDOCK:   -5.86 KCAL/MOL
REMARK 923 INTER-LIGAND FREE ENERGY PREDICTED BY IDOCK:   -5.16 KCAL/MOL
REMARK 924 INTRA-LIGAND FREE ENERGY PREDICTED BY IDOCK:   -0.70 KCAL/MOL
REMARK 927      BINDING AFFINITY PREDICTED BY RF-SCORE:    0.00 PKD
ROOT
HETATM    1  C   UNL     1      -7.462  15.443  68.023  1.00  0.00    -0.138 C  
HETATM    2  C   UNL     1      -8.648  15.515  68.977  1.00  0.00    -0.234 C  
ENDROOT
BRANCH   2   3
HETATM    3  N   UNL     1      -9.987  16.003  68.592  1.00  0.00    -0.214 N  
HETATM    4  O   UNL     1     -12.282  16.036  69.096  1.00  0.00    -0.221 OA 
HETATM    5  C   UNL     1     -11.204  15.440  69.019  1.00  0.00    -0.291 C  
BRANCH   3   6
HETATM    6  C   UNL     1     -10.028  17.298  67.875  1.00  0.00    -0.297 A  
HETATM    7  C   UNL     1      -9.793  18.472  68.626  1.00  0.00    -0.419 A  
HETATM    8  C   UNL     1     -10.547  16.403  65.464  1.00  0.00    -0.346 C  
HETATM    9  C   UNL     1     -10.345  17.483  66.495  1.00  0.00    -0.325 A  
HETATM   10  C   UNL     1      -9.856  19.759  68.073  1.00  0.00    -0.533 A  
HETATM   11  C   UNL     1     -10.178  19.924  66.743  1.00  0.00    -0.603 A  
HETATM   12  C   UNL     1     -10.421  18.799  65.965  1.00  0.00    -0.483 A  
ENDBRANCH   3   6
BRANCH   5  13
HETATM   13  C   UNL     1     -11.226  13.997  69.373  1.00  0.00    -0.283 C  
HETATM   14  C   UNL     1     -11.668  13.086  68.489  1.00  0.00    -0.377 C  
HETATM   15  C   UNL     1     -11.734  11.617  68.758  1.00  0.00    -0.392 C  
ENDBRANCH   5  13
ENDBRANCH   2   3
TORSDOF 3
ENDMDL
MODEL       20
REMARK 921   NORMALIZED FREE ENERGY PREDICTED BY IDOCK:   -4.51 KCAL/MOL
REMARK 922        TOTAL FREE ENERGY PREDICTED BY IDOCK:   -5.86 KCAL/MOL
REMARK 923 INTER-LIGAND FREE ENERGY PREDICTED BY IDOCK:   -5.28 KCAL/MOL
REMARK 924 INTRA-LIGAND FREE ENERGY PREDICTED BY IDOCK:   -0.58 KCAL/MOL
REMARK 927      BINDING AFFINITY PREDICTED BY RF-SCORE:    0.00 PKD
ROOT
HETATM    1  C   UNL     1     -12.243  13.207  63.606  1.00  0.00    -0.553 C  
HETATM    2  C   UNL     1     -12.400  12.413  64.896  1.00  0.00    -0.402 C  
ENDROOT
BRANCH   2   3
HETATM    3  N   UNL     1     -11.344  12.287  65.920  1.00  0.00    -0.344 N  
HETATM    4  O   UNL     1      -9.070  11.882  66.354  1.00  0.00    -0.211 OA 
HETATM    5  C   UNL     1     -10.107  11.643  65.728  1.00  0.00    -0.240 C  
BRANCH   3   6
HETATM    6  C   UNL     1     -11.538  13.077  67.157  1.00  0.00    -0.358 A  
HETATM    7  C   UNL     1     -11.468  14.485  67.055  1.00  0.00    -0.383 A  
HETATM    8  C   UNL     1     -11.931  11.099  68.836  1.00  0.00    -0.367 C  
HETATM    9  C   UNL     1     -11.732  12.547  68.469  1.00  0.00    -0.369 A  
HETATM   10  C   UNL     1     -11.582  15.339  68.162  1.00  0.00    -0.344 A  
HETATM   11  C   UNL     1     -11.753  14.813  69.425  1.00  0.00    -0.358 A  
HETATM   12  C   UNL     1     -11.825  13.434  69.575  1.00  0.00    -0.391 A  
ENDBRANCH   3   6
BRANCH   5  13
HETATM   13  C   UNL     1     -10.030  10.553  64.722  1.00  0.00    -0.412 C  
HETATM   14  C   UNL     1      -9.211  10.661  63.662  1.00  0.00    -0.283 C  
HETATM   15  C   UNL     1      -9.073   9.621  62.597  1.00  0.00    -0.267 C  
ENDBRANCH   5  13
ENDBRANCH   2   3
TORSDOF 3
ENDMDL
MODEL       21
REMARK 921   NORMALIZED FREE ENERGY PREDICTED BY IDOCK:   -4.51 KCAL/MOL
REMARK 922        TOTAL FREE ENERGY PREDICTED BY IDOCK:   -5.85 KCAL/MOL
REMARK 923 INTER-LIGAND FREE ENERGY PREDICTED BY IDOCK:   -5.40 KCAL/MOL
REMARK 924 INTRA-LIGAND FREE ENERGY PREDICTED BY IDOCK:   -0.45 KCAL/MOL
REMARK 927      BINDING AFFINITY PREDICTED BY RF-SCORE:    0.00 PKD
ROOT
HETATM    1  C   UNL     1     -10.511  10.663  68.952  1.00  0.00    -0.232 C  
HETATM    2  C   UNL     1     -11.756  11.490  68.659  1.00  0.00    -0.326 C  
ENDROOT
BRANCH   2   3
HETATM    3  N   UNL     1     -11.726  12.912  68.261  1.00  0.00    -0.333 N  
HETATM    4  O   UNL     1     -12.402  14.523  66.690  1.00  0.00    -0.342 OA 
HETATM    5  C   UNL     1     -11.991  13.391  66.965  1.00  0.00    -0.379 C  
BRANCH   3   6
HETATM    6  C   UNL     1     -11.611  13.895  69.362  1.00  0.00    -0.297 A  
HETATM    7  C   UNL     1     -12.603  13.874  70.369  1.00  0.00    -0.350 A  
HETATM    8  C   UNL     1      -9.408  15.097  68.594  1.00  0.00    -0.199 C  
HETATM    9  C   UNL     1     -10.617  14.914  69.476  1.00  0.00    -0.242 A  
HETATM   10  C   UNL     1     -12.633  14.787  71.433  1.00  0.00    -0.394 A  
HETATM   11  C   UNL     1     -11.676  15.775  71.522  1.00  0.00    -0.523 A  
HETATM   12  C   UNL     1     -10.682  15.838  70.553  1.00  0.00    -0.253 A  
ENDBRANCH   3   6
BRANCH   5  13
HETATM   13  C   UNL     1     -11.723  12.492  65.813  1.00  0.00    -0.478 C  
HETATM   14  C   UNL     1     -12.273  12.742  64.612  1.00  0.00    -0.510 C  
HETATM   15  C   UNL     1     -12.067  11.891  63.400  1.00  0.00    -0.539 C  
ENDBRANCH   5  13
ENDBRANCH   2   3
TORSDOF 3
ENDMDL
MODEL       22
REMARK 921   NORMALIZED FREE ENERGY PREDICTED BY IDOCK:   -4.49 KCAL/MOL
REMARK 922        TOTAL FREE ENERGY PREDICTED BY IDOCK:   -5.83 KCAL/MOL
REMARK 923 INTER-LIGAND FREE ENERGY PREDICTED BY IDOCK:   -5.16 KCAL/MOL
REMARK 924 INTRA-LIGAND FREE ENERGY PREDICTED BY IDOCK:   -0.66 KCAL/MOL
REMARK 927      BINDING AFFINITY PREDICTED BY RF-SCORE:    0.00 PKD
ROOT
HETATM    1  C   UNL     1      -8.508  11.185  67.110  1.00  0.00    -0.137 C  
HETATM    2  C   UNL     1      -9.009  12.604  66.880  1.00  0.00    -0.213 C  
ENDROOT
BRANCH   2   3
HETATM    3  N   UNL     1     -10.430  12.955  66.685  1.00  0.00    -0.260 N  
HETATM    4  O   UNL     1     -12.432  12.474  65.551  1.00  0.00    -0.646 OA 
HETATM    5  C   UNL     1     -11.203  12.595  65.565  1.00  0.00    -0.302 C  
BRANCH   3   6
HETATM    6  C   UNL     1     -11.122  13.549  67.852  1.00  0.00    -0.265 A  
HETATM    7  C   UNL     1     -11.152  14.958  67.951  1.00  0.00    -0.304 A  
HETATM    8  C   UNL     1     -11.896  11.333  69.025  1.00  0.00    -0.421 C  
HETATM    9  C   UNL     1     -11.716  12.826  68.931  1.00  0.00    -0.370 A  
HETATM   10  C   UNL     1     -11.730  15.637  69.034  1.00  0.00    -0.408 A  
HETATM   11  C   UNL     1     -12.286  14.927  70.076  1.00  0.00    -0.381 A  
HETATM   12  C   UNL     1     -12.277  13.539  70.025  1.00  0.00    -0.381 A  
ENDBRANCH   3   6
BRANCH   5  13
HETATM   13  C   UNL     1     -10.507  12.377  64.271  1.00  0.00    -0.389 C  
HETATM   14  C   UNL     1     -10.341  11.133  63.789  1.00  0.00    -0.447 C  
HETATM   15  C   UNL     1      -9.649  10.816  62.502  1.00  0.00    -0.241 C  
ENDBRANCH   5  13
ENDBRANCH   2   3
TORSDOF 3
ENDMDL
MODEL       23
REMARK 921   NORMALIZED FREE ENERGY PREDICTED BY IDOCK:   -4.46 KCAL/MOL
REMARK 922        TOTAL FREE ENERGY PREDICTED BY IDOCK:   -5.79 KCAL/MOL
REMARK 923 INTER-LIGAND FREE ENERGY PREDICTED BY IDOCK:   -5.16 KCAL/MOL
REMARK 924 INTRA-LIGAND FREE ENERGY PREDICTED BY IDOCK:   -0.63 KCAL/MOL
REMARK 927      BINDING AFFINITY PREDICTED BY RF-SCORE:    0.00 PKD
ROOT
HETATM    1  C   UNL     1     -11.055  15.557  64.836  1.00  0.00    -0.428 C  
HETATM    2  C   UNL     1      -9.878  15.314  65.771  1.00  0.00    -0.361 C  
ENDROOT
BRANCH   2   3
HETATM    3  N   UNL     1      -9.703  15.992  67.070  1.00  0.00    -0.226 N  
HETATM    4  O   UNL     1      -8.890  15.838  69.270  1.00  0.00    -0.240 OA 
HETATM    5  C   UNL     1      -9.459  15.340  68.293  1.00  0.00    -0.205 C  
BRANCH   3   6
HETATM    6  C   UNL     1      -9.573  17.466  67.024  1.00  0.00    -0.273 A  
HETATM    7  C   UNL     1     -10.684  18.237  67.438  1.00  0.00    -0.377 A  
HETATM    8  C   UNL     1      -7.112  17.623  66.128  1.00  0.00    -0.347 C  
HETATM    9  C   UNL     1      -8.444  18.195  66.540  1.00  0.00    -0.283 A  
HETATM   10  C   UNL     1     -10.703  19.638  67.390  1.00  0.00    -0.563 A  
HETATM   11  C   UNL     1      -9.612  20.328  66.906  1.00  0.00    -0.564 A  
HETATM   12  C   UNL     1      -8.497  19.613  66.485  1.00  0.00    -0.374 A  
ENDBRANCH   3   6
BRANCH   5  13
HETATM   13  C   UNL     1      -9.956  13.950  68.461  1.00  0.00    -0.221 C  
HETATM   14  C   UNL     1     -11.167  13.721  68.998  1.00  0.00    -0.313 C  
HETATM   15  C   UNL     1     -11.747  12.360  69.212  1.00  0.00    -0.386 C  
ENDBRANCH   5  13
ENDBRANCH   2   3
TORSDOF 3
ENDMDL
MODEL       24
REMARK 921   NORMALIZED FREE ENERGY PREDICTED BY IDOCK:   -4.44 KCAL/MOL
REMARK 922        TOTAL FREE ENERGY PREDICTED BY IDOCK:   -5.77 KCAL/MOL
REMARK 923 INTER-LIGAND FREE ENERGY PREDICTED BY IDOCK:   -5.25 KCAL/MOL
REMARK 924 INTRA-LIGAND FREE ENERGY PREDICTED BY IDOCK:   -0.53 KCAL/MOL
REMARK 927      BINDING AFFINITY PREDICTED BY RF-SCORE:    0.00 PKD
ROOT
HETATM    1  C   UNL     1     -11.750  13.081  67.152  1.00  0.00    -0.439 C  
HETATM    2  C   UNL     1     -12.020  14.573  67.290  1.00  0.00    -0.344 C  
ENDROOT
BRANCH   2   3
HETATM    3  N   UNL     1     -11.333  15.450  68.259  1.00  0.00    -0.334 N  
HETATM    4  O   UNL     1     -10.515  15.691  70.449  1.00  0.00    -0.315 OA 
HETATM    5  C   UNL     1     -11.376  15.295  69.657  1.00  0.00    -0.290 C  
BRANCH   3   6
HETATM    6  C   UNL     1     -10.375  16.425  67.691  1.00  0.00    -0.284 A  
HETATM    7  C   UNL     1     -10.765  17.783  67.650  1.00  0.00    -0.330 A  
HETATM    8  C   UNL     1      -8.420  14.772  67.115  1.00  0.00    -0.247 C  
HETATM    9  C   UNL     1      -9.104  16.115  67.118  1.00  0.00    -0.218 A  
HETATM   10  C   UNL     1      -9.968  18.791  67.089  1.00  0.00    -0.376 A  
HETATM   11  C   UNL     1      -8.750  18.475  66.525  1.00  0.00    -0.296 A  
HETATM   12  C   UNL     1      -8.325  17.153  66.539  1.00  0.00    -0.309 A  
ENDBRANCH   3   6
BRANCH   5  13
HETATM   13  C   UNL     1     -12.567  14.640  70.257  1.00  0.00    -0.370 C  
HETATM   14  C   UNL     1     -12.472  14.004  71.437  1.00  0.00    -0.438 C  
HETATM   15  C   UNL     1     -13.612  13.311  72.113  1.00  0.00    -0.655 C  
ENDBRANCH   5  13
ENDBRANCH   2   3
TORSDOF 3
ENDMDL
MODEL       25
REMARK 921   NORMALIZED FREE ENERGY PREDICTED BY IDOCK:   -4.43 KCAL/MOL
REMARK 922        TOTAL FREE ENERGY PREDICTED BY IDOCK:   -5.77 KCAL/MOL
REMARK 923 INTER-LIGAND FREE ENERGY PREDICTED BY IDOCK:   -5.21 KCAL/MOL
REMARK 924 INTRA-LIGAND FREE ENERGY PREDICTED BY IDOCK:   -0.56 KCAL/MOL
REMARK 927      BINDING AFFINITY PREDICTED BY RF-SCORE:    0.00 PKD
ROOT
HETATM    1  C   UNL     1     -12.244  12.841  63.712  1.00  0.00    -0.572 C  
HETATM    2  C   UNL     1     -12.279  12.725  65.230  1.00  0.00    -0.483 C  
ENDROOT
BRANCH   2   3
HETATM    3  N   UNL     1     -11.115  12.980  66.103  1.00  0.00    -0.283 N  
HETATM    4  O   UNL     1      -8.897  12.412  66.632  1.00  0.00    -0.208 OA 
HETATM    5  C   UNL     1     -10.041  12.091  66.295  1.00  0.00    -0.222 C  
BRANCH   3   6
HETATM    6  C   UNL     1     -10.993  14.354  66.641  1.00  0.00    -0.318 A  
HETATM    7  C   UNL     1     -10.476  15.352  65.783  1.00  0.00    -0.371 A  
HETATM    8  C   UNL     1     -11.933  13.924  69.053  1.00  0.00    -0.402 C  
HETATM    9  C   UNL     1     -11.292  14.762  67.977  1.00  0.00    -0.332 A  
HETATM   10  C   UNL     1     -10.263  16.676  66.192  1.00  0.00    -0.360 A  
HETATM   11  C   UNL     1     -10.542  17.052  67.488  1.00  0.00    -0.310 A  
HETATM   12  C   UNL     1     -11.049  16.105  68.369  1.00  0.00    -0.359 A  
ENDBRANCH   3   6
BRANCH   5  13
HETATM   13  C   UNL     1     -10.292  10.637  66.124  1.00  0.00    -0.291 C  
HETATM   14  C   UNL     1     -10.289   9.816  67.188  1.00  0.00    -0.311 C  
HETATM   15  C   UNL     1     -10.523   8.341  67.113  1.00  0.00    -0.386 C  
ENDBRANCH   5  13
ENDBRANCH   2   3
TORSDOF 3
ENDMDL
MODEL       26
REMARK 921   NORMALIZED FREE ENERGY PREDICTED BY IDOCK:   -4.42 KCAL/MOL
REMARK 922        TOTAL FREE ENERGY PREDICTED BY IDOCK:   -5.75 KCAL/MOL
REMARK 923 INTER-LIGAND FREE ENERGY PREDICTED BY IDOCK:   -5.19 KCAL/MOL
REMARK 924 INTRA-LIGAND FREE ENERGY PREDICTED BY IDOCK:   -0.56 KCAL/MOL
REMARK 927      BINDING AFFINITY PREDICTED BY RF-SCORE:    0.00 PKD
ROOT
HETATM    1  C   UNL     1      -8.888   7.930  73.519  1.00  0.00    -0.333 C  
HETATM    2  C   UNL     1     -10.349   7.682  73.171  1.00  0.00    -0.352 C  
ENDROOT
BRANCH   2   3
HETATM    3  N   UNL     1     -10.879   7.671  71.793  1.00  0.00    -0.226 N  
HETATM    4  O   UNL     1     -11.950   6.425  70.113  1.00  0.00    -0.354 OA 
HETATM    5  C   UNL     1     -11.136   6.512  71.037  1.00  0.00    -0.288 C  
BRANCH   3   6
HETATM    6  C   UNL     1     -11.357   8.970  71.268  1.00  0.00    -0.319 A  
HETATM    7  C   UNL     1     -10.505   9.678  70.389  1.00  0.00    -0.352 A  
HETATM    8  C   UNL     1     -13.698   9.041  72.451  1.00  0.00    -0.539 C  
HETATM    9  C   UNL     1     -12.584   9.615  71.614  1.00  0.00    -0.493 A  
HETATM   10  C   UNL     1     -10.822  10.940  69.868  1.00  0.00    -0.205 A  
HETATM   11  C   UNL     1     -12.002  11.558  70.223  1.00  0.00    -0.455 A  
HETATM   12  C   UNL     1     -12.871  10.902  71.087  1.00  0.00    -0.508 A  
ENDBRANCH   3   6
BRANCH   5  13
HETATM   13  C   UNL     1     -10.345   5.290  71.332  1.00  0.00    -0.290 C  
HETATM   14  C   UNL     1      -9.915   4.500  70.332  1.00  0.00    -0.284 C  
HETATM   15  C   UNL     1      -9.121   3.249  70.532  1.00  0.00    -0.192 C  
ENDBRANCH   5  13
ENDBRANCH   2   3
TORSDOF 3
ENDMDL
MODEL       27
REMARK 921   NORMALIZED FREE ENERGY PREDICTED BY IDOCK:   -4.42 KCAL/MOL
REMARK 922        TOTAL FREE ENERGY PREDICTED BY IDOCK:   -5.75 KCAL/MOL
REMARK 923 INTER-LIGAND FREE ENERGY PREDICTED BY IDOCK:   -5.15 KCAL/MOL
REMARK 924 INTRA-LIGAND FREE ENERGY PREDICTED BY IDOCK:   -0.60 KCAL/MOL
REMARK 927      BINDING AFFINITY PREDICTED BY RF-SCORE:    0.00 PKD
ROOT
HETATM    1  C   UNL     1      -7.858  12.646  67.861  1.00  0.00    -0.154 C  
HETATM    2  C   UNL     1      -9.087  11.754  67.749  1.00  0.00    -0.178 C  
ENDROOT
BRANCH   2   3
HETATM    3  N   UNL     1     -10.459  12.263  67.552  1.00  0.00    -0.211 N  
HETATM    4  O   UNL     1     -12.394  12.221  66.218  1.00  0.00    -0.556 OA 
HETATM    5  C   UNL     1     -11.164  12.228  66.334  1.00  0.00    -0.324 C  
BRANCH   3   6
HETATM    6  C   UNL     1     -11.197  12.640  68.779  1.00  0.00    -0.280 A  
HETATM    7  C   UNL     1     -11.565  11.606  69.669  1.00  0.00    -0.401 A  
HETATM    8  C   UNL     1     -11.299  15.235  68.400  1.00  0.00    -0.338 C  
HETATM    9  C   UNL     1     -11.632  13.956  69.124  1.00  0.00    -0.359 A  
HETATM   10  C   UNL     1     -12.310  11.830  70.836  1.00  0.00    -0.420 A  
HETATM   11  C   UNL     1     -12.737  13.103  71.149  1.00  0.00    -0.386 A  
HETATM   12  C   UNL     1     -12.402  14.152  70.302  1.00  0.00    -0.421 A  
ENDBRANCH   3   6
BRANCH   5  13
HETATM   13  C   UNL     1     -10.385  12.244  65.069  1.00  0.00    -0.321 C  
HETATM   14  C   UNL     1     -10.366  11.163  64.269  1.00  0.00    -0.413 C  
HETATM   15  C   UNL     1      -9.606  11.083  62.984  1.00  0.00    -0.386 C  
ENDBRANCH   5  13
ENDBRANCH   2   3
TORSDOF 3
ENDMDL
MODEL       28
REMARK 921   NORMALIZED FREE ENERGY PREDICTED BY IDOCK:   -4.42 KCAL/MOL
REMARK 922        TOTAL FREE ENERGY PREDICTED BY IDOCK:   -5.75 KCAL/MOL
REMARK 923 INTER-LIGAND FREE ENERGY PREDICTED BY IDOCK:   -5.11 KCAL/MOL
REMARK 924 INTRA-LIGAND FREE ENERGY PREDICTED BY IDOCK:   -0.64 KCAL/MOL
REMARK 927      BINDING AFFINITY PREDICTED BY RF-SCORE:    0.00 PKD
ROOT
HETATM    1  C   UNL     1     -12.264  14.563  64.502  1.00  0.00    -0.483 C  
HETATM    2  C   UNL     1     -12.479  13.823  65.815  1.00  0.00    -0.485 C  
ENDROOT
BRANCH   2   3
HETATM    3  N   UNL     1     -11.406  13.544  66.791  1.00  0.00    -0.317 N  
HETATM    4  O   UNL     1      -9.203  12.797  67.123  1.00  0.00    -0.204 OA 
HETATM    5  C   UNL     1     -10.294  12.716  66.551  1.00  0.00    -0.242 C  
BRANCH   3   6
HETATM    6  C   UNL     1     -11.415  14.367  68.022  1.00  0.00    -0.310 A  
HETATM    7  C   UNL     1     -11.916  13.775  69.204  1.00  0.00    -0.403 A  
HETATM    8  C   UNL     1     -10.371  16.565  67.041  1.00  0.00    -0.301 C  
HETATM    9  C   UNL     1     -11.018  15.735  68.120  1.00  0.00    -0.330 A  
HETATM   10  C   UNL     1     -12.026  14.466  70.419  1.00  0.00    -0.395 A  
HETATM   11  C   UNL     1     -11.653  15.792  70.495  1.00  0.00    -0.396 A  
HETATM   12  C   UNL     1     -11.157  16.417  69.358  1.00  0.00    -0.300 A  
ENDBRANCH   3   6
BRANCH   5  13
HETATM   13  C   UNL     1     -10.436  11.617  65.561  1.00  0.00    -0.321 C  
HETATM   14  C   UNL     1      -9.789  11.674  64.384  1.00  0.00    -0.253 C  
HETATM   15  C   UNL     1      -9.877  10.622  63.325  1.00  0.00    -0.364 C  
ENDBRANCH   5  13
ENDBRANCH   2   3
TORSDOF 3
ENDMDL
MODEL       29
REMARK 921   NORMALIZED FREE ENERGY PREDICTED BY IDOCK:   -4.41 KCAL/MOL
REMARK 922        TOTAL FREE ENERGY PREDICTED BY IDOCK:   -5.73 KCAL/MOL
REMARK 923 INTER-LIGAND FREE ENERGY PREDICTED BY IDOCK:   -5.15 KCAL/MOL
REMARK 924 INTRA-LIGAND FREE ENERGY PREDICTED BY IDOCK:   -0.58 KCAL/MOL
REMARK 927      BINDING AFFINITY PREDICTED BY RF-SCORE:    0.00 PKD
ROOT
HETATM    1  C   UNL     1      -9.050   7.391  73.913  1.00  0.00    -0.298 C  
HETATM    2  C   UNL     1     -10.478   7.174  73.430  1.00  0.00    -0.368 C  
ENDROOT
BRANCH   2   3
HETATM    3  N   UNL     1     -10.913   7.364  72.032  1.00  0.00    -0.230 N  
HETATM    4  O   UNL     1     -11.805   6.363  70.102  1.00  0.00    -0.409 OA 
HETATM    5  C   UNL     1     -11.060   6.333  71.086  1.00  0.00    -0.298 C  
BRANCH   3   6
HETATM    6  C   UNL     1     -11.421   8.711  71.684  1.00  0.00    -0.305 A  
HETATM    7  C   UNL     1     -12.672   9.099  72.215  1.00  0.00    -0.447 A  
HETATM    8  C   UNL     1      -9.423   9.516  70.185  1.00  0.00    -0.287 C  
HETATM    9  C   UNL     1     -10.790   9.645  70.806  1.00  0.00    -0.400 A  
HETATM   10  C   UNL     1     -13.283  10.325  71.917  1.00  0.00    -0.550 A  
HETATM   11  C   UNL     1     -12.670  11.210  71.056  1.00  0.00    -0.476 A  
HETATM   12  C   UNL     1     -11.440  10.872  70.507  1.00  0.00    -0.314 A  
ENDBRANCH   3   6
BRANCH   5  13
HETATM   13  C   UNL     1     -10.228   5.111  71.242  1.00  0.00    -0.292 C  
HETATM   14  C   UNL     1      -9.901   4.370  70.169  1.00  0.00    -0.288 C  
HETATM   15  C   UNL     1      -9.077   3.124  70.230  1.00  0.00    -0.194 C  
ENDBRANCH   5  13
ENDBRANCH   2   3
TORSDOF 3
ENDMDL
MODEL       30
REMARK 921   NORMALIZED FREE ENERGY PREDICTED BY IDOCK:   -4.41 KCAL/MOL
REMARK 922        TOTAL FREE ENERGY PREDICTED BY IDOCK:   -5.73 KCAL/MOL
REMARK 923 INTER-LIGAND FREE ENERGY PREDICTED BY IDOCK:   -5.24 KCAL/MOL
REMARK 924 INTRA-LIGAND FREE ENERGY PREDICTED BY IDOCK:   -0.50 KCAL/MOL
REMARK 927      BINDING AFFINITY PREDICTED BY RF-SCORE:    0.00 PKD
ROOT
HETATM    1  C   UNL     1     -10.373   5.933  69.260  1.00  0.00    -0.312 C  
HETATM    2  C   UNL     1     -11.605   6.343  70.057  1.00  0.00    -0.377 C  
ENDROOT
BRANCH   2   3
HETATM    3  N   UNL     1     -11.564   7.209  71.252  1.00  0.00    -0.279 N  
HETATM    4  O   UNL     1     -10.647   7.566  73.386  1.00  0.00    -0.375 OA 
HETATM    5  C   UNL     1     -11.102   6.812  72.520  1.00  0.00    -0.264 C  
BRANCH   3   6
HETATM    6  C   UNL     1     -11.837   8.647  71.024  1.00  0.00    -0.265 A  
HETATM    7  C   UNL     1     -10.899   9.382  70.264  1.00  0.00    -0.303 A  
HETATM    8  C   UNL     1     -14.115   8.828  72.314  1.00  0.00    -0.511 C  
HETATM    9  C   UNL     1     -12.939   9.385  71.554  1.00  0.00    -0.449 A  
HETATM   10  C   UNL     1     -11.019  10.758  70.025  1.00  0.00    -0.280 A  
HETATM   11  C   UNL     1     -12.079  11.462  70.556  1.00  0.00    -0.487 A  
HETATM   12  C   UNL     1     -13.026  10.782  71.312  1.00  0.00    -0.502 A  
ENDBRANCH   3   6
BRANCH   5  13
HETATM   13  C   UNL     1     -11.201   5.375  72.887  1.00  0.00    -0.372 C  
HETATM   14  C   UNL     1     -10.154   4.553  72.701  1.00  0.00    -0.229 C  
HETATM   15  C   UNL     1     -10.162   3.095  73.032  1.00  0.00    -0.232 C  
ENDBRANCH   5  13
ENDBRANCH   2   3
TORSDOF 3
ENDMDL
MODEL       31
REMARK 921   NORMALIZED FREE ENERGY PREDICTED BY IDOCK:   -4.41 KCAL/MOL
REMARK 922        TOTAL FREE ENERGY PREDICTED BY IDOCK:   -5.73 KCAL/MOL
REMARK 923 INTER-LIGAND FREE ENERGY PREDICTED BY IDOCK:   -5.11 KCAL/MOL
REMARK 924 INTRA-LIGAND FREE ENERGY PREDICTED BY IDOCK:   -0.63 KCAL/MOL
REMARK 927      BINDING AFFINITY PREDICTED BY RF-SCORE:    0.00 PKD
ROOT
HETATM    1  C   UNL     1     -10.771  19.336  66.709  1.00  0.00    -0.526 C  
HETATM    2  C   UNL     1     -10.470  18.047  67.461  1.00  0.00    -0.396 C  
ENDROOT
BRANCH   2   3
HETATM    3  N   UNL     1      -9.824  16.867  66.851  1.00  0.00    -0.265 N  
HETATM    4  O   UNL     1      -7.901  15.521  66.741  1.00  0.00    -0.217 OA 
HETATM    5  C   UNL     1      -8.437  16.631  66.827  1.00  0.00    -0.235 C  
BRANCH   3   6
HETATM    6  C   UNL     1     -10.729  15.776  66.425  1.00  0.00    -0.277 A  
HETATM    7  C   UNL     1     -11.080  15.709  65.057  1.00  0.00    -0.399 A  
HETATM    8  C   UNL     1     -11.064  14.606  68.749  1.00  0.00    -0.274 C  
HETATM    9  C   UNL     1     -11.337  14.808  67.281  1.00  0.00    -0.366 A  
HETATM   10  C   UNL     1     -11.970  14.756  64.541  1.00  0.00    -0.451 A  
HETATM   11  C   UNL     1     -12.562  13.837  65.382  1.00  0.00    -0.534 A  
HETATM   12  C   UNL     1     -12.249  13.865  66.736  1.00  0.00    -0.438 A  
ENDBRANCH   3   6
BRANCH   5  13
HETATM   13  C   UNL     1      -7.523  17.801  66.864  1.00  0.00    -0.230 C  
HETATM   14  C   UNL     1      -7.115  18.382  65.723  1.00  0.00    -0.258 C  
HETATM   15  C   UNL     1      -6.191  19.557  65.661  1.00  0.00    -0.238 C  
ENDBRANCH   5  13
ENDBRANCH   2   3
TORSDOF 3
ENDMDL
MODEL       32
REMARK 921   NORMALIZED FREE ENERGY PREDICTED BY IDOCK:   -4.40 KCAL/MOL
REMARK 922        TOTAL FREE ENERGY PREDICTED BY IDOCK:   -5.73 KCAL/MOL
REMARK 923 INTER-LIGAND FREE ENERGY PREDICTED BY IDOCK:   -5.10 KCAL/MOL
REMARK 924 INTRA-LIGAND FREE ENERGY PREDICTED BY IDOCK:   -0.63 KCAL/MOL
REMARK 927      BINDING AFFINITY PREDICTED BY RF-SCORE:    0.00 PKD
ROOT
HETATM    1  C   UNL     1      -8.076  12.156  68.275  1.00  0.00    -0.166 C  
HETATM    2  C   UNL     1      -9.461  11.588  67.993  1.00  0.00    -0.181 C  
ENDROOT
BRANCH   2   3
HETATM    3  N   UNL     1     -10.573  12.373  67.420  1.00  0.00    -0.214 N  
HETATM    4  O   UNL     1     -12.409  12.392  65.953  1.00  0.00    -0.638 OA 
HETATM    5  C   UNL     1     -11.252  12.057  66.229  1.00  0.00    -0.342 C  
BRANCH   3   6
HETATM    6  C   UNL     1     -11.128  13.441  68.282  1.00  0.00    -0.262 A  
HETATM    7  C   UNL     1     -11.786  13.051  69.471  1.00  0.00    -0.381 A  
HETATM    8  C   UNL     1     -10.411  15.520  66.850  1.00  0.00    -0.301 C  
HETATM    9  C   UNL     1     -11.117  14.840  67.996  1.00  0.00    -0.294 A  
HETATM   10  C   UNL     1     -12.398  13.965  70.341  1.00  0.00    -0.433 A  
HETATM   11  C   UNL     1     -12.393  15.311  70.044  1.00  0.00    -0.366 A  
HETATM   12  C   UNL     1     -11.761  15.742  68.884  1.00  0.00    -0.404 A  
ENDBRANCH   3   6
BRANCH   5  13
HETATM   13  C   UNL     1     -10.523  11.294  65.184  1.00  0.00    -0.351 C  
HETATM   14  C   UNL     1     -10.285  11.845  63.981  1.00  0.00    -0.394 C  
HETATM   15  C   UNL     1      -9.568  11.152  62.867  1.00  0.00    -0.373 C  
ENDBRANCH   5  13
ENDBRANCH   2   3
TORSDOF 3
ENDMDL
MODEL       33
REMARK 921   NORMALIZED FREE ENERGY PREDICTED BY IDOCK:   -4.39 KCAL/MOL
REMARK 922        TOTAL FREE ENERGY PREDICTED BY IDOCK:   -5.72 KCAL/MOL
REMARK 923 INTER-LIGAND FREE ENERGY PREDICTED BY IDOCK:   -5.28 KCAL/MOL
REMARK 924 INTRA-LIGAND FREE ENERGY PREDICTED BY IDOCK:   -0.43 KCAL/MOL
REMARK 927      BINDING AFFINITY PREDICTED BY RF-SCORE:    0.00 PKD
ROOT
HETATM    1  C   UNL     1      -7.810  14.627  67.219  1.00  0.00    -0.213 C  
HETATM    2  C   UNL     1      -8.775  15.508  66.437  1.00  0.00    -0.298 C  
ENDROOT
BRANCH   2   3
HETATM    3  N   UNL     1      -9.894  16.252  67.049  1.00  0.00    -0.239 N  
HETATM    4  O   UNL     1     -11.683  16.200  68.572  1.00  0.00    -0.348 OA 
HETATM    5  C   UNL     1     -10.993  15.662  67.701  1.00  0.00    -0.315 C  
BRANCH   3   6
HETATM    6  C   UNL     1      -9.722  17.719  67.153  1.00  0.00    -0.288 A  
HETATM    7  C   UNL     1     -10.513  18.534  66.312  1.00  0.00    -0.441 A  
HETATM    8  C   UNL     1      -7.890  17.774  69.031  1.00  0.00    -0.100 C  
HETATM    9  C   UNL     1      -8.781  18.396  67.987  1.00  0.00    -0.302 A  
HETATM   10  C   UNL     1     -10.405  19.932  66.280  1.00  0.00    -0.608 A  
HETATM   11  C   UNL     1      -9.481  20.572  67.079  1.00  0.00    -0.516 A  
HETATM   12  C   UNL     1      -8.679  19.811  67.920  1.00  0.00    -0.370 A  
ENDBRANCH   3   6
BRANCH   5  13
HETATM   13  C   UNL     1     -11.400  14.292  67.294  1.00  0.00    -0.350 C  
HETATM   14  C   UNL     1     -11.903  14.068  66.067  1.00  0.00    -0.401 C  
HETATM   15  C   UNL     1     -12.346  12.729  65.572  1.00  0.00    -0.495 C  
ENDBRANCH   5  13
ENDBRANCH   2   3
TORSDOF 3
ENDMDL
MODEL       34
REMARK 921   NORMALIZED FREE ENERGY PREDICTED BY IDOCK:   -4.38 KCAL/MOL
REMARK 922        TOTAL FREE ENERGY PREDICTED BY IDOCK:   -5.70 KCAL/MOL
REMARK 923 INTER-LIGAND FREE ENERGY PREDICTED BY IDOCK:   -5.04 KCAL/MOL
REMARK 924 INTRA-LIGAND FREE ENERGY PREDICTED BY IDOCK:   -0.65 KCAL/MOL
REMARK 927      BINDING AFFINITY PREDICTED BY RF-SCORE:    0.00 PKD
ROOT
HETATM    1  C   UNL     1     -10.907   6.225  68.891  1.00  0.00    -0.396 C  
HETATM    2  C   UNL     1     -11.687   6.474  70.176  1.00  0.00    -0.353 C  
ENDROOT
BRANCH   2   3
HETATM    3  N   UNL     1     -11.213   7.339  71.274  1.00  0.00    -0.251 N  
HETATM    4  O   UNL     1      -9.538   7.739  72.873  1.00  0.00    -0.193 OA 
HETATM    5  C   UNL     1     -10.266   6.964  72.244  1.00  0.00    -0.186 C  
BRANCH   3   6
HETATM    6  C   UNL     1     -11.622   8.761  71.207  1.00  0.00    -0.292 A  
HETATM    7  C   UNL     1     -12.758   9.154  71.951  1.00  0.00    -0.464 A  
HETATM    8  C   UNL     1      -9.745   9.640  69.597  1.00  0.00    -0.230 C  
HETATM    9  C   UNL     1     -11.010   9.773  70.406  1.00  0.00    -0.371 A  
HETATM   10  C   UNL     1     -13.274  10.458  71.927  1.00  0.00    -0.535 A  
HETATM   11  C   UNL     1     -12.682  11.421  71.138  1.00  0.00    -0.479 A  
HETATM   12  C   UNL     1     -11.565  11.080  70.386  1.00  0.00    -0.389 A  
ENDBRANCH   3   6
BRANCH   5  13
HETATM   13  C   UNL     1     -10.142   5.524  72.587  1.00  0.00    -0.211 C  
HETATM   14  C   UNL     1     -10.927   4.979  73.532  1.00  0.00    -0.393 C  
HETATM   15  C   UNL     1     -10.869   3.544  73.948  1.00  0.00    -0.301 C  
ENDBRANCH   5  13
ENDBRANCH   2   3
TORSDOF 3
ENDMDL
MODEL       35
REMARK 921   NORMALIZED FREE ENERGY PREDICTED BY IDOCK:   -4.37 KCAL/MOL
REMARK 922        TOTAL FREE ENERGY PREDICTED BY IDOCK:   -5.69 KCAL/MOL
REMARK 923 INTER-LIGAND FREE ENERGY PREDICTED BY IDOCK:   -5.01 KCAL/MOL
REMARK 924 INTRA-LIGAND FREE ENERGY PREDICTED BY IDOCK:   -0.68 KCAL/MOL
REMARK 927      BINDING AFFINITY PREDICTED BY RF-SCORE:    0.00 PKD
ROOT
HETATM    1  C   UNL     1     -10.768  19.673  65.998  1.00  0.00    -0.527 C  
HETATM    2  C   UNL     1     -10.123  19.180  67.286  1.00  0.00    -0.376 C  
ENDROOT
BRANCH   2   3
HETATM    3  N   UNL     1      -8.818  18.492  67.345  1.00  0.00    -0.266 N  
HETATM    4  O   UNL     1      -7.450  16.801  66.454  1.00  0.00    -0.271 OA 
HETATM    5  C   UNL     1      -8.556  17.214  66.817  1.00  0.00    -0.243 C  
BRANCH   3   6
HETATM    6  C   UNL     1      -7.672  19.306  67.811  1.00  0.00    -0.273 A  
HETATM    7  C   UNL     1      -7.318  19.220  69.176  1.00  0.00    -0.341 A  
HETATM    8  C   UNL     1      -7.035  20.439  65.531  1.00  0.00    -0.254 C  
HETATM    9  C   UNL     1      -6.920  20.226  67.019  1.00  0.00    -0.296 A  
HETATM   10  C   UNL     1      -6.287  19.980  69.748  1.00  0.00    -0.389 A  
HETATM   11  C   UNL     1      -5.579  20.876  68.975  1.00  0.00    -0.400 A  
HETATM   12  C   UNL     1      -5.894  20.997  67.628  1.00  0.00    -0.371 A  
ENDBRANCH   3   6
BRANCH   5  13
HETATM   13  C   UNL     1      -9.682  16.249  66.717  1.00  0.00    -0.253 C  
HETATM   14  C   UNL     1     -10.166  15.890  65.516  1.00  0.00    -0.394 C  
HETATM   15  C   UNL     1     -11.299  14.935  65.318  1.00  0.00    -0.358 C  
ENDBRANCH   5  13
ENDBRANCH   2   3
TORSDOF 3
ENDMDL
MODEL       36
REMARK 921   NORMALIZED FREE ENERGY PREDICTED BY IDOCK:   -4.37 KCAL/MOL
REMARK 922        TOTAL FREE ENERGY PREDICTED BY IDOCK:   -5.69 KCAL/MOL
REMARK 923 INTER-LIGAND FREE ENERGY PREDICTED BY IDOCK:   -5.08 KCAL/MOL
REMARK 924 INTRA-LIGAND FREE ENERGY PREDICTED BY IDOCK:   -0.61 KCAL/MOL
REMARK 927      BINDING AFFINITY PREDICTED BY RF-SCORE:    0.00 PKD
ROOT
HETATM    1  C   UNL     1     -11.161   6.135  69.014  1.00  0.00    -0.437 C  
HETATM    2  C   UNL     1     -10.661   5.621  70.357  1.00  0.00    -0.294 C  
ENDROOT
BRANCH   2   3
HETATM    3  N   UNL     1     -11.100   6.157  71.661  1.00  0.00    -0.267 N  
HETATM    4  O   UNL     1     -10.702   6.260  73.975  1.00  0.00    -0.224 OA 
HETATM    5  C   UNL     1     -10.737   5.629  72.914  1.00  0.00    -0.248 C  
BRANCH   3   6
HETATM    6  C   UNL     1     -11.800   7.462  71.627  1.00  0.00    -0.291 A  
HETATM    7  C   UNL     1     -13.212   7.452  71.684  1.00  0.00    -0.416 A  
HETATM    8  C   UNL     1      -9.704   9.035  71.487  1.00  0.00    -0.365 C  
HETATM    9  C   UNL     1     -11.182   8.741  71.481  1.00  0.00    -0.377 A  
HETATM   10  C   UNL     1     -13.989   8.616  71.606  1.00  0.00    -0.459 A  
HETATM   11  C   UNL     1     -13.381   9.843  71.449  1.00  0.00    -0.447 A  
HETATM   12  C   UNL     1     -11.994   9.903  71.385  1.00  0.00    -0.489 A  
ENDBRANCH   3   6
BRANCH   5  13
HETATM   13  C   UNL     1     -10.404   4.183  72.998  1.00  0.00    -0.239 C  
HETATM   14  C   UNL     1     -11.110   3.368  73.801  1.00  0.00    -0.286 C  
HETATM   15  C   UNL     1     -10.844   1.905  73.957  1.00  0.00    -0.238 C  
ENDBRANCH   5  13
ENDBRANCH   2   3
TORSDOF 3
ENDMDL
MODEL       37
REMARK 921   NORMALIZED FREE ENERGY PREDICTED BY IDOCK:   -4.36 KCAL/MOL
REMARK 922        TOTAL FREE ENERGY PREDICTED BY IDOCK:   -5.67 KCAL/MOL
REMARK 923 INTER-LIGAND FREE ENERGY PREDICTED BY IDOCK:   -5.11 KCAL/MOL
REMARK 924 INTRA-LIGAND FREE ENERGY PREDICTED BY IDOCK:   -0.57 KCAL/MOL
REMARK 927      BINDING AFFINITY PREDICTED BY RF-SCORE:    0.00 PKD
ROOT
HETATM    1  C   UNL     1     -11.053  16.211  70.206  1.00  0.00    -0.375 C  
HETATM    2  C   UNL     1     -11.621  15.850  68.840  1.00  0.00    -0.388 C  
ENDROOT
BRANCH   2   3
HETATM    3  N   UNL     1     -10.806  15.353  67.713  1.00  0.00    -0.294 N  
HETATM    4  O   UNL     1      -8.819  15.579  66.479  1.00  0.00    -0.267 OA 
HETATM    5  C   UNL     1      -9.775  16.075  67.084  1.00  0.00    -0.228 C  
BRANCH   3   6
HETATM    6  C   UNL     1     -10.965  13.920  67.377  1.00  0.00    -0.288 A  
HETATM    7  C   UNL     1     -10.470  12.970  68.299  1.00  0.00    -0.258 A  
HETATM    8  C   UNL     1     -12.193  14.186  65.073  1.00  0.00    -0.450 C  
HETATM    9  C   UNL     1     -11.521  13.399  66.169  1.00  0.00    -0.354 A  
HETATM   10  C   UNL     1     -10.514  11.587  68.069  1.00  0.00    -0.214 A  
HETATM   11  C   UNL     1     -11.039  11.098  66.892  1.00  0.00    -0.313 A  
HETATM   12  C   UNL     1     -11.535  11.995  65.954  1.00  0.00    -0.392 A  
ENDBRANCH   3   6
BRANCH   5  13
HETATM   13  C   UNL     1      -9.843  17.559  67.100  1.00  0.00    -0.297 C  
HETATM   14  C   UNL     1     -10.488  18.221  66.123  1.00  0.00    -0.403 C  
HETATM   15  C   UNL     1     -10.602  19.710  66.051  1.00  0.00    -0.584 C  
ENDBRANCH   5  13
ENDBRANCH   2   3
TORSDOF 3
ENDMDL
MODEL       38
REMARK 921   NORMALIZED FREE ENERGY PREDICTED BY IDOCK:   -4.36 KCAL/MOL
REMARK 922        TOTAL FREE ENERGY PREDICTED BY IDOCK:   -5.67 KCAL/MOL
REMARK 923 INTER-LIGAND FREE ENERGY PREDICTED BY IDOCK:   -5.05 KCAL/MOL
REMARK 924 INTRA-LIGAND FREE ENERGY PREDICTED BY IDOCK:   -0.62 KCAL/MOL
REMARK 927      BINDING AFFINITY PREDICTED BY RF-SCORE:    0.00 PKD
ROOT
HETATM    1  C   UNL     1     -14.380   7.883  71.500  1.00  0.00    -0.563 C  
HETATM    2  C   UNL     1     -13.153   8.518  72.141  1.00  0.00    -0.358 C  
ENDROOT
BRANCH   2   3
HETATM    3  N   UNL     1     -11.778   8.360  71.626  1.00  0.00    -0.281 N  
HETATM    4  O   UNL     1      -9.749   9.419  71.093  1.00  0.00    -0.270 OA 
HETATM    5  C   UNL     1     -10.984   9.404  71.115  1.00  0.00    -0.360 C  
BRANCH   3   6
HETATM    6  C   UNL     1     -11.140   7.046  71.865  1.00  0.00    -0.242 A  
HETATM    7  C   UNL     1     -10.750   6.735  73.187  1.00  0.00    -0.326 A  
HETATM    8  C   UNL     1     -11.206   6.119  69.411  1.00  0.00    -0.466 C  
HETATM    9  C   UNL     1     -10.822   6.074  70.867  1.00  0.00    -0.349 A  
HETATM   10  C   UNL     1     -10.089   5.547  73.531  1.00  0.00    -0.204 A  
HETATM   11  C   UNL     1      -9.775   4.625  72.555  1.00  0.00    -0.199 A  
HETATM   12  C   UNL     1     -10.136   4.888  71.240  1.00  0.00    -0.269 A  
ENDBRANCH   3   6
BRANCH   5  13
HETATM   13  C   UNL     1     -11.667  10.576  70.509  1.00  0.00    -0.443 C  
HETATM   14  C   UNL     1     -11.169  11.156  69.403  1.00  0.00    -0.334 C  
HETATM   15  C   UNL     1     -11.781  12.342  68.729  1.00  0.00    -0.390 C  
ENDBRANCH   5  13
ENDBRANCH   2   3
TORSDOF 3
ENDMDL
MODEL       39
REMARK 921   NORMALIZED FREE ENERGY PREDICTED BY IDOCK:   -4.35 KCAL/MOL
REMARK 922        TOTAL FREE ENERGY PREDICTED BY IDOCK:   -5.67 KCAL/MOL
REMARK 923 INTER-LIGAND FREE ENERGY PREDICTED BY IDOCK:   -5.15 KCAL/MOL
REMARK 924 INTRA-LIGAND FREE ENERGY PREDICTED BY IDOCK:   -0.52 KCAL/MOL
REMARK 927      BINDING AFFINITY PREDICTED BY RF-SCORE:    0.00 PKD
ROOT
HETATM    1  C   UNL     1     -12.135  13.392  66.310  1.00  0.00    -0.475 C  
HETATM    2  C   UNL     1     -12.084  14.426  67.427  1.00  0.00    -0.313 C  
ENDROOT
BRANCH   2   3
HETATM    3  N   UNL     1     -11.268  14.280  68.649  1.00  0.00    -0.250 N  
HETATM    4  O   UNL     1      -9.590  15.204  70.009  1.00  0.00    -0.093 OA 
HETATM    5  C   UNL     1     -10.056  14.951  68.894  1.00  0.00    -0.236 C  
BRANCH   3   6
HETATM    6  C   UNL     1     -11.892  13.530  69.763  1.00  0.00    -0.329 A  
HETATM    7  C   UNL     1     -11.744  12.125  69.774  1.00  0.00    -0.381 A  
HETATM    8  C   UNL     1     -12.927  15.554  71.074  1.00  0.00    -0.550 C  
HETATM    9  C   UNL     1     -12.690  14.090  70.808  1.00  0.00    -0.396 A  
HETATM   10  C   UNL     1     -12.331  11.301  70.745  1.00  0.00    -0.495 A  
HETATM   11  C   UNL     1     -13.112  11.853  71.738  1.00  0.00    -0.465 A  
HETATM   12  C   UNL     1     -13.289  13.231  71.767  1.00  0.00    -0.479 A  
ENDBRANCH   3   6
BRANCH   5  13
HETATM   13  C   UNL     1      -9.231  15.363  67.729  1.00  0.00    -0.183 C  
HETATM   14  C   UNL     1      -9.159  16.656  67.369  1.00  0.00    -0.206 C  
HETATM   15  C   UNL     1      -8.363  17.162  66.209  1.00  0.00    -0.298 C  
ENDBRANCH   5  13
ENDBRANCH   2   3
TORSDOF 3
ENDMDL
MODEL       40
REMARK 921   NORMALIZED FREE ENERGY PREDICTED BY IDOCK:   -4.31 KCAL/MOL
REMARK 922        TOTAL FREE ENERGY PREDICTED BY IDOCK:   -5.63 KCAL/MOL
REMARK 923 INTER-LIGAND FREE ENERGY PREDICTED BY IDOCK:   -5.07 KCAL/MOL
REMARK 924 INTRA-LIGAND FREE ENERGY PREDICTED BY IDOCK:   -0.56 KCAL/MOL
REMARK 927      BINDING AFFINITY PREDICTED BY RF-SCORE:    0.00 PKD
ROOT
HETATM    1  C   UNL     1      -8.000  11.907  67.925  1.00  0.00    -0.144 C  
HETATM    2  C   UNL     1      -9.109  12.807  68.453  1.00  0.00    -0.129 C  
ENDROOT
BRANCH   2   3
HETATM    3  N   UNL     1     -10.549  12.530  68.280  1.00  0.00    -0.224 N  
HETATM    4  O   UNL     1     -12.284  12.028  66.776  1.00  0.00    -0.545 OA 
HETATM    5  C   UNL     1     -11.251  12.641  67.066  1.00  0.00    -0.300 C  
BRANCH   3   6
HETATM    6  C   UNL     1     -11.234  11.897  69.430  1.00  0.00    -0.211 A  
HETATM    7  C   UNL     1     -11.018  10.516  69.644  1.00  0.00    -0.333 A  
HETATM    8  C   UNL     1     -12.482  14.008  70.363  1.00  0.00    -0.418 C  
HETATM    9  C   UNL     1     -12.149  12.539  70.319  1.00  0.00    -0.373 A  
HETATM   10  C   UNL     1     -11.649   9.793  70.666  1.00  0.00    -0.389 A  
HETATM   11  C   UNL     1     -12.543  10.422  71.507  1.00  0.00    -0.544 A  
HETATM   12  C   UNL     1     -12.790  11.778  71.333  1.00  0.00    -0.440 A  
ENDBRANCH   3   6
BRANCH   5  13
HETATM   13  C   UNL     1     -10.750  13.600  66.048  1.00  0.00    -0.280 C  
HETATM   14  C   UNL     1     -10.899  14.924  66.229  1.00  0.00    -0.331 C  
HETATM   15  C   UNL     1     -10.435  15.962  65.259  1.00  0.00    -0.403 C  
ENDBRANCH   5  13
ENDBRANCH   2   3
TORSDOF 3
ENDMDL
MODEL       41
REMARK 921   NORMALIZED FREE ENERGY PREDICTED BY IDOCK:   -4.29 KCAL/MOL
REMARK 922        TOTAL FREE ENERGY PREDICTED BY IDOCK:   -5.60 KCAL/MOL
REMARK 923 INTER-LIGAND FREE ENERGY PREDICTED BY IDOCK:   -5.03 KCAL/MOL
REMARK 924 INTRA-LIGAND FREE ENERGY PREDICTED BY IDOCK:   -0.57 KCAL/MOL
REMARK 927      BINDING AFFINITY PREDICTED BY RF-SCORE:    0.00 PKD
ROOT
HETATM    1  C   UNL     1      -7.601  14.528  67.346  1.00  0.00    -0.209 C  
HETATM    2  C   UNL     1      -8.967  13.860  67.271  1.00  0.00    -0.221 C  
ENDROOT
BRANCH   2   3
HETATM    3  N   UNL     1     -10.197  14.546  66.825  1.00  0.00    -0.262 N  
HETATM    4  O   UNL     1     -12.478  14.339  66.301  1.00  0.00    -0.445 OA 
HETATM    5  C   UNL     1     -11.322  13.906  66.274  1.00  0.00    -0.324 C  
BRANCH   3   6
HETATM    6  C   UNL     1     -10.311  15.978  67.183  1.00  0.00    -0.295 A  
HETATM    7  C   UNL     1     -10.242  16.925  66.136  1.00  0.00    -0.352 A  
HETATM    8  C   UNL     1     -10.606  15.718  69.778  1.00  0.00    -0.312 C  
HETATM    9  C   UNL     1     -10.424  16.506  68.506  1.00  0.00    -0.302 A  
HETATM   10  C   UNL     1     -10.284  18.310  66.353  1.00  0.00    -0.417 A  
HETATM   11  C   UNL     1     -10.378  18.805  67.636  1.00  0.00    -0.476 A  
HETATM   12  C   UNL     1     -10.446  17.913  68.698  1.00  0.00    -0.269 A  
ENDBRANCH   3   6
BRANCH   5  13
HETATM   13  C   UNL     1     -11.120  12.620  65.558  1.00  0.00    -0.329 C  
HETATM   14  C   UNL     1     -10.875  12.608  64.236  1.00  0.00    -0.411 C  
HETATM   15  C   UNL     1     -10.667  11.366  63.431  1.00  0.00    -0.405 C  
ENDBRANCH   5  13
ENDBRANCH   2   3
TORSDOF 3
ENDMDL
MODEL       42
REMARK 921   NORMALIZED FREE ENERGY PREDICTED BY IDOCK:   -4.26 KCAL/MOL
REMARK 922        TOTAL FREE ENERGY PREDICTED BY IDOCK:   -5.56 KCAL/MOL
REMARK 923 INTER-LIGAND FREE ENERGY PREDICTED BY IDOCK:   -4.95 KCAL/MOL
REMARK 924 INTRA-LIGAND FREE ENERGY PREDICTED BY IDOCK:   -0.60 KCAL/MOL
REMARK 927      BINDING AFFINITY PREDICTED BY RF-SCORE:    0.00 PKD
ROOT
HETATM    1  C   UNL     1     -12.434  14.151  65.172  1.00  0.00    -0.453 C  
HETATM    2  C   UNL     1     -12.353  12.845  65.950  1.00  0.00    -0.313 C  
ENDROOT
BRANCH   2   3
HETATM    3  N   UNL     1     -11.267  12.513  66.894  1.00  0.00    -0.285 N  
HETATM    4  O   UNL     1      -8.952  12.504  67.296  1.00  0.00    -0.177 OA 
HETATM    5  C   UNL     1      -9.916  12.344  66.541  1.00  0.00    -0.230 C  
BRANCH   3   6
HETATM    6  C   UNL     1     -11.614  12.571  68.333  1.00  0.00    -0.322 A  
HETATM    7  C   UNL     1     -11.856  11.348  69.000  1.00  0.00    -0.415 A  
HETATM    8  C   UNL     1     -11.507  15.171  68.664  1.00  0.00    -0.341 C  
HETATM    9  C   UNL     1     -11.788  13.758  69.107  1.00  0.00    -0.398 A  
HETATM   10  C   UNL     1     -12.243  11.275  70.346  1.00  0.00    -0.453 A  
HETATM   11  C   UNL     1     -12.422  12.430  71.077  1.00  0.00    -0.353 A  
HETATM   12  C   UNL     1     -12.199  13.656  70.462  1.00  0.00    -0.438 A  
ENDBRANCH   3   6
BRANCH   5  13
HETATM   13  C   UNL     1      -9.600  11.895  65.160  1.00  0.00    -0.132 C  
HETATM   14  C   UNL     1      -9.683  10.594  64.832  1.00  0.00    -0.341 C  
HETATM   15  C   UNL     1      -9.378  10.049  63.473  1.00  0.00    -0.301 C  
ENDBRANCH   5  13
ENDBRANCH   2   3
TORSDOF 3
ENDMDL
MODEL       43
REMARK 921   NORMALIZED FREE ENERGY PREDICTED BY IDOCK:   -4.25 KCAL/MOL
REMARK 922        TOTAL FREE ENERGY PREDICTED BY IDOCK:   -5.55 KCAL/MOL
REMARK 923 INTER-LIGAND FREE ENERGY PREDICTED BY IDOCK:   -4.97 KCAL/MOL
REMARK 924 INTRA-LIGAND FREE ENERGY PREDICTED BY IDOCK:   -0.58 KCAL/MOL
REMARK 927      BINDING AFFINITY PREDICTED BY RF-SCORE:    0.00 PKD
ROOT
HETATM    1  C   UNL     1     -14.232   7.923  71.592  1.00  0.00    -0.564 C  
HETATM    2  C   UNL     1     -13.152   8.995  71.651  1.00  0.00    -0.365 C  
ENDROOT
BRANCH   2   3
HETATM    3  N   UNL     1     -11.840   8.881  70.983  1.00  0.00    -0.285 N  
HETATM    4  O   UNL     1      -9.812   9.941  70.449  1.00  0.00    -0.246 OA 
HETATM    5  C   UNL     1     -11.039   9.969  70.590  1.00  0.00    -0.335 C  
BRANCH   3   6
HETATM    6  C   UNL     1     -11.257   7.521  70.920  1.00  0.00    -0.269 A  
HETATM    7  C   UNL     1     -11.247   6.868  69.667  1.00  0.00    -0.289 A  
HETATM    8  C   UNL     1     -10.569   7.266  73.440  1.00  0.00    -0.435 C  
HETATM    9  C   UNL     1     -10.752   6.773  72.027  1.00  0.00    -0.245 A  
HETATM   10  C   UNL     1     -10.771   5.561  69.490  1.00  0.00    -0.332 A  
HETATM   11  C   UNL     1     -10.301   4.844  70.570  1.00  0.00    -0.242 A  
HETATM   12  C   UNL     1     -10.294   5.445  71.823  1.00  0.00    -0.271 A  
ENDBRANCH   3   6
BRANCH   5  13
HETATM   13  C   UNL     1     -11.707  11.257  70.271  1.00  0.00    -0.415 C  
HETATM   14  C   UNL     1     -11.374  11.940  69.163  1.00  0.00    -0.338 C  
HETATM   15  C   UNL     1     -11.985  13.246  68.765  1.00  0.00    -0.335 C  
ENDBRANCH   5  13
ENDBRANCH   2   3
TORSDOF 3
ENDMDL
MODEL       44
REMARK 921   NORMALIZED FREE ENERGY PREDICTED BY IDOCK:   -4.24 KCAL/MOL
REMARK 922        TOTAL FREE ENERGY PREDICTED BY IDOCK:   -5.54 KCAL/MOL
REMARK 923 INTER-LIGAND FREE ENERGY PREDICTED BY IDOCK:   -5.01 KCAL/MOL
REMARK 924 INTRA-LIGAND FREE ENERGY PREDICTED BY IDOCK:   -0.54 KCAL/MOL
REMARK 927      BINDING AFFINITY PREDICTED BY RF-SCORE:    0.00 PKD
ROOT
HETATM    1  C   UNL     1     -12.053  13.005  63.576  1.00  0.00    -0.617 C  
HETATM    2  C   UNL     1     -11.967  13.103  65.094  1.00  0.00    -0.394 C  
ENDROOT
BRANCH   2   3
HETATM    3  N   UNL     1     -10.727  12.886  65.865  1.00  0.00    -0.268 N  
HETATM    4  O   UNL     1      -9.191  13.780  67.403  1.00  0.00    -0.203 OA 
HETATM    5  C   UNL     1      -9.938  13.907  66.427  1.00  0.00    -0.297 C  
BRANCH   3   6
HETATM    6  C   UNL     1     -10.426  11.484  66.234  1.00  0.00    -0.251 A  
HETATM    7  C   UNL     1      -9.698  10.702  65.309  1.00  0.00    -0.315 A  
HETATM    8  C   UNL     1     -11.563  11.442  68.599  1.00  0.00    -0.384 C  
HETATM    9  C   UNL     1     -10.857  10.819  67.423  1.00  0.00    -0.345 A  
HETATM   10  C   UNL     1      -9.398   9.349  65.520  1.00  0.00    -0.315 A  
HETATM   11  C   UNL     1      -9.834   8.715  66.664  1.00  0.00    -0.336 A  
HETATM   12  C   UNL     1     -10.556   9.442  67.602  1.00  0.00    -0.333 A  
ENDBRANCH   3   6
BRANCH   5  13
HETATM   13  C   UNL     1      -9.958  15.246  65.785  1.00  0.00    -0.391 C  
HETATM   14  C   UNL     1     -10.403  16.319  66.462  1.00  0.00    -0.310 C  
HETATM   15  C   UNL     1     -10.468  17.702  65.897  1.00  0.00    -0.247 C  
ENDBRANCH   5  13
ENDBRANCH   2   3
TORSDOF 3
ENDMDL
MODEL       45
REMARK 921   NORMALIZED FREE ENERGY PREDICTED BY IDOCK:   -4.22 KCAL/MOL
REMARK 922        TOTAL FREE ENERGY PREDICTED BY IDOCK:   -5.52 KCAL/MOL
REMARK 923 INTER-LIGAND FREE ENERGY PREDICTED BY IDOCK:   -4.85 KCAL/MOL
REMARK 924 INTRA-LIGAND FREE ENERGY PREDICTED BY IDOCK:   -0.67 KCAL/MOL
REMARK 927      BINDING AFFINITY PREDICTED BY RF-SCORE:    0.00 PKD
ROOT
HETATM    1  C   UNL     1      -7.929  15.368  67.104  1.00  0.00    -0.251 C  
HETATM    2  C   UNL     1      -9.235  15.353  66.321  1.00  0.00    -0.319 C  
ENDROOT
BRANCH   2   3
HETATM    3  N   UNL     1     -10.323  14.380  66.550  1.00  0.00    -0.276 N  
HETATM    4  O   UNL     1     -12.567  14.057  67.167  1.00  0.00    -0.163 OA 
HETATM    5  C   UNL     1     -11.483  14.632  67.306  1.00  0.00    -0.372 C  
BRANCH   3   6
HETATM    6  C   UNL     1     -10.263  13.136  65.751  1.00  0.00    -0.289 A  
HETATM    7  C   UNL     1     -10.646  13.208  64.392  1.00  0.00    -0.441 A  
HETATM    8  C   UNL     1      -9.383  11.508  67.612  1.00  0.00    -0.171 C  
HETATM    9  C   UNL     1      -9.910  11.841  66.239  1.00  0.00    -0.245 A  
HETATM   10  C   UNL     1     -10.682  12.090  63.547  1.00  0.00    -0.513 A  
HETATM   11  C   UNL     1     -10.354  10.843  64.036  1.00  0.00    -0.417 A  
HETATM   12  C   UNL     1      -9.974  10.722  65.367  1.00  0.00    -0.330 A  
ENDBRANCH   3   6
BRANCH   5  13
HETATM   13  C   UNL     1     -11.410  15.640  68.394  1.00  0.00    -0.365 C  
HETATM   14  C   UNL     1     -11.391  15.252  69.681  1.00  0.00    -0.304 C  
HETATM   15  C   UNL     1     -11.326  16.192  70.842  1.00  0.00    -0.394 C  
ENDBRANCH   5  13
ENDBRANCH   2   3
TORSDOF 3
ENDMDL
MODEL       46
REMARK 921   NORMALIZED FREE ENERGY PREDICTED BY IDOCK:   -4.22 KCAL/MOL
REMARK 922        TOTAL FREE ENERGY PREDICTED BY IDOCK:   -5.52 KCAL/MOL
REMARK 923 INTER-LIGAND FREE ENERGY PREDICTED BY IDOCK:   -4.94 KCAL/MOL
REMARK 924 INTRA-LIGAND FREE ENERGY PREDICTED BY IDOCK:   -0.58 KCAL/MOL
REMARK 927      BINDING AFFINITY PREDICTED BY RF-SCORE:    0.00 PKD
ROOT
HETATM    1  C   UNL     1     -10.243  19.568  68.080  1.00  0.00    -0.556 C  
HETATM    2  C   UNL     1     -10.703  18.275  67.420  1.00  0.00    -0.350 C  
ENDROOT
BRANCH   2   3
HETATM    3  N   UNL     1     -10.135  16.946  67.725  1.00  0.00    -0.281 N  
HETATM    4  O   UNL     1      -8.186  15.667  68.017  1.00  0.00    -0.141 OA 
HETATM    5  C   UNL     1      -8.821  16.544  67.423  1.00  0.00    -0.191 C  
BRANCH   3   6
HETATM    6  C   UNL     1     -10.956  16.069  68.589  1.00  0.00    -0.323 A  
HETATM    7  C   UNL     1     -11.142  16.460  69.935  1.00  0.00    -0.313 A  
HETATM    8  C   UNL     1     -11.561  14.223  66.825  1.00  0.00    -0.407 C  
HETATM    9  C   UNL     1     -11.535  14.820  68.208  1.00  0.00    -0.338 A  
HETATM   10  C   UNL     1     -11.853  15.688  70.865  1.00  0.00    -0.428 A  
HETATM   11  C   UNL     1     -12.394  14.477  70.487  1.00  0.00    -0.403 A  
HETATM   12  C   UNL     1     -12.235  14.049  69.175  1.00  0.00    -0.299 A  
ENDBRANCH   3   6
BRANCH   5  13
HETATM   13  C   UNL     1      -8.136  17.184  66.271  1.00  0.00    -0.325 C  
HETATM   14  C   UNL     1      -7.142  18.066  66.475  1.00  0.00    -0.263 C  
HETATM   15  C   UNL     1      -6.401  18.765  65.380  1.00  0.00    -0.322 C  
ENDBRANCH   5  13
ENDBRANCH   2   3
TORSDOF 3
ENDMDL
MODEL       47
REMARK 921   NORMALIZED FREE ENERGY PREDICTED BY IDOCK:   -4.20 KCAL/MOL
REMARK 922        TOTAL FREE ENERGY PREDICTED BY IDOCK:   -5.49 KCAL/MOL
REMARK 923 INTER-LIGAND FREE ENERGY PREDICTED BY IDOCK:   -4.88 KCAL/MOL
REMARK 924 INTRA-LIGAND FREE ENERGY PREDICTED BY IDOCK:   -0.61 KCAL/MOL
REMARK 927      BINDING AFFINITY PREDICTED BY RF-SCORE:    0.00 PKD
ROOT
HETATM    1  C   UNL     1     -10.400  16.778  66.943  1.00  0.00    -0.294 C  
HETATM    2  C   UNL     1      -9.853  15.669  67.833  1.00  0.00    -0.217 C  
ENDROOT
BRANCH   2   3
HETATM    3  N   UNL     1     -10.631  14.484  68.246  1.00  0.00    -0.236 N  
HETATM    4  O   UNL     1     -12.488  13.673  69.436  1.00  0.00    -0.233 OA 
HETATM    5  C   UNL     1     -11.532  14.447  69.326  1.00  0.00    -0.285 C  
BRANCH   3   6
HETATM    6  C   UNL     1     -10.600  13.329  67.320  1.00  0.00    -0.247 A  
HETATM    7  C   UNL     1      -9.608  12.344  67.531  1.00  0.00    -0.185 A  
HETATM    8  C   UNL     1     -12.628  13.988  65.791  1.00  0.00    -0.512 C  
HETATM    9  C   UNL     1     -11.445  13.140  66.184  1.00  0.00    -0.366 A  
HETATM   10  C   UNL     1      -9.442  11.233  66.693  1.00  0.00    -0.204 A  
HETATM   11  C   UNL     1     -10.255  11.072  65.591  1.00  0.00    -0.318 A  
HETATM   12  C   UNL     1     -11.243  12.016  65.341  1.00  0.00    -0.374 A  
ENDBRANCH   3   6
BRANCH   5  13
HETATM   13  C   UNL     1     -11.310  15.381  70.460  1.00  0.00    -0.351 C  
HETATM   14  C   UNL     1     -12.103  15.335  71.544  1.00  0.00    -0.424 C  
HETATM   15  C   UNL     1     -11.960  16.238  72.728  1.00  0.00    -0.636 C  
ENDBRANCH   5  13
ENDBRANCH   2   3
TORSDOF 3
ENDMDL
MODEL       48
REMARK 921   NORMALIZED FREE ENERGY PREDICTED BY IDOCK:   -4.19 KCAL/MOL
REMARK 922        TOTAL FREE ENERGY PREDICTED BY IDOCK:   -5.48 KCAL/MOL
REMARK 923 INTER-LIGAND FREE ENERGY PREDICTED BY IDOCK:   -4.92 KCAL/MOL
REMARK 924 INTRA-LIGAND FREE ENERGY PREDICTED BY IDOCK:   -0.55 KCAL/MOL
REMARK 927      BINDING AFFINITY PREDICTED BY RF-SCORE:    0.00 PKD
ROOT
HETATM    1  C   UNL     1     -14.140   7.497  71.477  1.00  0.00    -0.550 C  
HETATM    2  C   UNL     1     -12.707   7.367  70.977  1.00  0.00    -0.205 C  
ENDROOT
BRANCH   2   3
HETATM    3  N   UNL     1     -11.634   8.332  71.290  1.00  0.00    -0.275 N  
HETATM    4  O   UNL     1      -9.488   8.656  72.191  1.00  0.00    -0.283 OA 
HETATM    5  C   UNL     1     -10.597   8.112  72.215  1.00  0.00    -0.309 C  
BRANCH   3   6
HETATM    6  C   UNL     1     -11.548   9.519  70.408  1.00  0.00    -0.212 A  
HETATM    7  C   UNL     1     -10.781   9.404  69.226  1.00  0.00    -0.228 A  
HETATM    8  C   UNL     1     -13.046  11.161  71.801  1.00  0.00    -0.536 C  
HETATM    9  C   UNL     1     -12.120  10.801  70.669  1.00  0.00    -0.467 A  
HETATM   10  C   UNL     1     -10.580  10.471  68.339  1.00  0.00    -0.230 A  
HETATM   11  C   UNL     1     -11.125  11.708  68.610  1.00  0.00    -0.287 A  
HETATM   12  C   UNL     1     -11.884  11.869  69.763  1.00  0.00    -0.411 A  
ENDBRANCH   3   6
BRANCH   5  13
HETATM   13  C   UNL     1     -10.849   7.185  73.348  1.00  0.00    -0.360 C  
HETATM   14  C   UNL     1     -10.313   5.952  73.350  1.00  0.00    -0.246 C  
HETATM   15  C   UNL     1     -10.517   4.949  74.440  1.00  0.00    -0.325 C  
ENDBRANCH   5  13
ENDBRANCH   2   3
TORSDOF 3
ENDMDL
MODEL       49
REMARK 921   NORMALIZED FREE ENERGY PREDICTED BY IDOCK:   -4.18 KCAL/MOL
REMARK 922        TOTAL FREE ENERGY PREDICTED BY IDOCK:   -5.46 KCAL/MOL
REMARK 923 INTER-LIGAND FREE ENERGY PREDICTED BY IDOCK:   -4.91 KCAL/MOL
REMARK 924 INTRA-LIGAND FREE ENERGY PREDICTED BY IDOCK:   -0.55 KCAL/MOL
REMARK 927      BINDING AFFINITY PREDICTED BY RF-SCORE:    0.00 PKD
ROOT
HETATM    1  C   UNL     1     -12.095  12.570  64.072  1.00  0.00    -0.557 C  
HETATM    2  C   UNL     1     -12.372  12.592  65.569  1.00  0.00    -0.391 C  
ENDROOT
BRANCH   2   3
HETATM    3  N   UNL     1     -11.319  12.673  66.601  1.00  0.00    -0.308 N  
HETATM    4  O   UNL     1      -9.180  11.976  67.279  1.00  0.00    -0.174 OA 
HETATM    5  C   UNL     1     -10.277  11.741  66.764  1.00  0.00    -0.211 C  
BRANCH   3   6
HETATM    6  C   UNL     1     -11.258  13.935  67.372  1.00  0.00    -0.312 A  
HETATM    7  C   UNL     1     -11.884  13.962  68.639  1.00  0.00    -0.407 A  
HETATM    8  C   UNL     1      -9.873  15.375  65.670  1.00  0.00    -0.387 C  
HETATM    9  C   UNL     1     -10.673  15.161  66.930  1.00  0.00    -0.308 A  
HETATM   10  C   UNL     1     -11.939  15.112  69.440  1.00  0.00    -0.337 A  
HETATM   11  C   UNL     1     -11.384  16.292  68.994  1.00  0.00    -0.301 A  
HETATM   12  C   UNL     1     -10.760  16.315  67.753  1.00  0.00    -0.325 A  
ENDBRANCH   3   6
BRANCH   5  13
HETATM   13  C   UNL     1     -10.509  10.341  66.323  1.00  0.00    -0.214 C  
HETATM   14  C   UNL     1     -10.214   9.314  67.139  1.00  0.00    -0.324 C  
HETATM   15  C   UNL     1     -10.406   7.875  66.780  1.00  0.00    -0.357 C  
ENDBRANCH   5  13
ENDBRANCH   2   3
TORSDOF 3
ENDMDL
MODEL       50
REMARK 921   NORMALIZED FREE ENERGY PREDICTED BY IDOCK:   -4.17 KCAL/MOL
REMARK 922        TOTAL FREE ENERGY PREDICTED BY IDOCK:   -5.45 KCAL/MOL
REMARK 923 INTER-LIGAND FREE ENERGY PREDICTED BY IDOCK:   -4.98 KCAL/MOL
REMARK 924 INTRA-LIGAND FREE ENERGY PREDICTED BY IDOCK:   -0.47 KCAL/MOL
REMARK 927      BINDING AFFINITY PREDICTED BY RF-SCORE:    0.00 PKD
ROOT
HETATM    1  C   UNL     1     -12.214  14.501  64.267  1.00  0.00    -0.441 C  
HETATM    2  C   UNL     1     -10.842  14.741  64.884  1.00  0.00    -0.416 C  
ENDROOT
BRANCH   2   3
HETATM    3  N   UNL     1     -10.604  14.884  66.335  1.00  0.00    -0.299 N  
HETATM    4  O   UNL     1     -10.893  16.218  68.248  1.00  0.00    -0.310 OA 
HETATM    5  C   UNL     1     -10.650  16.099  67.043  1.00  0.00    -0.292 C  
BRANCH   3   6
HETATM    6  C   UNL     1     -10.518  13.625  67.108  1.00  0.00    -0.264 A  
HETATM    7  C   UNL     1     -11.727  12.968  67.433  1.00  0.00    -0.427 A  
HETATM    8  C   UNL     1      -7.908  13.479  67.342  1.00  0.00    -0.157 C  
HETATM    9  C   UNL     1      -9.322  13.033  67.617  1.00  0.00    -0.202 A  
HETATM   10  C   UNL     1     -11.779  11.799  68.205  1.00  0.00    -0.377 A  
HETATM   11  C   UNL     1     -10.618  11.248  68.703  1.00  0.00    -0.231 A  
HETATM   12  C   UNL     1      -9.405  11.859  68.413  1.00  0.00    -0.184 A  
ENDBRANCH   3   6
BRANCH   5  13
HETATM   13  C   UNL     1     -10.342  17.353  66.309  1.00  0.00    -0.330 C  
HETATM   14  C   UNL     1     -10.464  18.546  66.918  1.00  0.00    -0.434 C  
HETATM   15  C   UNL     1     -10.184  19.858  66.259  1.00  0.00    -0.614 C  
ENDBRANCH   5  13
ENDBRANCH   2   3
TORSDOF 3
ENDMDL
MODEL       51
REMARK 921   NORMALIZED FREE ENERGY PREDICTED BY IDOCK:   -4.17 KCAL/MOL
REMARK 922        TOTAL FREE ENERGY PREDICTED BY IDOCK:   -5.45 KCAL/MOL
REMARK 923 INTER-LIGAND FREE ENERGY PREDICTED BY IDOCK:   -5.07 KCAL/MOL
REMARK 924 INTRA-LIGAND FREE ENERGY PREDICTED BY IDOCK:   -0.38 KCAL/MOL
REMARK 927      BINDING AFFINITY PREDICTED BY RF-SCORE:    0.00 PKD
ROOT
HETATM    1  C   UNL     1     -14.168   8.950  72.449  1.00  0.00    -0.452 C  
HETATM    2  C   UNL     1     -13.278   9.066  71.218  1.00  0.00    -0.210 C  
ENDROOT
BRANCH   2   3
HETATM    3  N   UNL     1     -11.984   9.776  71.200  1.00  0.00    -0.347 N  
HETATM    4  O   UNL     1      -9.642   9.589  71.264  1.00  0.00    -0.201 OA 
HETATM    5  C   UNL     1     -10.763   9.238  71.647  1.00  0.00    -0.323 C  
BRANCH   3   6
HETATM    6  C   UNL     1     -11.957  11.063  70.469  1.00  0.00    -0.379 A  
HETATM    7  C   UNL     1     -12.331  12.229  71.176  1.00  0.00    -0.251 A  
HETATM    8  C   UNL     1     -11.132  10.181  68.139  1.00  0.00    -0.290 C  
HETATM    9  C   UNL     1     -11.643  11.236  69.086  1.00  0.00    -0.387 A  
HETATM   10  C   UNL     1     -12.396  13.497  70.580  1.00  0.00    -0.432 A  
HETATM   11  C   UNL     1     -12.106  13.646  69.241  1.00  0.00    -0.360 A  
HETATM   12  C   UNL     1     -11.736  12.528  68.504  1.00  0.00    -0.369 A  
ENDBRANCH   3   6
BRANCH   5  13
HETATM   13  C   UNL     1     -10.799   8.187  72.697  1.00  0.00    -0.429 C  
HETATM   14  C   UNL     1      -9.658   7.728  73.239  1.00  0.00    -0.346 C  
HETATM   15  C   UNL     1      -9.595   6.669  74.292  1.00  0.00    -0.296 C  
ENDBRANCH   5  13
ENDBRANCH   2   3
TORSDOF 3
ENDMDL
MODEL       52
REMARK 921   NORMALIZED FREE ENERGY PREDICTED BY IDOCK:   -4.14 KCAL/MOL
REMARK 922        TOTAL FREE ENERGY PREDICTED BY IDOCK:   -5.42 KCAL/MOL
REMARK 923 INTER-LIGAND FREE ENERGY PREDICTED BY IDOCK:   -5.67 KCAL/MOL
REMARK 924 INTRA-LIGAND FREE ENERGY PREDICTED BY IDOCK:    0.25 KCAL/MOL
REMARK 927      BINDING AFFINITY PREDICTED BY RF-SCORE:    0.00 PKD
ROOT
HETATM    1  C   UNL     1      -9.423   9.357  70.650  1.00  0.00    -0.325 C  
HETATM    2  C   UNL     1     -10.702   9.422  69.825  1.00  0.00    -0.234 C  
ENDROOT
BRANCH   2   3
HETATM    3  N   UNL     1     -11.225  10.659  69.211  1.00  0.00    -0.253 N  
HETATM    4  O   UNL     1     -11.999  11.702  67.252  1.00  0.00    -0.627 OA 
HETATM    5  C   UNL     1     -11.219  10.940  67.832  1.00  0.00    -0.321 C  
BRANCH   3   6
HETATM    6  C   UNL     1     -11.990  11.557  70.106  1.00  0.00    -0.369 A  
HETATM    7  C   UNL     1     -11.827  12.951  69.934  1.00  0.00    -0.373 A  
HETATM    8  C   UNL     1     -13.250   9.738  71.515  1.00  0.00    -0.493 C  
HETATM    9  C   UNL     1     -12.840  11.148  71.178  1.00  0.00    -0.473 A  
HETATM   10  C   UNL     1     -12.454  13.901  70.752  1.00  0.00    -0.445 A  
HETATM   11  C   UNL     1     -13.260  13.492  71.793  1.00  0.00    -0.490 A  
HETATM   12  C   UNL     1     -13.448  12.132  72.003  1.00  0.00    -0.388 A  
ENDBRANCH   3   6
BRANCH   5  13
HETATM   13  C   UNL     1     -10.169  10.311  66.991  1.00  0.00    -0.282 C  
HETATM   14  C   UNL     1     -10.166  10.491  65.658  1.00  0.00    -0.315 C  
HETATM   15  C   UNL     1      -9.156   9.893  64.732  1.00  0.00    -0.283 C  
ENDBRANCH   5  13
ENDBRANCH   2   3
TORSDOF 3
ENDMDL
MODEL       53
REMARK 921   NORMALIZED FREE ENERGY PREDICTED BY IDOCK:   -4.14 KCAL/MOL
REMARK 922        TOTAL FREE ENERGY PREDICTED BY IDOCK:   -5.42 KCAL/MOL
REMARK 923 INTER-LIGAND FREE ENERGY PREDICTED BY IDOCK:   -4.79 KCAL/MOL
REMARK 924 INTRA-LIGAND FREE ENERGY PREDICTED BY IDOCK:   -0.62 KCAL/MOL
REMARK 927      BINDING AFFINITY PREDICTED BY RF-SCORE:    0.00 PKD
ROOT
HETATM    1  C   UNL     1      -8.953  14.221  68.758  1.00  0.00    -0.097 C  
HETATM    2  C   UNL     1     -10.429  14.015  69.071  1.00  0.00    -0.156 C  
ENDROOT
BRANCH   2   3
HETATM    3  N   UNL     1     -11.223  12.868  68.586  1.00  0.00    -0.263 N  
HETATM    4  O   UNL     1     -12.026  11.686  66.721  1.00  0.00    -0.536 OA 
HETATM    5  C   UNL     1     -11.760  12.749  67.291  1.00  0.00    -0.378 C  
BRANCH   3   6
HETATM    6  C   UNL     1     -11.267  11.685  69.475  1.00  0.00    -0.213 A  
HETATM    7  C   UNL     1     -12.275  11.643  70.465  1.00  0.00    -0.451 A  
HETATM    8  C   UNL     1      -9.240  10.355  68.470  1.00  0.00    -0.145 C  
HETATM    9  C   UNL     1     -10.342  10.596  69.469  1.00  0.00    -0.214 A  
HETATM   10  C   UNL     1     -12.388  10.603  71.399  1.00  0.00    -0.455 A  
HETATM   11  C   UNL     1     -11.479   9.567  71.392  1.00  0.00    -0.462 A  
HETATM   12  C   UNL     1     -10.468   9.566  70.439  1.00  0.00    -0.336 A  
ENDBRANCH   3   6
BRANCH   5  13
HETATM   13  C   UNL     1     -12.081  13.993  66.545  1.00  0.00    -0.488 C  
HETATM   14  C   UNL     1     -11.619  14.175  65.296  1.00  0.00    -0.341 C  
HETATM   15  C   UNL     1     -11.883  15.395  64.472  1.00  0.00    -0.257 C  
ENDBRANCH   5  13
ENDBRANCH   2   3
TORSDOF 3
ENDMDL
MODEL       54
REMARK 921   NORMALIZED FREE ENERGY PREDICTED BY IDOCK:   -4.13 KCAL/MOL
REMARK 922        TOTAL FREE ENERGY PREDICTED BY IDOCK:   -5.41 KCAL/MOL
REMARK 923 INTER-LIGAND FREE ENERGY PREDICTED BY IDOCK:   -4.83 KCAL/MOL
REMARK 924 INTRA-LIGAND FREE ENERGY PREDICTED BY IDOCK:   -0.58 KCAL/MOL
REMARK 927      BINDING AFFINITY PREDICTED BY RF-SCORE:    0.00 PKD
ROOT
HETATM    1  C   UNL     1      -8.832   7.429  73.688  1.00  0.00    -0.244 C  
HETATM    2  C   UNL     1     -10.021   7.973  72.908  1.00  0.00    -0.290 C  
ENDROOT
BRANCH   2   3
HETATM    3  N   UNL     1     -11.112   7.133  72.374  1.00  0.00    -0.253 N  
HETATM    4  O   UNL     1     -13.004   7.023  70.985  1.00  0.00    -0.326 OA 
HETATM    5  C   UNL     1     -12.302   7.623  71.806  1.00  0.00    -0.319 C  
BRANCH   3   6
HETATM    6  C   UNL     1     -10.820   5.686  72.253  1.00  0.00    -0.242 A  
HETATM    7  C   UNL     1     -11.194   4.848  73.328  1.00  0.00    -0.423 A  
HETATM    8  C   UNL     1      -9.715   5.701  69.873  1.00  0.00    -0.222 C  
HETATM    9  C   UNL     1     -10.136   5.056  71.169  1.00  0.00    -0.293 A  
HETATM   10  C   UNL     1     -10.925   3.472  73.355  1.00  0.00    -0.308 A  
HETATM   11  C   UNL     1     -10.250   2.880  72.309  1.00  0.00    -0.180 A  
HETATM   12  C   UNL     1      -9.860   3.664  71.230  1.00  0.00    -0.211 A  
ENDBRANCH   3   6
BRANCH   5  13
HETATM   13  C   UNL     1     -12.798   8.952  72.246  1.00  0.00    -0.475 C  
HETATM   14  C   UNL     1     -12.693  10.020  71.436  1.00  0.00    -0.518 C  
HETATM   15  C   UNL     1     -13.156  11.395  71.795  1.00  0.00    -0.523 C  
ENDBRANCH   5  13
ENDBRANCH   2   3
TORSDOF 3
ENDMDL
MODEL       55
REMARK 921   NORMALIZED FREE ENERGY PREDICTED BY IDOCK:   -4.09 KCAL/MOL
REMARK 922        TOTAL FREE ENERGY PREDICTED BY IDOCK:   -5.36 KCAL/MOL
REMARK 923 INTER-LIGAND FREE ENERGY PREDICTED BY IDOCK:   -4.91 KCAL/MOL
REMARK 924 INTRA-LIGAND FREE ENERGY PREDICTED BY IDOCK:   -0.45 KCAL/MOL
REMARK 927      BINDING AFFINITY PREDICTED BY RF-SCORE:    0.00 PKD
ROOT
HETATM    1  C   UNL     1     -12.380  12.817  63.337  1.00  0.00    -0.531 C  
HETATM    2  C   UNL     1     -12.197  13.207  64.798  1.00  0.00    -0.425 C  
ENDROOT
BRANCH   2   3
HETATM    3  N   UNL     1     -10.953  12.984  65.561  1.00  0.00    -0.272 N  
HETATM    4  O   UNL     1      -9.453  13.831  67.160  1.00  0.00    -0.226 OA 
HETATM    5  C   UNL     1     -10.201  13.993  66.190  1.00  0.00    -0.302 C  
BRANCH   3   6
HETATM    6  C   UNL     1     -10.606  11.572  65.844  1.00  0.00    -0.268 A  
HETATM    7  C   UNL     1     -11.049  11.020  67.067  1.00  0.00    -0.311 A  
HETATM    8  C   UNL     1      -9.292  11.035  63.637  1.00  0.00    -0.257 C  
HETATM    9  C   UNL     1      -9.808  10.723  65.019  1.00  0.00    -0.346 A  
HETATM   10  C   UNL     1     -10.740   9.713  67.472  1.00  0.00    -0.321 A  
HETATM   11  C   UNL     1      -9.955   8.909  66.673  1.00  0.00    -0.346 A  
HETATM   12  C   UNL     1      -9.494   9.410  65.462  1.00  0.00    -0.328 A  
ENDBRANCH   3   6
BRANCH   5  13
HETATM   13  C   UNL     1     -10.263  15.369  65.632  1.00  0.00    -0.403 C  
HETATM   14  C   UNL     1     -10.413  16.427  66.447  1.00  0.00    -0.288 C  
HETATM   15  C   UNL     1     -10.494  17.844  65.978  1.00  0.00    -0.293 C  
ENDBRANCH   5  13
ENDBRANCH   2   3
TORSDOF 3
ENDMDL
MODEL       56
REMARK 921   NORMALIZED FREE ENERGY PREDICTED BY IDOCK:   -4.08 KCAL/MOL
REMARK 922        TOTAL FREE ENERGY PREDICTED BY IDOCK:   -5.35 KCAL/MOL
REMARK 923 INTER-LIGAND FREE ENERGY PREDICTED BY IDOCK:   -4.78 KCAL/MOL
REMARK 924 INTRA-LIGAND FREE ENERGY PREDICTED BY IDOCK:   -0.57 KCAL/MOL
REMARK 927      BINDING AFFINITY PREDICTED BY RF-SCORE:    0.00 PKD
ROOT
HETATM    1  C   UNL     1     -11.547  12.143  69.502  1.00  0.00    -0.382 C  
HETATM    2  C   UNL     1     -11.832  11.536  68.135  1.00  0.00    -0.236 C  
ENDROOT
BRANCH   2   3
HETATM    3  N   UNL     1     -10.899  11.604  66.992  1.00  0.00    -0.252 N  
HETATM    4  O   UNL     1      -9.819  10.427  65.268  1.00  0.00    -0.253 OA 
HETATM    5  C   UNL     1     -10.230  10.501  66.431  1.00  0.00    -0.237 C  
BRANCH   3   6
HETATM    6  C   UNL     1     -10.840  12.898  66.275  1.00  0.00    -0.275 A  
HETATM    7  C   UNL     1      -9.879  13.843  66.703  1.00  0.00    -0.288 A  
HETATM    8  C   UNL     1     -12.749  12.473  64.526  1.00  0.00    -0.440 C  
HETATM    9  C   UNL     1     -11.709  13.314  65.221  1.00  0.00    -0.357 A  
HETATM   10  C   UNL     1      -9.761  15.122  66.140  1.00  0.00    -0.338 A  
HETATM   11  C   UNL     1     -10.617  15.515  65.133  1.00  0.00    -0.455 A  
HETATM   12  C   UNL     1     -11.580  14.622  64.682  1.00  0.00    -0.406 A  
ENDBRANCH   3   6
BRANCH   5  13
HETATM   13  C   UNL     1      -9.946   9.332  67.302  1.00  0.00    -0.264 C  
HETATM   14  C   UNL     1     -10.588   8.166  67.108  1.00  0.00    -0.355 C  
HETATM   15  C   UNL     1     -10.374   6.941  67.938  1.00  0.00    -0.239 C  
ENDBRANCH   5  13
ENDBRANCH   2   3
TORSDOF 3
ENDMDL
MODEL       57
REMARK 921   NORMALIZED FREE ENERGY PREDICTED BY IDOCK:   -4.08 KCAL/MOL
REMARK 922        TOTAL FREE ENERGY PREDICTED BY IDOCK:   -5.35 KCAL/MOL
REMARK 923 INTER-LIGAND FREE ENERGY PREDICTED BY IDOCK:   -4.73 KCAL/MOL
REMARK 924 INTRA-LIGAND FREE ENERGY PREDICTED BY IDOCK:   -0.61 KCAL/MOL
REMARK 927      BINDING AFFINITY PREDICTED BY RF-SCORE:    0.00 PKD
ROOT
HETATM    1  C   UNL     1     -12.173  13.364  65.329  1.00  0.00    -0.478 C  
HETATM    2  C   UNL     1     -12.285  13.875  66.759  1.00  0.00    -0.399 C  
ENDROOT
BRANCH   2   3
HETATM    3  N   UNL     1     -11.193  13.800  67.750  1.00  0.00    -0.278 N  
HETATM    4  O   UNL     1      -9.830  14.976  69.261  1.00  0.00    -0.217 OA 
HETATM    5  C   UNL     1     -10.414  14.892  68.176  1.00  0.00    -0.242 C  
BRANCH   3   6
HETATM    6  C   UNL     1     -11.065  12.520  68.483  1.00  0.00    -0.262 A  
HETATM    7  C   UNL     1     -11.951  12.287  69.559  1.00  0.00    -0.333 A  
HETATM    8  C   UNL     1      -9.087  11.472  67.113  1.00  0.00    -0.167 C  
HETATM    9  C   UNL     1     -10.082  11.511  68.244  1.00  0.00    -0.205 A  
HETATM   10  C   UNL     1     -11.895  11.139  70.362  1.00  0.00    -0.462 A  
HETATM   11  C   UNL     1     -10.931  10.180  70.130  1.00  0.00    -0.376 A  
HETATM   12  C   UNL     1     -10.036  10.367  69.084  1.00  0.00    -0.237 A  
ENDBRANCH   3   6
BRANCH   5  13
HETATM   13  C   UNL     1     -10.230  16.032  67.241  1.00  0.00    -0.277 C  
HETATM   14  C   UNL     1     -10.497  17.288  67.640  1.00  0.00    -0.363 C  
HETATM   15  C   UNL     1     -10.350  18.495  66.769  1.00  0.00    -0.435 C  
ENDBRANCH   5  13
ENDBRANCH   2   3
TORSDOF 3
ENDMDL
MODEL       58
REMARK 921   NORMALIZED FREE ENERGY PREDICTED BY IDOCK:   -4.06 KCAL/MOL
REMARK 922        TOTAL FREE ENERGY PREDICTED BY IDOCK:   -5.33 KCAL/MOL
REMARK 923 INTER-LIGAND FREE ENERGY PREDICTED BY IDOCK:   -4.83 KCAL/MOL
REMARK 924 INTRA-LIGAND FREE ENERGY PREDICTED BY IDOCK:   -0.50 KCAL/MOL
REMARK 927      BINDING AFFINITY PREDICTED BY RF-SCORE:    0.00 PKD
ROOT
HETATM    1  C   UNL     1      -8.201  14.716  68.543  1.00  0.00    -0.152 C  
HETATM    2  C   UNL     1      -8.997  15.440  69.620  1.00  0.00    -0.156 C  
ENDROOT
BRANCH   2   3
HETATM    3  N   UNL     1     -10.419  15.814  69.483  1.00  0.00    -0.248 N  
HETATM    4  O   UNL     1     -12.128  16.538  68.040  1.00  0.00     0.453 OA 
HETATM    5  C   UNL     1     -10.955  16.574  68.426  1.00  0.00    -0.348 C  
BRANCH   3   6
HETATM    6  C   UNL     1     -11.359  15.161  70.423  1.00  0.00    -0.290 A  
HETATM    7  C   UNL     1     -11.684  15.850  71.613  1.00  0.00    -0.563 A  
HETATM    8  C   UNL     1     -11.814  12.962  69.066  1.00  0.00    -0.352 C  
HETATM    9  C   UNL     1     -11.928  13.860  70.271  1.00  0.00    -0.401 A  
HETATM   10  C   UNL     1     -12.518  15.314  72.604  1.00  0.00    -0.473 A  
HETATM   11  C   UNL     1     -13.048  14.051  72.451  1.00  0.00    -0.536 A  
HETATM   12  C   UNL     1     -12.754  13.333  71.299  1.00  0.00    -0.411 A  
ENDBRANCH   3   6
BRANCH   5  13
HETATM   13  C   UNL     1     -10.064  17.537  67.730  1.00  0.00    -0.330 C  
HETATM   14  C   UNL     1     -10.538  18.724  67.314  1.00  0.00    -0.504 C  
HETATM   15  C   UNL     1      -9.720  19.752  66.599  1.00  0.00    -0.519 C  
ENDBRANCH   5  13
ENDBRANCH   2   3
TORSDOF 3
ENDMDL
MODEL       59
REMARK 921   NORMALIZED FREE ENERGY PREDICTED BY IDOCK:   -4.06 KCAL/MOL
REMARK 922        TOTAL FREE ENERGY PREDICTED BY IDOCK:   -5.33 KCAL/MOL
REMARK 923 INTER-LIGAND FREE ENERGY PREDICTED BY IDOCK:   -4.90 KCAL/MOL
REMARK 924 INTRA-LIGAND FREE ENERGY PREDICTED BY IDOCK:   -0.43 KCAL/MOL
REMARK 927      BINDING AFFINITY PREDICTED BY RF-SCORE:    0.00 PKD
ROOT
HETATM    1  C   UNL     1     -10.584   9.743  67.898  1.00  0.00    -0.310 C  
HETATM    2  C   UNL     1     -10.351  10.003  69.380  1.00  0.00    -0.227 C  
ENDROOT
BRANCH   2   3
HETATM    3  N   UNL     1     -11.085   9.318  70.463  1.00  0.00    -0.252 N  
HETATM    4  O   UNL     1     -13.099   9.143  71.662  1.00  0.00    -0.332 OA 
HETATM    5  C   UNL     1     -12.232   9.823  71.103  1.00  0.00    -0.362 C  
BRANCH   3   6
HETATM    6  C   UNL     1     -10.691   7.917  70.733  1.00  0.00    -0.223 A  
HETATM    7  C   UNL     1     -11.124   6.925  69.823  1.00  0.00    -0.316 A  
HETATM    8  C   UNL     1      -9.312   8.307  72.931  1.00  0.00    -0.324 C  
HETATM    9  C   UNL     1      -9.959   7.455  71.869  1.00  0.00    -0.196 A  
HETATM   10  C   UNL     1     -10.860   5.559  69.998  1.00  0.00    -0.301 A  
HETATM   11  C   UNL     1     -10.166   5.126  71.108  1.00  0.00    -0.291 A  
HETATM   12  C   UNL     1      -9.722   6.064  72.032  1.00  0.00    -0.174 A  
ENDBRANCH   3   6
BRANCH   5  13
HETATM   13  C   UNL     1     -12.415  11.296  71.161  1.00  0.00    -0.479 C  
HETATM   14  C   UNL     1     -13.264  11.842  72.049  1.00  0.00    -0.460 C  
HETATM   15  C   UNL     1     -13.519  13.310  72.175  1.00  0.00    -0.655 C  
ENDBRANCH   5  13
ENDBRANCH   2   3
TORSDOF 3
ENDMDL
MODEL       60
REMARK 921   NORMALIZED FREE ENERGY PREDICTED BY IDOCK:   -4.06 KCAL/MOL
REMARK 922        TOTAL FREE ENERGY PREDICTED BY IDOCK:   -5.32 KCAL/MOL
REMARK 923 INTER-LIGAND FREE ENERGY PREDICTED BY IDOCK:   -4.96 KCAL/MOL
REMARK 924 INTRA-LIGAND FREE ENERGY PREDICTED BY IDOCK:   -0.37 KCAL/MOL
REMARK 927      BINDING AFFINITY PREDICTED BY RF-SCORE:    0.00 PKD
ROOT
HETATM    1  C   UNL     1     -11.620  14.447  65.341  1.00  0.00    -0.347 C  
HETATM    2  C   UNL     1     -12.253  13.853  66.592  1.00  0.00    -0.424 C  
ENDROOT
BRANCH   2   3
HETATM    3  N   UNL     1     -11.482  13.319  67.732  1.00  0.00    -0.298 N  
HETATM    4  O   UNL     1      -9.578  12.129  68.428  1.00  0.00    -0.209 OA 
HETATM    5  C   UNL     1     -10.519  12.296  67.646  1.00  0.00    -0.214 C  
BRANCH   3   6
HETATM    6  C   UNL     1     -11.597  14.067  69.005  1.00  0.00    -0.306 A  
HETATM    7  C   UNL     1     -11.303  15.449  68.983  1.00  0.00    -0.324 A  
HETATM    8  C   UNL     1     -12.360  12.095  70.559  1.00  0.00    -0.358 C  
HETATM    9  C   UNL     1     -11.922  13.509  70.279  1.00  0.00    -0.386 A  
HETATM   10  C   UNL     1     -11.325  16.254  70.132  1.00  0.00    -0.292 A  
HETATM   11  C   UNL     1     -11.625  15.699  71.358  1.00  0.00    -0.499 A  
HETATM   12  C   UNL     1     -11.919  14.343  71.429  1.00  0.00    -0.337 A  
ENDBRANCH   3   6
BRANCH   5  13
HETATM   13  C   UNL     1     -10.650  11.296  66.555  1.00  0.00    -0.315 C  
HETATM   14  C   UNL     1      -9.724  11.223  65.584  1.00  0.00    -0.267 C  
HETATM   15  C   UNL     1      -9.776  10.256  64.444  1.00  0.00    -0.381 C  
ENDBRANCH   5  13
ENDBRANCH   2   3
TORSDOF 3
ENDMDL
MODEL       61
REMARK 921   NORMALIZED FREE ENERGY PREDICTED BY IDOCK:   -4.03 KCAL/MOL
REMARK 922        TOTAL FREE ENERGY PREDICTED BY IDOCK:   -5.30 KCAL/MOL
REMARK 923 INTER-LIGAND FREE ENERGY PREDICTED BY IDOCK:   -5.02 KCAL/MOL
REMARK 924 INTRA-LIGAND FREE ENERGY PREDICTED BY IDOCK:   -0.28 KCAL/MOL
REMARK 927      BINDING AFFINITY PREDICTED BY RF-SCORE:    0.00 PKD
ROOT
HETATM    1  C   UNL     1     -11.599  16.013  70.338  1.00  0.00    -0.364 C  
HETATM    2  C   UNL     1     -10.241  16.208  69.677  1.00  0.00    -0.243 C  
ENDROOT
BRANCH   2   3
HETATM    3  N   UNL     1     -10.054  16.442  68.231  1.00  0.00    -0.240 N  
HETATM    4  O   UNL     1     -10.698  15.854  66.049  1.00  0.00    -0.320 OA 
HETATM    5  C   UNL     1     -10.429  15.545  67.214  1.00  0.00    -0.279 C  
BRANCH   3   6
HETATM    6  C   UNL     1      -9.631  17.806  67.841  1.00  0.00    -0.280 A  
HETATM    7  C   UNL     1     -10.610  18.667  67.294  1.00  0.00    -0.480 A  
HETATM    8  C   UNL     1      -7.103  17.651  68.527  1.00  0.00    -0.239 C  
HETATM    9  C   UNL     1      -8.301  18.324  67.909  1.00  0.00    -0.259 A  
HETATM   10  C   UNL     1     -10.322  19.961  66.839  1.00  0.00    -0.596 A  
HETATM   11  C   UNL     1      -9.031  20.442  66.895  1.00  0.00    -0.383 A  
HETATM   12  C   UNL     1      -8.034  19.632  67.423  1.00  0.00    -0.313 A  
ENDBRANCH   3   6
BRANCH   5  13
HETATM   13  C   UNL     1     -10.471  14.095  67.534  1.00  0.00    -0.249 C  
HETATM   14  C   UNL     1     -11.644  13.440  67.573  1.00  0.00    -0.382 C  
HETATM   15  C   UNL     1     -11.785  11.986  67.893  1.00  0.00    -0.393 C  
ENDBRANCH   5  13
ENDBRANCH   2   3
TORSDOF 3
ENDMDL
MODEL       62
REMARK 921   NORMALIZED FREE ENERGY PREDICTED BY IDOCK:   -4.02 KCAL/MOL
REMARK 922        TOTAL FREE ENERGY PREDICTED BY IDOCK:   -5.28 KCAL/MOL
REMARK 923 INTER-LIGAND FREE ENERGY PREDICTED BY IDOCK:   -4.90 KCAL/MOL
REMARK 924 INTRA-LIGAND FREE ENERGY PREDICTED BY IDOCK:   -0.38 KCAL/MOL
REMARK 927      BINDING AFFINITY PREDICTED BY RF-SCORE:    0.00 PKD
ROOT
HETATM    1  C   UNL     1      -7.400  15.603  68.716  1.00  0.00    -0.144 C  
HETATM    2  C   UNL     1      -8.810  16.106  68.995  1.00  0.00    -0.251 C  
ENDROOT
BRANCH   2   3
HETATM    3  N   UNL     1     -10.015  15.614  68.298  1.00  0.00    -0.212 N  
HETATM    4  O   UNL     1     -11.125  15.361  66.242  1.00  0.00    -0.311 OA 
HETATM    5  C   UNL     1     -10.428  16.024  67.016  1.00  0.00    -0.307 C  
BRANCH   3   6
HETATM    6  C   UNL     1     -10.705  14.462  68.921  1.00  0.00    -0.253 A  
HETATM    7  C   UNL     1     -10.402  13.171  68.433  1.00  0.00    -0.257 A  
HETATM    8  C   UNL     1     -12.142  15.767  70.687  1.00  0.00    -0.424 C  
HETATM    9  C   UNL     1     -11.704  14.534  69.940  1.00  0.00    -0.354 A  
HETATM   10  C   UNL     1     -11.027  12.008  68.905  1.00  0.00    -0.277 A  
HETATM   11  C   UNL     1     -12.001  12.093  69.877  1.00  0.00    -0.380 A  
HETATM   12  C   UNL     1     -12.335  13.342  70.386  1.00  0.00    -0.382 A  
ENDBRANCH   3   6
BRANCH   5  13
HETATM   13  C   UNL     1     -10.038  17.380  66.551  1.00  0.00    -0.320 C  
HETATM   14  C   UNL     1     -10.636  18.471  67.060  1.00  0.00    -0.421 C  
HETATM   15  C   UNL     1     -10.317  19.873  66.648  1.00  0.00    -0.608 C  
ENDBRANCH   5  13
ENDBRANCH   2   3
TORSDOF 3
ENDMDL
MODEL       63
REMARK 921   NORMALIZED FREE ENERGY PREDICTED BY IDOCK:   -4.02 KCAL/MOL
REMARK 922        TOTAL FREE ENERGY PREDICTED BY IDOCK:   -5.28 KCAL/MOL
REMARK 923 INTER-LIGAND FREE ENERGY PREDICTED BY IDOCK:   -4.77 KCAL/MOL
REMARK 924 INTRA-LIGAND FREE ENERGY PREDICTED BY IDOCK:   -0.51 KCAL/MOL
REMARK 927      BINDING AFFINITY PREDICTED BY RF-SCORE:    0.00 PKD
ROOT
HETATM    1  C   UNL     1     -10.612  19.644  66.575  1.00  0.00    -0.591 C  
HETATM    2  C   UNL     1     -10.241  19.366  68.026  1.00  0.00    -0.423 C  
ENDROOT
BRANCH   2   3
HETATM    3  N   UNL     1      -9.201  18.404  68.442  1.00  0.00    -0.314 N  
HETATM    4  O   UNL     1      -8.588  16.145  68.649  1.00  0.00    -0.187 OA 
HETATM    5  C   UNL     1      -9.429  17.046  68.732  1.00  0.00    -0.263 C  
BRANCH   3   6
HETATM    6  C   UNL     1      -7.801  18.874  68.341  1.00  0.00    -0.325 A  
HETATM    7  C   UNL     1      -7.283  19.633  69.415  1.00  0.00    -0.280 A  
HETATM    8  C   UNL     1      -7.203  17.846  66.002  1.00  0.00    -0.325 C  
HETATM    9  C   UNL     1      -6.931  18.685  67.224  1.00  0.00    -0.209 A  
HETATM   10  C   UNL     1      -5.991  20.178  69.414  1.00  0.00    -0.359 A  
HETATM   11  C   UNL     1      -5.167  20.001  68.322  1.00  0.00    -0.213 A  
HETATM   12  C   UNL     1      -5.634  19.264  67.241  1.00  0.00    -0.171 A  
ENDBRANCH   3   6
BRANCH   5  13
HETATM   13  C   UNL     1     -10.774  16.646  69.219  1.00  0.00    -0.337 C  
HETATM   14  C   UNL     1     -10.899  15.740  70.204  1.00  0.00    -0.360 C  
HETATM   15  C   UNL     1     -12.208  15.271  70.753  1.00  0.00    -0.411 C  
ENDBRANCH   5  13
ENDBRANCH   2   3
TORSDOF 3
ENDMDL
MODEL       64
REMARK 921   NORMALIZED FREE ENERGY PREDICTED BY IDOCK:   -3.98 KCAL/MOL
REMARK 922        TOTAL FREE ENERGY PREDICTED BY IDOCK:   -5.23 KCAL/MOL
REMARK 923 INTER-LIGAND FREE ENERGY PREDICTED BY IDOCK:   -4.65 KCAL/MOL
REMARK 924 INTRA-LIGAND FREE ENERGY PREDICTED BY IDOCK:   -0.58 KCAL/MOL
REMARK 927      BINDING AFFINITY PREDICTED BY RF-SCORE:    0.00 PKD
ROOT
HETATM    1  C   UNL     1      -8.417  10.000  63.505  1.00  0.00    -0.187 C  
HETATM    2  C   UNL     1      -8.597  10.364  64.973  1.00  0.00    -0.181 C  
ENDROOT
BRANCH   2   3
HETATM    3  N   UNL     1      -9.903  10.657  65.597  1.00  0.00    -0.236 N  
HETATM    4  O   UNL     1     -11.225  10.524  67.535  1.00  0.00    -0.320 OA 
HETATM    5  C   UNL     1     -10.399  10.035  66.758  1.00  0.00    -0.217 C  
BRANCH   3   6
HETATM    6  C   UNL     1     -10.630  11.832  65.065  1.00  0.00    -0.288 A  
HETATM    7  C   UNL     1     -11.571  11.611  64.034  1.00  0.00    -0.371 A  
HETATM    8  C   UNL     1      -9.555  13.684  66.582  1.00  0.00    -0.289 C  
HETATM    9  C   UNL     1     -10.427  13.191  65.456  1.00  0.00    -0.297 A  
HETATM   10  C   UNL     1     -12.283  12.648  63.414  1.00  0.00    -0.610 A  
HETATM   11  C   UNL     1     -12.066  13.956  63.790  1.00  0.00    -0.330 A  
HETATM   12  C   UNL     1     -11.147  14.223  64.797  1.00  0.00    -0.398 A  
ENDBRANCH   3   6
BRANCH   5  13
HETATM   13  C   UNL     1      -9.937   8.659  67.072  1.00  0.00    -0.317 C  
HETATM   14  C   UNL     1     -10.783   7.619  66.979  1.00  0.00    -0.340 C  
HETATM   15  C   UNL     1     -10.410   6.203  67.282  1.00  0.00    -0.272 C  
ENDBRANCH   5  13
ENDBRANCH   2   3
TORSDOF 3
ENDMDL
MODEL       65
REMARK 921   NORMALIZED FREE ENERGY PREDICTED BY IDOCK:   -3.95 KCAL/MOL
REMARK 922        TOTAL FREE ENERGY PREDICTED BY IDOCK:   -5.19 KCAL/MOL
REMARK 923 INTER-LIGAND FREE ENERGY PREDICTED BY IDOCK:   -4.67 KCAL/MOL
REMARK 924 INTRA-LIGAND FREE ENERGY PREDICTED BY IDOCK:   -0.52 KCAL/MOL
REMARK 927      BINDING AFFINITY PREDICTED BY RF-SCORE:    0.00 PKD
ROOT
HETATM    1  C   UNL     1     -10.756   6.410  68.698  1.00  0.00    -0.341 C  
HETATM    2  C   UNL     1     -10.530   7.902  68.491  1.00  0.00    -0.167 C  
ENDROOT
BRANCH   2   3
HETATM    3  N   UNL     1     -10.693   8.916  69.552  1.00  0.00    -0.224 N  
HETATM    4  O   UNL     1     -11.850  10.828  70.278  1.00  0.00    -0.288 OA 
HETATM    5  C   UNL     1     -11.313  10.168  69.383  1.00  0.00    -0.178 C  
BRANCH   3   6
HETATM    6  C   UNL     1     -10.356   8.481  70.927  1.00  0.00    -0.199 A  
HETATM    7  C   UNL     1      -9.042   8.719  71.388  1.00  0.00    -0.313 A  
HETATM    8  C   UNL     1     -12.685   7.484  71.610  1.00  0.00    -0.385 C  
HETATM    9  C   UNL     1     -11.223   7.781  71.821  1.00  0.00    -0.298 A  
HETATM   10  C   UNL     1      -8.587   8.306  72.649  1.00  0.00    -0.264 A  
HETATM   11  C   UNL     1      -9.430   7.618  73.496  1.00  0.00    -0.347 A  
HETATM   12  C   UNL     1     -10.731   7.358  73.084  1.00  0.00    -0.436 A  
ENDBRANCH   3   6
BRANCH   5  13
HETATM   13  C   UNL     1     -11.298  10.784  68.032  1.00  0.00    -0.378 C  
HETATM   14  C   UNL     1     -11.678  12.063  67.863  1.00  0.00    -0.393 C  
HETATM   15  C   UNL     1     -11.702  12.764  66.543  1.00  0.00    -0.463 C  
ENDBRANCH   5  13
ENDBRANCH   2   3
TORSDOF 3
ENDMDL
MODEL       66
REMARK 921   NORMALIZED FREE ENERGY PREDICTED BY IDOCK:   -3.94 KCAL/MOL
REMARK 922        TOTAL FREE ENERGY PREDICTED BY IDOCK:   -5.19 KCAL/MOL
REMARK 923 INTER-LIGAND FREE ENERGY PREDICTED BY IDOCK:   -4.58 KCAL/MOL
REMARK 924 INTRA-LIGAND FREE ENERGY PREDICTED BY IDOCK:   -0.61 KCAL/MOL
REMARK 927      BINDING AFFINITY PREDICTED BY RF-SCORE:    0.00 PKD
ROOT
HETATM    1  C   UNL     1     -10.604   8.078  66.896  1.00  0.00    -0.324 C  
HETATM    2  C   UNL     1      -9.669   9.001  66.127  1.00  0.00    -0.283 C  
ENDROOT
BRANCH   2   3
HETATM    3  N   UNL     1      -9.556  10.453  66.372  1.00  0.00    -0.172 N  
HETATM    4  O   UNL     1      -8.145  12.242  66.948  1.00  0.00    -0.163 OA 
HETATM    5  C   UNL     1      -8.513  11.071  67.087  1.00  0.00    -0.137 C  
BRANCH   3   6
HETATM    6  C   UNL     1     -10.506  11.315  65.633  1.00  0.00    -0.261 A  
HETATM    7  C   UNL     1     -10.476  11.264  64.220  1.00  0.00    -0.419 A  
HETATM    8  C   UNL     1     -11.708  12.432  67.680  1.00  0.00    -0.412 C  
HETATM    9  C   UNL     1     -11.419  12.248  66.212  1.00  0.00    -0.435 A  
HETATM   10  C   UNL     1     -11.288  12.069  63.409  1.00  0.00    -0.484 A  
HETATM   11  C   UNL     1     -12.153  12.977  63.982  1.00  0.00    -0.519 A  
HETATM   12  C   UNL     1     -12.215  13.065  65.367  1.00  0.00    -0.520 A  
ENDBRANCH   3   6
BRANCH   5  13
HETATM   13  C   UNL     1      -7.809  10.281  68.129  1.00  0.00    -0.104 C  
HETATM   14  C   UNL     1      -8.344  10.142  69.355  1.00  0.00    -0.174 C  
HETATM   15  C   UNL     1      -7.707   9.374  70.468  1.00  0.00    -0.177 C  
ENDBRANCH   5  13
ENDBRANCH   2   3
TORSDOF 3
ENDMDL
MODEL       67
REMARK 921   NORMALIZED FREE ENERGY PREDICTED BY IDOCK:   -3.94 KCAL/MOL
REMARK 922        TOTAL FREE ENERGY PREDICTED BY IDOCK:   -5.18 KCAL/MOL
REMARK 923 INTER-LIGAND FREE ENERGY PREDICTED BY IDOCK:   -4.59 KCAL/MOL
REMARK 924 INTRA-LIGAND FREE ENERGY PREDICTED BY IDOCK:   -0.59 KCAL/MOL
REMARK 927      BINDING AFFINITY PREDICTED BY RF-SCORE:    0.00 PKD
ROOT
HETATM    1  C   UNL     1     -11.551  14.964  68.969  1.00  0.00    -0.330 C  
HETATM    2  C   UNL     1     -10.230  15.534  69.470  1.00  0.00    -0.279 C  
ENDROOT
BRANCH   2   3
HETATM    3  N   UNL     1      -9.207  16.138  68.593  1.00  0.00    -0.210 N  
HETATM    4  O   UNL     1      -7.308  15.778  67.257  1.00  0.00    -0.183 OA 
HETATM    5  C   UNL     1      -7.969  15.551  68.275  1.00  0.00    -0.132 C  
BRANCH   3   6
HETATM    6  C   UNL     1      -9.622  17.347  67.845  1.00  0.00    -0.267 A  
HETATM    7  C   UNL     1      -9.478  18.598  68.487  1.00  0.00    -0.386 A  
HETATM    8  C   UNL     1     -10.397  16.193  65.619  1.00  0.00    -0.405 C  
HETATM    9  C   UNL     1     -10.216  17.368  66.546  1.00  0.00    -0.329 A  
HETATM   10  C   UNL     1      -9.883  19.808  67.904  1.00  0.00    -0.522 A  
HETATM   11  C   UNL     1     -10.470  19.811  66.657  1.00  0.00    -0.615 A  
HETATM   12  C   UNL     1     -10.634  18.605  65.988  1.00  0.00    -0.410 A  
ENDBRANCH   3   6
BRANCH   5  13
HETATM   13  C   UNL     1      -7.367  14.606  69.251  1.00  0.00    -0.149 C  
HETATM   14  C   UNL     1      -6.358  15.001  70.047  1.00  0.00    -0.163 C  
HETATM   15  C   UNL     1      -5.686  14.121  71.051  1.00  0.00    -0.215 C  
ENDBRANCH   5  13
ENDBRANCH   2   3
TORSDOF 3
ENDMDL
MODEL       68
REMARK 921   NORMALIZED FREE ENERGY PREDICTED BY IDOCK:   -3.92 KCAL/MOL
REMARK 922        TOTAL FREE ENERGY PREDICTED BY IDOCK:   -5.16 KCAL/MOL
REMARK 923 INTER-LIGAND FREE ENERGY PREDICTED BY IDOCK:   -4.54 KCAL/MOL
REMARK 924 INTRA-LIGAND FREE ENERGY PREDICTED BY IDOCK:   -0.62 KCAL/MOL
REMARK 927      BINDING AFFINITY PREDICTED BY RF-SCORE:    0.00 PKD
ROOT
HETATM    1  C   UNL     1      -7.683  10.313  69.640  1.00  0.00    -0.166 C  
HETATM    2  C   UNL     1      -8.854  10.690  68.743  1.00  0.00    -0.161 C  
ENDROOT
BRANCH   2   3
HETATM    3  N   UNL     1     -10.263  10.374  69.050  1.00  0.00    -0.204 N  
HETATM    4  O   UNL     1     -12.517  10.977  68.761  1.00  0.00    -0.468 OA 
HETATM    5  C   UNL     1     -11.334  11.282  68.945  1.00  0.00    -0.275 C  
BRANCH   3   6
HETATM    6  C   UNL     1     -10.575   8.946  69.283  1.00  0.00    -0.207 A  
HETATM    7  C   UNL     1     -10.514   8.070  68.175  1.00  0.00    -0.222 A  
HETATM    8  C   UNL     1     -11.059   9.059  71.860  1.00  0.00    -0.433 C  
HETATM    9  C   UNL     1     -10.997   8.371  70.521  1.00  0.00    -0.258 A  
HETATM   10  C   UNL     1     -10.838   6.709  68.258  1.00  0.00    -0.322 A  
HETATM   11  C   UNL     1     -11.258   6.170  69.455  1.00  0.00    -0.482 A  
HETATM   12  C   UNL     1     -11.337   6.993  70.572  1.00  0.00    -0.355 A  
ENDBRANCH   3   6
BRANCH   5  13
HETATM   13  C   UNL     1     -11.047  12.730  69.107  1.00  0.00    -0.245 C  
HETATM   14  C   UNL     1     -11.909  13.525  69.766  1.00  0.00    -0.395 C  
HETATM   15  C   UNL     1     -11.709  14.992  69.971  1.00  0.00    -0.345 C  
ENDBRANCH   5  13
ENDBRANCH   2   3
TORSDOF 3
ENDMDL
MODEL       69
REMARK 921   NORMALIZED FREE ENERGY PREDICTED BY IDOCK:   -3.91 KCAL/MOL
REMARK 922        TOTAL FREE ENERGY PREDICTED BY IDOCK:   -5.15 KCAL/MOL
REMARK 923 INTER-LIGAND FREE ENERGY PREDICTED BY IDOCK:   -4.57 KCAL/MOL
REMARK 924 INTRA-LIGAND FREE ENERGY PREDICTED BY IDOCK:   -0.59 KCAL/MOL
REMARK 927      BINDING AFFINITY PREDICTED BY RF-SCORE:    0.00 PKD
ROOT
HETATM    1  C   UNL     1     -11.620  14.937  64.718  1.00  0.00    -0.410 C  
HETATM    2  C   UNL     1     -10.412  15.621  65.345  1.00  0.00    -0.411 C  
ENDROOT
BRANCH   2   3
HETATM    3  N   UNL     1     -10.111  15.601  66.790  1.00  0.00    -0.265 N  
HETATM    4  O   UNL     1     -10.633  16.459  68.915  1.00  0.00    -0.265 OA 
HETATM    5  C   UNL     1     -10.465  16.614  67.701  1.00  0.00    -0.320 C  
BRANCH   3   6
HETATM    6  C   UNL     1      -9.583  14.327  67.328  1.00  0.00    -0.232 A  
HETATM    7  C   UNL     1      -8.180  14.180  67.413  1.00  0.00    -0.207 A  
HETATM    8  C   UNL     1     -11.865  13.122  67.807  1.00  0.00    -0.392 C  
HETATM    9  C   UNL     1     -10.362  13.195  67.718  1.00  0.00    -0.230 A  
HETATM   10  C   UNL     1      -7.560  13.003  67.855  1.00  0.00    -0.144 A  
HETATM   11  C   UNL     1      -8.323  11.912  68.214  1.00  0.00    -0.159 A  
HETATM   12  C   UNL     1      -9.708  12.008  68.144  1.00  0.00    -0.199 A  
ENDBRANCH   3   6
BRANCH   5  13
HETATM   13  C   UNL     1     -10.613  18.001  67.190  1.00  0.00    -0.337 C  
HETATM   14  C   UNL     1      -9.814  18.982  67.644  1.00  0.00    -0.395 C  
HETATM   15  C   UNL     1      -9.894  20.406  67.195  1.00  0.00    -0.601 C  
ENDBRANCH   5  13
ENDBRANCH   2   3
TORSDOF 3
ENDMDL
MODEL       70
REMARK 921   NORMALIZED FREE ENERGY PREDICTED BY IDOCK:   -3.91 KCAL/MOL
REMARK 922        TOTAL FREE ENERGY PREDICTED BY IDOCK:   -5.15 KCAL/MOL
REMARK 923 INTER-LIGAND FREE ENERGY PREDICTED BY IDOCK:   -4.49 KCAL/MOL
REMARK 924 INTRA-LIGAND FREE ENERGY PREDICTED BY IDOCK:   -0.66 KCAL/MOL
REMARK 927      BINDING AFFINITY PREDICTED BY RF-SCORE:    0.00 PKD
ROOT
HETATM    1  C   UNL     1     -10.521  10.030  67.925  1.00  0.00    -0.276 C  
HETATM    2  C   UNL     1     -10.263  10.436  69.370  1.00  0.00    -0.234 C  
ENDROOT
BRANCH   2   3
HETATM    3  N   UNL     1     -10.239   9.487  70.502  1.00  0.00    -0.269 N  
HETATM    4  O   UNL     1      -9.088   8.736  72.408  1.00  0.00    -0.366 OA 
HETATM    5  C   UNL     1      -9.093   9.146  71.243  1.00  0.00    -0.162 C  
BRANCH   3   6
HETATM    6  C   UNL     1     -11.557   9.036  71.002  1.00  0.00    -0.300 A  
HETATM    7  C   UNL     1     -12.382   9.993  71.636  1.00  0.00    -0.486 A  
HETATM    8  C   UNL     1     -11.423   6.520  70.269  1.00  0.00    -0.474 C  
HETATM    9  C   UNL     1     -12.058   7.699  70.961  1.00  0.00    -0.282 A  
HETATM   10  C   UNL     1     -13.628   9.677  72.198  1.00  0.00    -0.471 A  
HETATM   11  C   UNL     1     -14.092   8.380  72.164  1.00  0.00    -0.460 A  
HETATM   12  C   UNL     1     -13.314   7.403  71.554  1.00  0.00    -0.435 A  
ENDBRANCH   3   6
BRANCH   5  13
HETATM   13  C   UNL     1      -7.769   9.237  70.574  1.00  0.00    -0.160 C  
HETATM   14  C   UNL     1      -7.424   8.351  69.624  1.00  0.00    -0.073 C  
HETATM   15  C   UNL     1      -6.114   8.360  68.904  1.00  0.00    -0.044 C  
ENDBRANCH   5  13
ENDBRANCH   2   3
TORSDOF 3
ENDMDL
MODEL       71
REMARK 921   NORMALIZED FREE ENERGY PREDICTED BY IDOCK:   -3.91 KCAL/MOL
REMARK 922        TOTAL FREE ENERGY PREDICTED BY IDOCK:   -5.14 KCAL/MOL
REMARK 923 INTER-LIGAND FREE ENERGY PREDICTED BY IDOCK:   -4.74 KCAL/MOL
REMARK 924 INTRA-LIGAND FREE ENERGY PREDICTED BY IDOCK:   -0.40 KCAL/MOL
REMARK 927      BINDING AFFINITY PREDICTED BY RF-SCORE:    0.00 PKD
ROOT
HETATM    1  C   UNL     1     -10.574   8.934  68.442  1.00  0.00    -0.190 C  
HETATM    2  C   UNL     1     -10.709  10.079  69.438  1.00  0.00    -0.233 C  
ENDROOT
BRANCH   2   3
HETATM    3  N   UNL     1     -11.355   9.950  70.760  1.00  0.00    -0.326 N  
HETATM    4  O   UNL     1     -13.203  10.502  72.102  1.00  0.00    -0.458 OA 
HETATM    5  C   UNL     1     -12.359  10.804  71.253  1.00  0.00    -0.365 C  
BRANCH   3   6
HETATM    6  C   UNL     1     -11.057   8.711  71.513  1.00  0.00    -0.288 A  
HETATM    7  C   UNL     1      -9.824   8.641  72.202  1.00  0.00    -0.387 A  
HETATM    8  C   UNL     1     -13.263   7.389  70.996  1.00  0.00    -0.161 C  
HETATM    9  C   UNL     1     -11.876   7.542  71.564  1.00  0.00    -0.324 A  
HETATM   10  C   UNL     1      -9.404   7.504  72.906  1.00  0.00    -0.232 A  
HETATM   11  C   UNL     1     -10.198   6.377  72.933  1.00  0.00    -0.209 A  
HETATM   12  C   UNL     1     -11.418   6.397  72.268  1.00  0.00    -0.339 A  
ENDBRANCH   3   6
BRANCH   5  13
HETATM   13  C   UNL     1     -12.400  12.203  70.755  1.00  0.00    -0.391 C  
HETATM   14  C   UNL     1     -12.961  13.173  71.497  1.00  0.00    -0.412 C  
HETATM   15  C   UNL     1     -13.056  14.605  71.076  1.00  0.00    -0.427 C  
ENDBRANCH   5  13
ENDBRANCH   2   3
TORSDOF 3
ENDMDL
MODEL       72
REMARK 921   NORMALIZED FREE ENERGY PREDICTED BY IDOCK:   -3.91 KCAL/MOL
REMARK 922        TOTAL FREE ENERGY PREDICTED BY IDOCK:   -5.14 KCAL/MOL
REMARK 923 INTER-LIGAND FREE ENERGY PREDICTED BY IDOCK:   -4.70 KCAL/MOL
REMARK 924 INTRA-LIGAND FREE ENERGY PREDICTED BY IDOCK:   -0.44 KCAL/MOL
REMARK 927      BINDING AFFINITY PREDICTED BY RF-SCORE:    0.00 PKD
ROOT
HETATM    1  C   UNL     1      -9.770  10.280  64.921  1.00  0.00    -0.385 C  
HETATM    2  C   UNL     1      -9.324  10.141  66.370  1.00  0.00    -0.169 C  
ENDROOT
BRANCH   2   3
HETATM    3  N   UNL     1     -10.253   9.998  67.509  1.00  0.00    -0.198 N  
HETATM    4  O   UNL     1     -12.245  10.728  68.519  1.00  0.00    -0.470 OA 
HETATM    5  C   UNL     1     -11.201  10.960  67.901  1.00  0.00    -0.321 C  
BRANCH   3   6
HETATM    6  C   UNL     1     -10.313   8.658  68.137  1.00  0.00    -0.216 A  
HETATM    7  C   UNL     1     -10.676   7.564  67.318  1.00  0.00    -0.365 A  
HETATM    8  C   UNL     1      -9.615   9.330  70.576  1.00  0.00    -0.317 C  
HETATM    9  C   UNL     1     -10.096   8.369  69.519  1.00  0.00    -0.200 A  
HETATM   10  C   UNL     1     -10.819   6.258  67.807  1.00  0.00    -0.424 A  
HETATM   11  C   UNL     1     -10.622   5.996  69.146  1.00  0.00    -0.362 A  
HETATM   12  C   UNL     1     -10.266   7.040  69.990  1.00  0.00    -0.206 A  
ENDBRANCH   3   6
BRANCH   5  13
HETATM   13  C   UNL     1     -10.925  12.387  67.594  1.00  0.00    -0.276 C  
HETATM   14  C   UNL     1     -11.882  13.167  67.062  1.00  0.00    -0.435 C  
HETATM   15  C   UNL     1     -11.694  14.608  66.713  1.00  0.00    -0.355 C  
ENDBRANCH   5  13
ENDBRANCH   2   3
TORSDOF 3
ENDMDL
MODEL       73
REMARK 921   NORMALIZED FREE ENERGY PREDICTED BY IDOCK:   -3.90 KCAL/MOL
REMARK 922        TOTAL FREE ENERGY PREDICTED BY IDOCK:   -5.14 KCAL/MOL
REMARK 923 INTER-LIGAND FREE ENERGY PREDICTED BY IDOCK:   -4.54 KCAL/MOL
REMARK 924 INTRA-LIGAND FREE ENERGY PREDICTED BY IDOCK:   -0.60 KCAL/MOL
REMARK 927      BINDING AFFINITY PREDICTED BY RF-SCORE:    0.00 PKD
ROOT
HETATM    1  C   UNL     1      -9.259  10.832  62.985  1.00  0.00    -0.320 C  
HETATM    2  C   UNL     1      -9.103  10.983  64.492  1.00  0.00    -0.111 C  
ENDROOT
BRANCH   2   3
HETATM    3  N   UNL     1     -10.163  11.492  65.385  1.00  0.00    -0.252 N  
HETATM    4  O   UNL     1     -11.081  11.479  67.548  1.00  0.00    -0.237 OA 
HETATM    5  C   UNL     1     -10.552  10.894  66.598  1.00  0.00    -0.249 C  
BRANCH   3   6
HETATM    6  C   UNL     1     -10.696  12.836  65.063  1.00  0.00    -0.296 A  
HETATM    7  C   UNL     1      -9.955  13.958  65.497  1.00  0.00    -0.275 A  
HETATM    8  C   UNL     1     -12.857  12.107  63.765  1.00  0.00    -0.451 C  
HETATM    9  C   UNL     1     -11.931  13.112  64.401  1.00  0.00    -0.454 A  
HETATM   10  C   UNL     1     -10.382  15.279  65.300  1.00  0.00    -0.430 A  
HETATM   11  C   UNL     1     -11.584  15.531  64.674  1.00  0.00    -0.281 A  
HETATM   12  C   UNL     1     -12.349  14.459  64.231  1.00  0.00    -0.402 A  
ENDBRANCH   3   6
BRANCH   5  13
HETATM   13  C   UNL     1     -10.359   9.429  66.754  1.00  0.00    -0.303 C  
HETATM   14  C   UNL     1     -10.591   8.835  67.937  1.00  0.00    -0.236 C  
HETATM   15  C   UNL     1     -10.417   7.372  68.191  1.00  0.00    -0.241 C  
ENDBRANCH   5  13
ENDBRANCH   2   3
TORSDOF 3
ENDMDL
MODEL       74
REMARK 921   NORMALIZED FREE ENERGY PREDICTED BY IDOCK:   -3.90 KCAL/MOL
REMARK 922        TOTAL FREE ENERGY PREDICTED BY IDOCK:   -5.14 KCAL/MOL
REMARK 923 INTER-LIGAND FREE ENERGY PREDICTED BY IDOCK:   -4.53 KCAL/MOL
REMARK 924 INTRA-LIGAND FREE ENERGY PREDICTED BY IDOCK:   -0.61 KCAL/MOL
REMARK 927      BINDING AFFINITY PREDICTED BY RF-SCORE:    0.00 PKD
ROOT
HETATM    1  C   UNL     1      -7.251  15.650  69.254  1.00  0.00    -0.198 C  
HETATM    2  C   UNL     1      -7.614  16.366  67.960  1.00  0.00    -0.152 C  
ENDROOT
BRANCH   2   3
HETATM    3  N   UNL     1      -8.980  16.808  67.617  1.00  0.00    -0.209 N  
HETATM    4  O   UNL     1     -10.358  17.878  66.042  1.00  0.00    -0.458 OA 
HETATM    5  C   UNL     1      -9.292  17.792  66.660  1.00  0.00    -0.287 C  
BRANCH   3   6
HETATM    6  C   UNL     1     -10.087  16.003  68.181  1.00  0.00    -0.234 A  
HETATM    7  C   UNL     1     -10.708  16.473  69.360  1.00  0.00    -0.330 A  
HETATM    8  C   UNL     1     -10.127  14.078  66.397  1.00  0.00    -0.299 C  
HETATM    9  C   UNL     1     -10.554  14.750  67.677  1.00  0.00    -0.262 A  
HETATM   10  C   UNL     1     -11.729  15.773  70.018  1.00  0.00    -0.362 A  
HETATM   11  C   UNL     1     -12.159  14.558  69.530  1.00  0.00    -0.348 A  
HETATM   12  C   UNL     1     -11.577  14.053  68.374  1.00  0.00    -0.366 A  
ENDBRANCH   3   6
BRANCH   5  13
HETATM   13  C   UNL     1      -8.287  18.851  66.385  1.00  0.00    -0.306 C  
HETATM   14  C   UNL     1      -8.099  19.855  67.259  1.00  0.00    -0.341 C  
HETATM   15  C   UNL     1      -7.118  20.966  67.063  1.00  0.00    -0.379 C  
ENDBRANCH   5  13
ENDBRANCH   2   3
TORSDOF 3
ENDMDL
MODEL       75
REMARK 921   NORMALIZED FREE ENERGY PREDICTED BY IDOCK:   -3.90 KCAL/MOL
REMARK 922        TOTAL FREE ENERGY PREDICTED BY IDOCK:   -5.14 KCAL/MOL
REMARK 923 INTER-LIGAND FREE ENERGY PREDICTED BY IDOCK:   -4.74 KCAL/MOL
REMARK 924 INTRA-LIGAND FREE ENERGY PREDICTED BY IDOCK:   -0.40 KCAL/MOL
REMARK 927      BINDING AFFINITY PREDICTED BY RF-SCORE:    0.00 PKD
ROOT
HETATM    1  C   UNL     1      -7.482  14.522  67.569  1.00  0.00    -0.216 C  
HETATM    2  C   UNL     1      -8.254  15.616  66.843  1.00  0.00    -0.253 C  
ENDROOT
BRANCH   2   3
HETATM    3  N   UNL     1      -9.155  16.574  67.513  1.00  0.00    -0.197 N  
HETATM    4  O   UNL     1     -10.840  16.886  69.122  1.00  0.00    -0.312 OA 
HETATM    5  C   UNL     1     -10.324  16.225  68.215  1.00  0.00    -0.272 C  
BRANCH   3   6
HETATM    6  C   UNL     1      -8.666  17.967  67.616  1.00  0.00    -0.247 A  
HETATM    7  C   UNL     1      -7.509  18.202  68.393  1.00  0.00    -0.287 A  
HETATM    8  C   UNL     1     -10.472  19.136  66.114  1.00  0.00    -0.558 C  
HETATM    9  C   UNL     1      -9.291  19.120  67.049  1.00  0.00    -0.355 A  
HETATM   10  C   UNL     1      -6.979  19.482  68.610  1.00  0.00    -0.357 A  
HETATM   11  C   UNL     1      -7.602  20.587  68.070  1.00  0.00    -0.131 A  
HETATM   12  C   UNL     1      -8.744  20.407  67.300  1.00  0.00    -0.429 A  
ENDBRANCH   3   6
BRANCH   5  13
HETATM   13  C   UNL     1     -11.037  14.982  67.821  1.00  0.00    -0.312 C  
HETATM   14  C   UNL     1     -11.507  14.835  66.570  1.00  0.00    -0.328 C  
HETATM   15  C   UNL     1     -12.242  13.626  66.086  1.00  0.00    -0.490 C  
ENDBRANCH   5  13
ENDBRANCH   2   3
TORSDOF 3
ENDMDL
MODEL       76
REMARK 921   NORMALIZED FREE ENERGY PREDICTED BY IDOCK:   -3.90 KCAL/MOL
REMARK 922        TOTAL FREE ENERGY PREDICTED BY IDOCK:   -5.14 KCAL/MOL
REMARK 923 INTER-LIGAND FREE ENERGY PREDICTED BY IDOCK:   -5.74 KCAL/MOL
REMARK 924 INTRA-LIGAND FREE ENERGY PREDICTED BY IDOCK:    0.61 KCAL/MOL
REMARK 927      BINDING AFFINITY PREDICTED BY RF-SCORE:    0.00 PKD
ROOT
HETATM    1  C   UNL     1      -8.690  13.876  68.412  1.00  0.00    -0.173 C  
HETATM    2  C   UNL     1     -10.078  14.314  68.864  1.00  0.00    -0.175 C  
ENDROOT
BRANCH   2   3
HETATM    3  N   UNL     1     -11.281  13.462  68.775  1.00  0.00    -0.261 N  
HETATM    4  O   UNL     1     -12.280  11.576  67.792  1.00  0.00    -0.560 OA 
HETATM    5  C   UNL     1     -11.568  12.582  67.715  1.00  0.00    -0.343 C  
BRANCH   3   6
HETATM    6  C   UNL     1     -12.122  13.394  69.991  1.00  0.00    -0.334 A  
HETATM    7  C   UNL     1     -12.763  14.580  70.414  1.00  0.00    -0.378 A  
HETATM    8  C   UNL     1     -11.809  10.849  70.550  1.00  0.00    -0.457 C  
HETATM    9  C   UNL     1     -12.304  12.246  70.822  1.00  0.00    -0.383 A  
HETATM   10  C   UNL     1     -13.542  14.656  71.577  1.00  0.00    -0.481 A  
HETATM   11  C   UNL     1     -13.696  13.545  72.379  1.00  0.00    -0.704 A  
HETATM   12  C   UNL     1     -13.083  12.355  72.005  1.00  0.00    -0.470 A  
ENDBRANCH   3   6
BRANCH   5  13
HETATM   13  C   UNL     1     -11.014  12.892  66.372  1.00  0.00    -0.310 C  
HETATM   14  C   UNL     1     -11.833  13.211  65.355  1.00  0.00    -0.410 C  
HETATM   15  C   UNL     1     -11.368  13.531  63.970  1.00  0.00    -0.306 C  
ENDBRANCH   5  13
ENDBRANCH   2   3
TORSDOF 3
ENDMDL
MODEL       77
REMARK 921   NORMALIZED FREE ENERGY PREDICTED BY IDOCK:   -3.88 KCAL/MOL
REMARK 922        TOTAL FREE ENERGY PREDICTED BY IDOCK:   -5.12 KCAL/MOL
REMARK 923 INTER-LIGAND FREE ENERGY PREDICTED BY IDOCK:   -4.61 KCAL/MOL
REMARK 924 INTRA-LIGAND FREE ENERGY PREDICTED BY IDOCK:   -0.51 KCAL/MOL
REMARK 927      BINDING AFFINITY PREDICTED BY RF-SCORE:    0.00 PKD
ROOT
HETATM    1  C   UNL     1     -10.769  19.588  67.327  1.00  0.00    -0.604 C  
HETATM    2  C   UNL     1      -9.864  19.220  68.495  1.00  0.00    -0.424 C  
ENDROOT
BRANCH   2   3
HETATM    3  N   UNL     1      -8.517  18.633  68.342  1.00  0.00    -0.330 N  
HETATM    4  O   UNL     1      -7.259  16.734  67.765  1.00  0.00    -0.132 OA 
HETATM    5  C   UNL     1      -8.238  17.254  68.309  1.00  0.00    -0.237 C  
BRANCH   3   6
HETATM    6  C   UNL     1      -7.430  19.577  67.994  1.00  0.00    -0.285 A  
HETATM    7  C   UNL     1      -7.263  19.913  66.632  1.00  0.00    -0.263 A  
HETATM    8  C   UNL     1      -6.495  20.014  70.407  1.00  0.00    -0.264 C  
HETATM    9  C   UNL     1      -6.485  20.140  68.905  1.00  0.00    -0.346 A  
HETATM   10  C   UNL     1      -6.239  20.753  66.172  1.00  0.00    -0.290 A  
HETATM   11  C   UNL     1      -5.324  21.277  67.060  1.00  0.00    -0.322 A  
HETATM   12  C   UNL     1      -5.446  20.972  68.410  1.00  0.00    -0.379 A  
ENDBRANCH   3   6
BRANCH   5  13
HETATM   13  C   UNL     1      -9.162  16.332  69.018  1.00  0.00    -0.253 C  
HETATM   14  C   UNL     1     -10.000  15.542  68.324  1.00  0.00    -0.213 C  
HETATM   15  C   UNL     1     -10.969  14.591  68.949  1.00  0.00    -0.268 C  
ENDBRANCH   5  13
ENDBRANCH   2   3
TORSDOF 3
ENDMDL
MODEL       78
REMARK 921   NORMALIZED FREE ENERGY PREDICTED BY IDOCK:   -3.88 KCAL/MOL
REMARK 922        TOTAL FREE ENERGY PREDICTED BY IDOCK:   -5.11 KCAL/MOL
REMARK 923 INTER-LIGAND FREE ENERGY PREDICTED BY IDOCK:   -4.58 KCAL/MOL
REMARK 924 INTRA-LIGAND FREE ENERGY PREDICTED BY IDOCK:   -0.53 KCAL/MOL
REMARK 927      BINDING AFFINITY PREDICTED BY RF-SCORE:    0.00 PKD
ROOT
HETATM    1  C   UNL     1     -12.072  13.444  69.409  1.00  0.00    -0.321 C  
HETATM    2  C   UNL     1     -12.112  13.403  67.887  1.00  0.00    -0.251 C  
ENDROOT
BRANCH   2   3
HETATM    3  N   UNL     1     -10.912  13.465  67.029  1.00  0.00    -0.283 N  
HETATM    4  O   UNL     1      -8.808  14.448  66.666  1.00  0.00    -0.232 OA 
HETATM    5  C   UNL     1      -9.993  14.531  67.004  1.00  0.00    -0.255 C  
BRANCH   3   6
HETATM    6  C   UNL     1     -10.562  12.221  66.306  1.00  0.00    -0.251 A  
HETATM    7  C   UNL     1     -10.030  11.151  67.061  1.00  0.00    -0.223 A  
HETATM    8  C   UNL     1     -11.264  12.955  63.887  1.00  0.00    -0.471 C  
HETATM    9  C   UNL     1     -10.654  12.016  64.896  1.00  0.00    -0.334 A  
HETATM   10  C   UNL     1      -9.612   9.942  66.485  1.00  0.00    -0.243 A  
HETATM   11  C   UNL     1      -9.692   9.764  65.120  1.00  0.00    -0.338 A  
HETATM   12  C   UNL     1     -10.206  10.790  64.336  1.00  0.00    -0.432 A  
ENDBRANCH   3   6
BRANCH   5  13
HETATM   13  C   UNL     1     -10.477  15.887  67.370  1.00  0.00    -0.306 C  
HETATM   14  C   UNL     1      -9.702  16.715  68.091  1.00  0.00    -0.244 C  
HETATM   15  C   UNL     1     -10.106  18.091  68.513  1.00  0.00    -0.399 C  
ENDBRANCH   5  13
ENDBRANCH   2   3
TORSDOF 3
ENDMDL
MODEL       79
REMARK 921   NORMALIZED FREE ENERGY PREDICTED BY IDOCK:   -3.87 KCAL/MOL
REMARK 922        TOTAL FREE ENERGY PREDICTED BY IDOCK:   -5.10 KCAL/MOL
REMARK 923 INTER-LIGAND FREE ENERGY PREDICTED BY IDOCK:   -4.45 KCAL/MOL
REMARK 924 INTRA-LIGAND FREE ENERGY PREDICTED BY IDOCK:   -0.65 KCAL/MOL
REMARK 927      BINDING AFFINITY PREDICTED BY RF-SCORE:    0.00 PKD
ROOT
HETATM    1  C   UNL     1     -10.500   7.211  67.763  1.00  0.00    -0.284 C  
HETATM    2  C   UNL     1     -11.316   6.360  68.726  1.00  0.00    -0.162 C  
ENDROOT
BRANCH   2   3
HETATM    3  N   UNL     1     -11.180   6.417  70.196  1.00  0.00    -0.359 N  
HETATM    4  O   UNL     1      -9.833   5.939  72.061  1.00  0.00    -0.157 OA 
HETATM    5  C   UNL     1     -10.287   5.636  70.953  1.00  0.00    -0.238 C  
BRANCH   3   6
HETATM    6  C   UNL     1     -11.894   7.522  70.874  1.00  0.00    -0.267 A  
HETATM    7  C   UNL     1     -13.223   7.287  71.294  1.00  0.00    -0.352 A  
HETATM    8  C   UNL     1      -9.983   9.320  70.824  1.00  0.00    -0.357 C  
HETATM    9  C   UNL     1     -11.386   8.839  71.094  1.00  0.00    -0.345 A  
HETATM   10  C   UNL     1     -14.019   8.269  71.899  1.00  0.00    -0.468 A  
HETATM   11  C   UNL     1     -13.521   9.540  72.091  1.00  0.00    -0.535 A  
HETATM   12  C   UNL     1     -12.221   9.820  71.691  1.00  0.00    -0.488 A  
ENDBRANCH   3   6
BRANCH   5  13
HETATM   13  C   UNL     1      -9.876   4.314  70.414  1.00  0.00    -0.268 C  
HETATM   14  C   UNL     1      -8.627   4.127  69.952  1.00  0.00    -0.103 C  
HETATM   15  C   UNL     1      -8.126   2.837  69.386  1.00  0.00    -0.063 C  
ENDBRANCH   5  13
ENDBRANCH   2   3
TORSDOF 3
ENDMDL
MODEL       80
REMARK 921   NORMALIZED FREE ENERGY PREDICTED BY IDOCK:   -3.86 KCAL/MOL
REMARK 922        TOTAL FREE ENERGY PREDICTED BY IDOCK:   -5.09 KCAL/MOL
REMARK 923 INTER-LIGAND FREE ENERGY PREDICTED BY IDOCK:   -4.57 KCAL/MOL
REMARK 924 INTRA-LIGAND FREE ENERGY PREDICTED BY IDOCK:   -0.52 KCAL/MOL
REMARK 927      BINDING AFFINITY PREDICTED BY RF-SCORE:    0.00 PKD
ROOT
HETATM    1  C   UNL     1     -10.973  19.590  67.133  1.00  0.00    -0.459 C  
HETATM    2  C   UNL     1     -10.280  18.477  67.908  1.00  0.00    -0.384 C  
ENDROOT
BRANCH   2   3
HETATM    3  N   UNL     1      -8.989  17.879  67.514  1.00  0.00    -0.247 N  
HETATM    4  O   UNL     1      -7.672  17.031  65.762  1.00  0.00    -0.357 OA 
HETATM    5  C   UNL     1      -8.763  17.157  66.327  1.00  0.00    -0.233 C  
BRANCH   3   6
HETATM    6  C   UNL     1      -7.818  18.254  68.340  1.00  0.00    -0.305 A  
HETATM    7  C   UNL     1      -7.443  19.616  68.369  1.00  0.00    -0.359 A  
HETATM    8  C   UNL     1      -7.214  15.878  69.276  1.00  0.00    -0.217 C  
HETATM    9  C   UNL     1      -6.985  17.353  69.071  1.00  0.00    -0.238 A  
HETATM   10  C   UNL     1      -6.324  20.087  69.070  1.00  0.00    -0.353 A  
HETATM   11  C   UNL     1      -5.519  19.204  69.759  1.00  0.00    -0.229 A  
HETATM   12  C   UNL     1      -5.846  17.854  69.757  1.00  0.00    -0.243 A  
ENDBRANCH   3   6
BRANCH   5  13
HETATM   13  C   UNL     1      -9.910  16.445  65.708  1.00  0.00    -0.303 C  
HETATM   14  C   UNL     1     -10.214  15.190  66.083  1.00  0.00    -0.310 C  
HETATM   15  C   UNL     1     -11.343  14.393  65.511  1.00  0.00    -0.334 C  
ENDBRANCH   5  13
ENDBRANCH   2   3
TORSDOF 3
ENDMDL
MODEL       81
REMARK 921   NORMALIZED FREE ENERGY PREDICTED BY IDOCK:   -3.86 KCAL/MOL
REMARK 922        TOTAL FREE ENERGY PREDICTED BY IDOCK:   -5.09 KCAL/MOL
REMARK 923 INTER-LIGAND FREE ENERGY PREDICTED BY IDOCK:   -4.47 KCAL/MOL
REMARK 924 INTRA-LIGAND FREE ENERGY PREDICTED BY IDOCK:   -0.62 KCAL/MOL
REMARK 927      BINDING AFFINITY PREDICTED BY RF-SCORE:    0.00 PKD
ROOT
HETATM    1  C   UNL     1     -10.536  19.674  66.622  1.00  0.00    -0.610 C  
HETATM    2  C   UNL     1     -10.596  18.305  67.286  1.00  0.00    -0.381 C  
ENDROOT
BRANCH   2   3
HETATM    3  N   UNL     1      -9.475  17.701  68.033  1.00  0.00    -0.274 N  
HETATM    4  O   UNL     1      -8.723  15.871  69.302  1.00  0.00    -0.246 OA 
HETATM    5  C   UNL     1      -9.603  16.680  68.994  1.00  0.00    -0.246 C  
BRANCH   3   6
HETATM    6  C   UNL     1      -8.115  18.065  67.575  1.00  0.00    -0.230 A  
HETATM    7  C   UNL     1      -7.621  17.430  66.412  1.00  0.00    -0.342 A  
HETATM    8  C   UNL     1      -7.527  19.824  69.430  1.00  0.00    -0.139 C  
HETATM    9  C   UNL     1      -7.219  18.960  68.235  1.00  0.00    -0.297 A  
HETATM   10  C   UNL     1      -6.331  17.651  65.909  1.00  0.00    -0.213 A  
HETATM   11  C   UNL     1      -5.471  18.506  66.565  1.00  0.00    -0.168 A  
HETATM   12  C   UNL     1      -5.911  19.151  67.715  1.00  0.00    -0.198 A  
ENDBRANCH   3   6
BRANCH   5  13
HETATM   13  C   UNL     1     -10.883  16.575  69.742  1.00  0.00    -0.302 C  
HETATM   14  C   UNL     1     -11.060  15.603  70.653  1.00  0.00    -0.382 C  
HETATM   15  C   UNL     1     -12.312  15.413  71.447  1.00  0.00    -0.442 C  
ENDBRANCH   5  13
ENDBRANCH   2   3
TORSDOF 3
ENDMDL
MODEL       82
REMARK 921   NORMALIZED FREE ENERGY PREDICTED BY IDOCK:   -3.85 KCAL/MOL
REMARK 922        TOTAL FREE ENERGY PREDICTED BY IDOCK:   -5.08 KCAL/MOL
REMARK 923 INTER-LIGAND FREE ENERGY PREDICTED BY IDOCK:   -4.72 KCAL/MOL
REMARK 924 INTRA-LIGAND FREE ENERGY PREDICTED BY IDOCK:   -0.36 KCAL/MOL
REMARK 927      BINDING AFFINITY PREDICTED BY RF-SCORE:    0.00 PKD
ROOT
HETATM    1  C   UNL     1     -10.045  15.128  64.856  1.00  0.00    -0.151 C  
HETATM    2  C   UNL     1     -10.658  15.887  66.025  1.00  0.00    -0.323 C  
ENDROOT
BRANCH   2   3
HETATM    3  N   UNL     1      -9.870  16.570  67.070  1.00  0.00    -0.250 N  
HETATM    4  O   UNL     1      -9.021  16.482  69.259  1.00  0.00    -0.205 OA 
HETATM    5  C   UNL     1      -9.925  16.274  68.444  1.00  0.00    -0.234 C  
BRANCH   3   6
HETATM    6  C   UNL     1      -8.806  17.482  66.591  1.00  0.00    -0.262 A  
HETATM    7  C   UNL     1      -7.520  16.936  66.375  1.00  0.00    -0.323 A  
HETATM    8  C   UNL     1     -10.209  19.695  66.455  1.00  0.00    -0.588 C  
HETATM    9  C   UNL     1      -8.938  18.889  66.383  1.00  0.00    -0.315 A  
HETATM   10  C   UNL     1      -6.419  17.706  65.974  1.00  0.00    -0.265 A  
HETATM   11  C   UNL     1      -6.557  19.066  65.792  1.00  0.00    -0.289 A  
HETATM   12  C   UNL     1      -7.802  19.649  65.995  1.00  0.00    -0.335 A  
ENDBRANCH   3   6
BRANCH   5  13
HETATM   13  C   UNL     1     -11.183  15.702  68.991  1.00  0.00    -0.306 C  
HETATM   14  C   UNL     1     -11.560  15.971  70.253  1.00  0.00    -0.335 C  
HETATM   15  C   UNL     1     -12.802  15.435  70.890  1.00  0.00    -0.536 C  
ENDBRANCH   5  13
ENDBRANCH   2   3
TORSDOF 3
ENDMDL
MODEL       83
REMARK 921   NORMALIZED FREE ENERGY PREDICTED BY IDOCK:   -3.84 KCAL/MOL
REMARK 922        TOTAL FREE ENERGY PREDICTED BY IDOCK:   -5.07 KCAL/MOL
REMARK 923 INTER-LIGAND FREE ENERGY PREDICTED BY IDOCK:   -4.52 KCAL/MOL
REMARK 924 INTRA-LIGAND FREE ENERGY PREDICTED BY IDOCK:   -0.55 KCAL/MOL
REMARK 927      BINDING AFFINITY PREDICTED BY RF-SCORE:    0.00 PKD
ROOT
HETATM    1  C   UNL     1      -7.518  14.262  67.460  1.00  0.00    -0.201 C  
HETATM    2  C   UNL     1      -8.729  15.138  67.749  1.00  0.00    -0.166 C  
ENDROOT
BRANCH   2   3
HETATM    3  N   UNL     1     -10.088  14.860  67.243  1.00  0.00    -0.235 N  
HETATM    4  O   UNL     1     -11.595  15.069  65.451  1.00  0.00    -0.318 OA 
HETATM    5  C   UNL     1     -10.700  15.530  66.167  1.00  0.00    -0.313 C  
BRANCH   3   6
HETATM    6  C   UNL     1     -10.752  13.653  67.785  1.00  0.00    -0.246 A  
HETATM    7  C   UNL     1     -11.479  13.787  68.989  1.00  0.00    -0.349 A  
HETATM    8  C   UNL     1     -10.048  11.941  65.924  1.00  0.00    -0.265 C  
HETATM    9  C   UNL     1     -10.678  12.336  67.235  1.00  0.00    -0.263 A  
HETATM   10  C   UNL     1     -12.106  12.708  69.629  1.00  0.00    -0.277 A  
HETATM   11  C   UNL     1     -12.013  11.440  69.096  1.00  0.00    -0.395 A  
HETATM   12  C   UNL     1     -11.306  11.258  67.914  1.00  0.00    -0.367 A  
ENDBRANCH   3   6
BRANCH   5  13
HETATM   13  C   UNL     1     -10.280  16.925  65.876  1.00  0.00    -0.330 C  
HETATM   14  C   UNL     1     -10.619  17.925  66.707  1.00  0.00    -0.253 C  
HETATM   15  C   UNL     1     -10.249  19.358  66.493  1.00  0.00    -0.544 C  
ENDBRANCH   5  13
ENDBRANCH   2   3
TORSDOF 3
ENDMDL
MODEL       84
REMARK 921   NORMALIZED FREE ENERGY PREDICTED BY IDOCK:   -3.81 KCAL/MOL
REMARK 922        TOTAL FREE ENERGY PREDICTED BY IDOCK:   -5.04 KCAL/MOL
REMARK 923 INTER-LIGAND FREE ENERGY PREDICTED BY IDOCK:   -4.80 KCAL/MOL
REMARK 924 INTRA-LIGAND FREE ENERGY PREDICTED BY IDOCK:   -0.24 KCAL/MOL
REMARK 927      BINDING AFFINITY PREDICTED BY RF-SCORE:    0.00 PKD
ROOT
HETATM    1  C   UNL     1      -7.163  15.238  68.697  1.00  0.00    -0.121 C  
HETATM    2  C   UNL     1      -8.573  15.812  68.707  1.00  0.00    -0.203 C  
ENDROOT
BRANCH   2   3
HETATM    3  N   UNL     1      -9.494  15.758  67.554  1.00  0.00    -0.217 N  
HETATM    4  O   UNL     1     -10.055  16.638  65.448  1.00  0.00    -0.578 OA 
HETATM    5  C   UNL     1      -9.666  16.788  66.611  1.00  0.00    -0.269 C  
BRANCH   3   6
HETATM    6  C   UNL     1     -10.114  14.443  67.276  1.00  0.00    -0.251 A  
HETATM    7  C   UNL     1      -9.648  13.720  66.154  1.00  0.00    -0.234 A  
HETATM    8  C   UNL     1     -11.805  14.367  69.282  1.00  0.00    -0.365 C  
HETATM    9  C   UNL     1     -11.191  13.852  68.005  1.00  0.00    -0.295 A  
HETATM   10  C   UNL     1     -10.191  12.490  65.757  1.00  0.00    -0.289 A  
HETATM   11  C   UNL     1     -11.241  11.939  66.461  1.00  0.00    -0.383 A  
HETATM   12  C   UNL     1     -11.735  12.614  67.570  1.00  0.00    -0.429 A  
ENDBRANCH   3   6
BRANCH   5  13
HETATM   13  C   UNL     1      -9.404  18.186  67.039  1.00  0.00    -0.270 C  
HETATM   14  C   UNL     1     -10.343  18.882  67.704  1.00  0.00    -0.496 C  
HETATM   15  C   UNL     1     -10.172  20.293  68.167  1.00  0.00    -0.399 C  
ENDBRANCH   5  13
ENDBRANCH   2   3
TORSDOF 3
ENDMDL
MODEL       85
REMARK 921   NORMALIZED FREE ENERGY PREDICTED BY IDOCK:   -3.80 KCAL/MOL
REMARK 922        TOTAL FREE ENERGY PREDICTED BY IDOCK:   -5.02 KCAL/MOL
REMARK 923 INTER-LIGAND FREE ENERGY PREDICTED BY IDOCK:   -4.78 KCAL/MOL
REMARK 924 INTRA-LIGAND FREE ENERGY PREDICTED BY IDOCK:   -0.24 KCAL/MOL
REMARK 927      BINDING AFFINITY PREDICTED BY RF-SCORE:    0.00 PKD
ROOT
HETATM    1  C   UNL     1     -10.743   8.776  67.624  1.00  0.00    -0.206 C  
HETATM    2  C   UNL     1     -11.085  10.215  67.986  1.00  0.00    -0.240 C  
ENDROOT
BRANCH   2   3
HETATM    3  N   UNL     1     -11.159  10.722  69.371  1.00  0.00    -0.248 N  
HETATM    4  O   UNL     1     -12.181  12.229  70.857  1.00  0.00    -0.353 OA 
HETATM    5  C   UNL     1     -11.708  11.962  69.747  1.00  0.00    -0.331 C  
BRANCH   3   6
HETATM    6  C   UNL     1     -10.814   9.755  70.438  1.00  0.00    -0.311 A  
HETATM    7  C   UNL     1     -11.875   9.198  71.189  1.00  0.00    -0.374 A  
HETATM    8  C   UNL     1      -8.207   9.747  70.141  1.00  0.00    -0.202 C  
HETATM    9  C   UNL     1      -9.495   9.371  70.828  1.00  0.00    -0.307 A  
HETATM   10  C   UNL     1     -11.674   8.314  72.258  1.00  0.00    -0.453 A  
HETATM   11  C   UNL     1     -10.394   7.964  72.634  1.00  0.00    -0.372 A  
HETATM   12  C   UNL     1      -9.319   8.489  71.927  1.00  0.00    -0.337 A  
ENDBRANCH   3   6
BRANCH   5  13
HETATM   13  C   UNL     1     -11.690  13.069  68.757  1.00  0.00    -0.363 C  
HETATM   14  C   UNL     1     -11.626  14.348  69.167  1.00  0.00    -0.344 C  
HETATM   15  C   UNL     1     -11.612  15.526  68.247  1.00  0.00    -0.344 C  
ENDBRANCH   5  13
ENDBRANCH   2   3
TORSDOF 3
ENDMDL
MODEL       86
REMARK 921   NORMALIZED FREE ENERGY PREDICTED BY IDOCK:   -3.80 KCAL/MOL
REMARK 922        TOTAL FREE ENERGY PREDICTED BY IDOCK:   -5.02 KCAL/MOL
REMARK 923 INTER-LIGAND FREE ENERGY PREDICTED BY IDOCK:   -4.57 KCAL/MOL
REMARK 924 INTRA-LIGAND FREE ENERGY PREDICTED BY IDOCK:   -0.45 KCAL/MOL
REMARK 927      BINDING AFFINITY PREDICTED BY RF-SCORE:    0.00 PKD
ROOT
HETATM    1  C   UNL     1     -11.565  12.307  67.533  1.00  0.00    -0.422 C  
HETATM    2  C   UNL     1     -11.518  13.808  67.283  1.00  0.00    -0.341 C  
ENDROOT
BRANCH   2   3
HETATM    3  N   UNL     1     -10.824  14.770  68.162  1.00  0.00    -0.248 N  
HETATM    4  O   UNL     1     -10.361  15.429  70.370  1.00  0.00    -0.269 OA 
HETATM    5  C   UNL     1     -11.141  15.000  69.514  1.00  0.00    -0.277 C  
BRANCH   3   6
HETATM    6  C   UNL     1      -9.583  15.369  67.622  1.00  0.00    -0.210 A  
HETATM    7  C   UNL     1      -8.390  14.617  67.726  1.00  0.00    -0.168 A  
HETATM    8  C   UNL     1     -10.581  17.633  66.748  1.00  0.00    -0.224 C  
HETATM    9  C   UNL     1      -9.459  16.673  67.053  1.00  0.00    -0.239 A  
HETATM   10  C   UNL     1      -7.143  15.097  67.300  1.00  0.00    -0.161 A  
HETATM   11  C   UNL     1      -7.037  16.364  66.767  1.00  0.00    -0.233 A  
HETATM   12  C   UNL     1      -8.181  17.142  66.647  1.00  0.00    -0.291 A  
ENDBRANCH   3   6
BRANCH   5  13
HETATM   13  C   UNL     1     -12.536  14.755  69.961  1.00  0.00    -0.268 C  
HETATM   14  C   UNL     1     -13.022  15.379  71.048  1.00  0.00    -0.556 C  
HETATM   15  C   UNL     1     -14.408  15.188  71.577  1.00  0.00    -0.660 C  
ENDBRANCH   5  13
ENDBRANCH   2   3
TORSDOF 3
ENDMDL
MODEL       87
REMARK 921   NORMALIZED FREE ENERGY PREDICTED BY IDOCK:   -3.77 KCAL/MOL
REMARK 922        TOTAL FREE ENERGY PREDICTED BY IDOCK:   -4.99 KCAL/MOL
REMARK 923 INTER-LIGAND FREE ENERGY PREDICTED BY IDOCK:   -4.33 KCAL/MOL
REMARK 924 INTRA-LIGAND FREE ENERGY PREDICTED BY IDOCK:   -0.66 KCAL/MOL
REMARK 927      BINDING AFFINITY PREDICTED BY RF-SCORE:    0.00 PKD
ROOT
HETATM    1  C   UNL     1      -9.388  10.492  65.037  1.00  0.00    -0.268 C  
HETATM    2  C   UNL     1      -9.124  10.890  66.483  1.00  0.00    -0.169 C  
ENDROOT
BRANCH   2   3
HETATM    3  N   UNL     1     -10.100  10.718  67.577  1.00  0.00    -0.181 N  
HETATM    4  O   UNL     1     -12.329  10.976  68.276  1.00  0.00    -0.479 OA 
HETATM    5  C   UNL     1     -11.336  11.386  67.667  1.00  0.00    -0.290 C  
BRANCH   3   6
HETATM    6  C   UNL     1      -9.831   9.611  68.523  1.00  0.00    -0.157 A  
HETATM    7  C   UNL     1      -9.241   9.937  69.765  1.00  0.00    -0.252 A  
HETATM    8  C   UNL     1     -10.751   7.622  67.080  1.00  0.00    -0.361 C  
HETATM    9  C   UNL     1     -10.058   8.223  68.276  1.00  0.00    -0.231 A  
HETATM   10  C   UNL     1      -8.890   8.974  70.722  1.00  0.00    -0.281 A  
HETATM   11  C   UNL     1      -9.099   7.636  70.463  1.00  0.00    -0.151 A  
HETATM   12  C   UNL     1      -9.675   7.266  69.254  1.00  0.00    -0.161 A  
ENDBRANCH   3   6
BRANCH   5  13
HETATM   13  C   UNL     1     -11.466  12.716  67.018  1.00  0.00    -0.406 C  
HETATM   14  C   UNL     1     -12.249  12.871  65.936  1.00  0.00    -0.469 C  
HETATM   15  C   UNL     1     -12.435  14.167  65.213  1.00  0.00    -0.474 C  
ENDBRANCH   5  13
ENDBRANCH   2   3
TORSDOF 3
ENDMDL
MODEL       88
REMARK 921   NORMALIZED FREE ENERGY PREDICTED BY IDOCK:   -3.77 KCAL/MOL
REMARK 922        TOTAL FREE ENERGY PREDICTED BY IDOCK:   -4.99 KCAL/MOL
REMARK 923 INTER-LIGAND FREE ENERGY PREDICTED BY IDOCK:   -4.39 KCAL/MOL
REMARK 924 INTRA-LIGAND FREE ENERGY PREDICTED BY IDOCK:   -0.60 KCAL/MOL
REMARK 927      BINDING AFFINITY PREDICTED BY RF-SCORE:    0.00 PKD
ROOT
HETATM    1  C   UNL     1     -11.497  11.968  69.166  1.00  0.00    -0.357 C  
HETATM    2  C   UNL     1     -11.843  11.406  67.794  1.00  0.00    -0.120 C  
ENDROOT
BRANCH   2   3
HETATM    3  N   UNL     1     -11.041  11.647  66.578  1.00  0.00    -0.300 N  
HETATM    4  O   UNL     1     -10.073  10.716  64.649  1.00  0.00    -0.311 OA 
HETATM    5  C   UNL     1     -10.365  10.652  65.848  1.00  0.00    -0.224 C  
BRANCH   3   6
HETATM    6  C   UNL     1     -11.140  13.002  65.990  1.00  0.00    -0.278 A  
HETATM    7  C   UNL     1     -12.216  13.260  65.110  1.00  0.00    -0.487 A  
HETATM    8  C   UNL     1      -9.037  14.084  67.127  1.00  0.00    -0.239 C  
HETATM    9  C   UNL     1     -10.209  14.069  66.180  1.00  0.00    -0.308 A  
HETATM   10  C   UNL     1     -12.388  14.486  64.451  1.00  0.00    -0.437 A  
HETATM   11  C   UNL     1     -11.473  15.501  64.631  1.00  0.00    -0.326 A  
HETATM   12  C   UNL     1     -10.397  15.293  65.485  1.00  0.00    -0.408 A  
ENDBRANCH   3   6
BRANCH   5  13
HETATM   13  C   UNL     1      -9.917   9.432  66.568  1.00  0.00    -0.339 C  
HETATM   14  C   UNL     1      -8.617   9.090  66.585  1.00  0.00    -0.134 C  
HETATM   15  C   UNL     1      -8.076   7.879  67.276  1.00  0.00    -0.118 C  
ENDBRANCH   5  13
ENDBRANCH   2   3
TORSDOF 3
ENDMDL
MODEL       89
REMARK 921   NORMALIZED FREE ENERGY PREDICTED BY IDOCK:   -3.77 KCAL/MOL
REMARK 922        TOTAL FREE ENERGY PREDICTED BY IDOCK:   -4.98 KCAL/MOL
REMARK 923 INTER-LIGAND FREE ENERGY PREDICTED BY IDOCK:   -4.44 KCAL/MOL
REMARK 924 INTRA-LIGAND FREE ENERGY PREDICTED BY IDOCK:   -0.54 KCAL/MOL
REMARK 927      BINDING AFFINITY PREDICTED BY RF-SCORE:    0.00 PKD
ROOT
HETATM    1  C   UNL     1      -7.632  11.441  68.275  1.00  0.00    -0.113 C  
HETATM    2  C   UNL     1      -8.417  11.474  66.971  1.00  0.00    -0.164 C  
ENDROOT
BRANCH   2   3
HETATM    3  N   UNL     1      -9.849  11.823  66.880  1.00  0.00    -0.201 N  
HETATM    4  O   UNL     1     -11.973  11.672  67.874  1.00  0.00    -0.599 OA 
HETATM    5  C   UNL     1     -10.884  11.171  67.576  1.00  0.00    -0.254 C  
BRANCH   3   6
HETATM    6  C   UNL     1     -10.169  13.078  66.162  1.00  0.00    -0.284 A  
HETATM    7  C   UNL     1      -9.838  14.299  66.792  1.00  0.00    -0.274 A  
HETATM    8  C   UNL     1     -11.220  12.039  63.993  1.00  0.00    -0.468 C  
HETATM    9  C   UNL     1     -10.842  13.177  64.906  1.00  0.00    -0.348 A  
HETATM   10  C   UNL     1     -10.138  15.552  66.239  1.00  0.00    -0.312 A  
HETATM   11  C   UNL     1     -10.802  15.633  65.033  1.00  0.00    -0.468 A  
HETATM   12  C   UNL     1     -11.150  14.459  64.377  1.00  0.00    -0.203 A  
ENDBRANCH   3   6
BRANCH   5  13
HETATM   13  C   UNL     1     -10.689   9.749  67.957  1.00  0.00    -0.298 C  
HETATM   14  C   UNL     1     -10.593   9.398  69.251  1.00  0.00    -0.239 C  
HETATM   15  C   UNL     1     -10.389   7.996  69.728  1.00  0.00    -0.219 C  
ENDBRANCH   5  13
ENDBRANCH   2   3
TORSDOF 3
ENDMDL
MODEL       90
REMARK 921   NORMALIZED FREE ENERGY PREDICTED BY IDOCK:   -3.77 KCAL/MOL
REMARK 922        TOTAL FREE ENERGY PREDICTED BY IDOCK:   -4.98 KCAL/MOL
REMARK 923 INTER-LIGAND FREE ENERGY PREDICTED BY IDOCK:   -4.37 KCAL/MOL
REMARK 924 INTRA-LIGAND FREE ENERGY PREDICTED BY IDOCK:   -0.61 KCAL/MOL
REMARK 927      BINDING AFFINITY PREDICTED BY RF-SCORE:    0.00 PKD
ROOT
HETATM    1  C   UNL     1      -7.651  10.330  69.841  1.00  0.00    -0.153 C  
HETATM    2  C   UNL     1      -8.641  11.034  68.923  1.00  0.00    -0.119 C  
ENDROOT
BRANCH   2   3
HETATM    3  N   UNL     1     -10.089  10.746  68.895  1.00  0.00    -0.197 N  
HETATM    4  O   UNL     1     -12.192  11.340  68.029  1.00  0.00    -0.621 OA 
HETATM    5  C   UNL     1     -11.083  11.650  68.477  1.00  0.00    -0.235 C  
BRANCH   3   6
HETATM    6  C   UNL     1     -10.478   9.337  69.131  1.00  0.00    -0.217 A  
HETATM    7  C   UNL     1     -10.917   8.985  70.428  1.00  0.00    -0.283 A  
HETATM    8  C   UNL     1     -10.046   8.395  66.721  1.00  0.00    -0.373 C  
HETATM    9  C   UNL     1     -10.395   8.273  68.182  1.00  0.00    -0.253 A  
HETATM   10  C   UNL     1     -11.262   7.674  70.789  1.00  0.00    -0.282 A  
HETATM   11  C   UNL     1     -11.161   6.654  69.867  1.00  0.00    -0.421 A  
HETATM   12  C   UNL     1     -10.731   6.952  68.580  1.00  0.00    -0.252 A  
ENDBRANCH   3   6
BRANCH   5  13
HETATM   13  C   UNL     1     -10.815  13.104  68.616  1.00  0.00    -0.287 C  
HETATM   14  C   UNL     1     -11.634  13.881  69.346  1.00  0.00    -0.350 C  
HETATM   15  C   UNL     1     -11.449  15.352  69.535  1.00  0.00    -0.330 C  
ENDBRANCH   5  13
ENDBRANCH   2   3
TORSDOF 3
ENDMDL
MODEL       91
REMARK 921   NORMALIZED FREE ENERGY PREDICTED BY IDOCK:   -3.77 KCAL/MOL
REMARK 922        TOTAL FREE ENERGY PREDICTED BY IDOCK:   -4.98 KCAL/MOL
REMARK 923 INTER-LIGAND FREE ENERGY PREDICTED BY IDOCK:   -4.28 KCAL/MOL
REMARK 924 INTRA-LIGAND FREE ENERGY PREDICTED BY IDOCK:   -0.71 KCAL/MOL
REMARK 927      BINDING AFFINITY PREDICTED BY RF-SCORE:    0.00 PKD
ROOT
HETATM    1  C   UNL     1     -11.835  15.773  69.298  1.00  0.00    -0.358 C  
HETATM    2  C   UNL     1     -10.400  15.262  69.295  1.00  0.00    -0.259 C  
ENDROOT
BRANCH   2   3
HETATM    3  N   UNL     1      -9.601  15.052  68.071  1.00  0.00    -0.206 N  
HETATM    4  O   UNL     1      -7.464  15.076  67.095  1.00  0.00    -0.200 OA 
HETATM    5  C   UNL     1      -8.307  15.561  67.856  1.00  0.00    -0.143 C  
BRANCH   3   6
HETATM    6  C   UNL     1     -10.136  14.066  67.105  1.00  0.00    -0.259 A  
HETATM    7  C   UNL     1     -10.121  12.703  67.480  1.00  0.00    -0.212 A  
HETATM    8  C   UNL     1     -10.819  15.719  65.185  1.00  0.00    -0.444 C  
HETATM    9  C   UNL     1     -10.616  14.354  65.791  1.00  0.00    -0.326 A  
HETATM   10  C   UNL     1     -10.550  11.672  66.633  1.00  0.00    -0.281 A  
HETATM   11  C   UNL     1     -10.996  11.963  65.361  1.00  0.00    -0.352 A  
HETATM   12  C   UNL     1     -11.027  13.288  64.946  1.00  0.00    -0.345 A  
ENDBRANCH   3   6
BRANCH   5  13
HETATM   13  C   UNL     1      -7.916  16.809  68.560  1.00  0.00    -0.235 C  
HETATM   14  C   UNL     1      -8.204  18.010  68.029  1.00  0.00    -0.261 C  
HETATM   15  C   UNL     1      -7.843  19.316  68.660  1.00  0.00    -0.396 C  
ENDBRANCH   5  13
ENDBRANCH   2   3
TORSDOF 3
ENDMDL
MODEL       92
REMARK 921   NORMALIZED FREE ENERGY PREDICTED BY IDOCK:   -3.75 KCAL/MOL
REMARK 922        TOTAL FREE ENERGY PREDICTED BY IDOCK:   -4.96 KCAL/MOL
REMARK 923 INTER-LIGAND FREE ENERGY PREDICTED BY IDOCK:   -4.25 KCAL/MOL
REMARK 924 INTRA-LIGAND FREE ENERGY PREDICTED BY IDOCK:   -0.71 KCAL/MOL
REMARK 927      BINDING AFFINITY PREDICTED BY RF-SCORE:    0.00 PKD
ROOT
HETATM    1  C   UNL     1     -10.786   6.840  67.838  1.00  0.00    -0.320 C  
HETATM    2  C   UNL     1     -10.315   8.167  68.419  1.00  0.00    -0.199 C  
ENDROOT
BRANCH   2   3
HETATM    3  N   UNL     1     -10.115   8.411  69.862  1.00  0.00    -0.191 N  
HETATM    4  O   UNL     1      -8.597   8.978  71.563  1.00  0.00    -0.303 OA 
HETATM    5  C   UNL     1      -8.872   8.377  70.520  1.00  0.00    -0.148 C  
BRANCH   3   6
HETATM    6  C   UNL     1     -11.288   8.926  70.604  1.00  0.00    -0.259 A  
HETATM    7  C   UNL     1     -11.627  10.288  70.434  1.00  0.00    -0.411 A  
HETATM    8  C   UNL     1     -11.988   6.713  71.827  1.00  0.00    -0.391 C  
HETATM    9  C   UNL     1     -12.083   8.188  71.534  1.00  0.00    -0.332 A  
HETATM   10  C   UNL     1     -12.682  10.905  71.122  1.00  0.00    -0.530 A  
HETATM   11  C   UNL     1     -13.431  10.184  72.028  1.00  0.00    -0.418 A  
HETATM   12  C   UNL     1     -13.133   8.843  72.231  1.00  0.00    -0.491 A  
ENDBRANCH   3   6
BRANCH   5  13
HETATM   13  C   UNL     1      -7.798   7.521  69.953  1.00  0.00    -0.107 C  
HETATM   14  C   UNL     1      -7.751   6.209  70.242  1.00  0.00    -0.097 C  
HETATM   15  C   UNL     1      -6.706   5.272  69.726  1.00  0.00    -0.051 C  
ENDBRANCH   5  13
ENDBRANCH   2   3
TORSDOF 3
ENDMDL
MODEL       93
REMARK 921   NORMALIZED FREE ENERGY PREDICTED BY IDOCK:   -3.69 KCAL/MOL
REMARK 922        TOTAL FREE ENERGY PREDICTED BY IDOCK:   -4.90 KCAL/MOL
REMARK 923 INTER-LIGAND FREE ENERGY PREDICTED BY IDOCK:   -4.70 KCAL/MOL
REMARK 924 INTRA-LIGAND FREE ENERGY PREDICTED BY IDOCK:   -0.20 KCAL/MOL
REMARK 927      BINDING AFFINITY PREDICTED BY RF-SCORE:    0.00 PKD
ROOT
HETATM    1  C   UNL     1     -10.705  12.537  66.570  1.00  0.00    -0.266 C  
HETATM    2  C   UNL     1     -11.577  11.635  67.433  1.00  0.00    -0.254 C  
ENDROOT
BRANCH   2   3
HETATM    3  N   UNL     1     -11.173  11.119  68.756  1.00  0.00    -0.228 N  
HETATM    4  O   UNL     1      -9.455  10.174  70.052  1.00  0.00    -0.187 OA 
HETATM    5  C   UNL     1     -10.076  10.268  68.989  1.00  0.00    -0.213 C  
BRANCH   3   6
HETATM    6  C   UNL     1     -11.858  11.715  69.926  1.00  0.00    -0.358 A  
HETATM    7  C   UNL     1     -12.571  10.846  70.783  1.00  0.00    -0.470 A  
HETATM    8  C   UNL     1     -11.181  14.222  69.550  1.00  0.00    -0.286 C  
HETATM    9  C   UNL     1     -11.919  13.106  70.243  1.00  0.00    -0.366 A  
HETATM   10  C   UNL     1     -13.303  11.295  71.891  1.00  0.00    -0.413 A  
HETATM   11  C   UNL     1     -13.366  12.643  72.177  1.00  0.00    -0.570 A  
HETATM   12  C   UNL     1     -12.684  13.536  71.360  1.00  0.00    -0.423 A  
ENDBRANCH   3   6
BRANCH   5  13
HETATM   13  C   UNL     1      -9.637   9.369  67.890  1.00  0.00    -0.155 C  
HETATM   14  C   UNL     1     -10.130   8.123  67.793  1.00  0.00    -0.260 C  
HETATM   15  C   UNL     1      -9.743   7.146  66.729  1.00  0.00    -0.252 C  
ENDBRANCH   5  13
ENDBRANCH   2   3
TORSDOF 3
ENDMDL
MODEL       94
REMARK 921   NORMALIZED FREE ENERGY PREDICTED BY IDOCK:   -3.69 KCAL/MOL
REMARK 922        TOTAL FREE ENERGY PREDICTED BY IDOCK:   -4.89 KCAL/MOL
REMARK 923 INTER-LIGAND FREE ENERGY PREDICTED BY IDOCK:   -4.33 KCAL/MOL
REMARK 924 INTRA-LIGAND FREE ENERGY PREDICTED BY IDOCK:   -0.56 KCAL/MOL
REMARK 927      BINDING AFFINITY PREDICTED BY RF-SCORE:    0.00 PKD
ROOT
HETATM    1  C   UNL     1      -7.791  11.620  68.017  1.00  0.00    -0.128 C  
HETATM    2  C   UNL     1      -8.815  11.151  66.992  1.00  0.00    -0.149 C  
ENDROOT
BRANCH   2   3
HETATM    3  N   UNL     1     -10.276  11.259  67.178  1.00  0.00    -0.196 N  
HETATM    4  O   UNL     1     -12.114  10.824  68.577  1.00  0.00    -0.493 OA 
HETATM    5  C   UNL     1     -11.033  10.490  68.081  1.00  0.00    -0.277 C  
BRANCH   3   6
HETATM    6  C   UNL     1     -10.935  12.403  66.507  1.00  0.00    -0.272 A  
HETATM    7  C   UNL     1     -11.650  12.144  65.316  1.00  0.00    -0.376 A  
HETATM    8  C   UNL     1     -10.253  14.298  68.189  1.00  0.00    -0.231 C  
HETATM    9  C   UNL     1     -10.869  13.769  66.919  1.00  0.00    -0.286 A  
HETATM   10  C   UNL     1     -12.271  13.150  64.562  1.00  0.00    -0.466 A  
HETATM   11  C   UNL     1     -12.186  14.466  64.963  1.00  0.00    -0.418 A  
HETATM   12  C   UNL     1     -11.491  14.770  66.127  1.00  0.00    -0.311 A  
ENDBRANCH   3   6
BRANCH   5  13
HETATM   13  C   UNL     1     -10.531   9.141  68.450  1.00  0.00    -0.241 C  
HETATM   14  C   UNL     1     -10.563   8.136  67.558  1.00  0.00    -0.291 C  
HETATM   15  C   UNL     1     -10.088   6.747  67.841  1.00  0.00    -0.189 C  
ENDBRANCH   5  13
ENDBRANCH   2   3
TORSDOF 3
ENDMDL
MODEL       95
REMARK 921   NORMALIZED FREE ENERGY PREDICTED BY IDOCK:   -3.68 KCAL/MOL
REMARK 922        TOTAL FREE ENERGY PREDICTED BY IDOCK:   -4.88 KCAL/MOL
REMARK 923 INTER-LIGAND FREE ENERGY PREDICTED BY IDOCK:   -4.36 KCAL/MOL
REMARK 924 INTRA-LIGAND FREE ENERGY PREDICTED BY IDOCK:   -0.52 KCAL/MOL
REMARK 927      BINDING AFFINITY PREDICTED BY RF-SCORE:    0.00 PKD
ROOT
HETATM    1  C   UNL     1      -7.670  10.072  70.024  1.00  0.00    -0.181 C  
HETATM    2  C   UNL     1      -8.841   9.792  69.092  1.00  0.00    -0.160 C  
ENDROOT
BRANCH   2   3
HETATM    3  N   UNL     1     -10.258   9.918  69.489  1.00  0.00    -0.209 N  
HETATM    4  O   UNL     1     -12.382  10.759  68.938  1.00  0.00    -0.433 OA 
HETATM    5  C   UNL     1     -11.154  10.879  68.985  1.00  0.00    -0.246 C  
BRANCH   3   6
HETATM    6  C   UNL     1     -10.803   8.818  70.317  1.00  0.00    -0.231 A  
HETATM    7  C   UNL     1     -11.095   9.098  71.672  1.00  0.00    -0.445 A  
HETATM    8  C   UNL     1     -10.860   6.934  68.492  1.00  0.00    -0.234 C  
HETATM    9  C   UNL     1     -11.008   7.470  69.893  1.00  0.00    -0.223 A  
HETATM   10  C   UNL     1     -11.564   8.129  72.569  1.00  0.00    -0.468 A  
HETATM   11  C   UNL     1     -11.742   6.828  72.150  1.00  0.00    -0.332 A  
HETATM   12  C   UNL     1     -11.465   6.503  70.828  1.00  0.00    -0.419 A  
ENDBRANCH   3   6
BRANCH   5  13
HETATM   13  C   UNL     1     -10.602  12.171  68.503  1.00  0.00    -0.252 C  
HETATM   14  C   UNL     1     -10.604  12.465  67.191  1.00  0.00    -0.247 C  
HETATM   15  C   UNL     1     -10.064  13.734  66.614  1.00  0.00    -0.277 C  
ENDBRANCH   5  13
ENDBRANCH   2   3
TORSDOF 3
ENDMDL
MODEL       96
REMARK 921   NORMALIZED FREE ENERGY PREDICTED BY IDOCK:   -3.68 KCAL/MOL
REMARK 922        TOTAL FREE ENERGY PREDICTED BY IDOCK:   -4.88 KCAL/MOL
REMARK 923 INTER-LIGAND FREE ENERGY PREDICTED BY IDOCK:   -4.32 KCAL/MOL
REMARK 924 INTRA-LIGAND FREE ENERGY PREDICTED BY IDOCK:   -0.56 KCAL/MOL
REMARK 927      BINDING AFFINITY PREDICTED BY RF-SCORE:    0.00 PKD
ROOT
HETATM    1  C   UNL     1      -8.177   9.248  65.354  1.00  0.00    -0.129 C  
HETATM    2  C   UNL     1      -9.670   9.473  65.553  1.00  0.00    -0.273 C  
ENDROOT
BRANCH   2   3
HETATM    3  N   UNL     1     -10.301   9.706  66.867  1.00  0.00    -0.245 N  
HETATM    4  O   UNL     1     -12.021  10.781  68.054  1.00  0.00    -0.537 OA 
HETATM    5  C   UNL     1     -11.159  10.780  67.170  1.00  0.00    -0.227 C  
BRANCH   3   6
HETATM    6  C   UNL     1     -10.174   8.610  67.855  1.00  0.00    -0.219 A  
HETATM    7  C   UNL     1     -10.751   7.362  67.530  1.00  0.00    -0.310 A  
HETATM    8  C   UNL     1      -8.811   9.890  69.696  1.00  0.00    -0.224 C  
HETATM    9  C   UNL     1      -9.569   8.710  69.145  1.00  0.00    -0.163 A  
HETATM   10  C   UNL     1     -10.743   6.264  68.403  1.00  0.00    -0.356 A  
HETATM   11  C   UNL     1     -10.170   6.380  69.651  1.00  0.00    -0.229 A  
HETATM   12  C   UNL     1      -9.592   7.589  70.017  1.00  0.00    -0.164 A  
ENDBRANCH   3   6
BRANCH   5  13
HETATM   13  C   UNL     1     -11.003  12.043  66.404  1.00  0.00    -0.337 C  
HETATM   14  C   UNL     1     -12.025  12.529  65.679  1.00  0.00    -0.492 C  
HETATM   15  C   UNL     1     -11.959  13.786  64.871  1.00  0.00    -0.412 C  
ENDBRANCH   5  13
ENDBRANCH   2   3
TORSDOF 3
ENDMDL
MODEL       97
REMARK 921   NORMALIZED FREE ENERGY PREDICTED BY IDOCK:   -3.67 KCAL/MOL
REMARK 922        TOTAL FREE ENERGY PREDICTED BY IDOCK:   -4.87 KCAL/MOL
REMARK 923 INTER-LIGAND FREE ENERGY PREDICTED BY IDOCK:   -4.26 KCAL/MOL
REMARK 924 INTRA-LIGAND FREE ENERGY PREDICTED BY IDOCK:   -0.61 KCAL/MOL
REMARK 927      BINDING AFFINITY PREDICTED BY RF-SCORE:    0.00 PKD
ROOT
HETATM    1  C   UNL     1     -10.244  14.819  65.349  1.00  0.00    -0.415 C  
HETATM    2  C   UNL     1     -11.222  13.953  66.132  1.00  0.00    -0.303 C  
ENDROOT
BRANCH   2   3
HETATM    3  N   UNL     1     -10.819  13.000  67.186  1.00  0.00    -0.257 N  
HETATM    4  O   UNL     1     -11.411  11.923  69.189  1.00  0.00    -0.250 OA 
HETATM    5  C   UNL     1     -11.392  12.927  68.469  1.00  0.00    -0.289 C  
BRANCH   3   6
HETATM    6  C   UNL     1      -9.890  11.924  66.770  1.00  0.00    -0.197 A  
HETATM    7  C   UNL     1     -10.435  10.812  66.089  1.00  0.00    -0.278 A  
HETATM    8  C   UNL     1      -7.654  12.957  67.674  1.00  0.00    -0.156 C  
HETATM    9  C   UNL     1      -8.490  11.871  67.047  1.00  0.00    -0.177 A  
HETATM   10  C   UNL     1      -9.668   9.707  65.691  1.00  0.00    -0.363 A  
HETATM   11  C   UNL     1      -8.321   9.663  65.979  1.00  0.00    -0.123 A  
HETATM   12  C   UNL     1      -7.741  10.732  66.651  1.00  0.00    -0.141 A  
ENDBRANCH   3   6
BRANCH   5  13
HETATM   13  C   UNL     1     -11.992  14.158  69.043  1.00  0.00    -0.376 C  
HETATM   14  C   UNL     1     -12.078  14.316  70.375  1.00  0.00    -0.409 C  
HETATM   15  C   UNL     1     -12.672  15.515  71.042  1.00  0.00    -0.526 C  
ENDBRANCH   5  13
ENDBRANCH   2   3
TORSDOF 3
ENDMDL
MODEL       98
REMARK 921   NORMALIZED FREE ENERGY PREDICTED BY IDOCK:   -3.66 KCAL/MOL
REMARK 922        TOTAL FREE ENERGY PREDICTED BY IDOCK:   -4.85 KCAL/MOL
REMARK 923 INTER-LIGAND FREE ENERGY PREDICTED BY IDOCK:   -4.28 KCAL/MOL
REMARK 924 INTRA-LIGAND FREE ENERGY PREDICTED BY IDOCK:   -0.57 KCAL/MOL
REMARK 927      BINDING AFFINITY PREDICTED BY RF-SCORE:    0.00 PKD
ROOT
HETATM    1  C   UNL     1      -9.064   9.863  67.578  1.00  0.00    -0.145 C  
HETATM    2  C   UNL     1      -9.298  10.033  69.073  1.00  0.00    -0.181 C  
ENDROOT
BRANCH   2   3
HETATM    3  N   UNL     1     -10.618   9.906  69.721  1.00  0.00    -0.245 N  
HETATM    4  O   UNL     1     -12.913  10.402  69.612  1.00  0.00    -0.029 OA 
HETATM    5  C   UNL     1     -11.731  10.723  69.449  1.00  0.00    -0.306 C  
BRANCH   3   6
HETATM    6  C   UNL     1     -10.821   8.701  70.557  1.00  0.00    -0.228 A  
HETATM    7  C   UNL     1     -10.844   8.871  71.960  1.00  0.00    -0.404 A  
HETATM    8  C   UNL     1     -11.030   6.918  68.644  1.00  0.00    -0.203 C  
HETATM    9  C   UNL     1     -10.936   7.359  70.082  1.00  0.00    -0.272 A  
HETATM   10  C   UNL     1     -10.975   7.802  72.858  1.00  0.00    -0.467 A  
HETATM   11  C   UNL     1     -11.069   6.511  72.386  1.00  0.00    -0.293 A  
HETATM   12  C   UNL     1     -11.048   6.293  71.014  1.00  0.00    -0.357 A  
ENDBRANCH   3   6
BRANCH   5  13
HETATM   13  C   UNL     1     -11.488  12.106  68.965  1.00  0.00    -0.351 C  
HETATM   14  C   UNL     1     -11.761  12.439  67.691  1.00  0.00    -0.412 C  
HETATM   15  C   UNL     1     -11.542  13.800  67.113  1.00  0.00    -0.392 C  
ENDBRANCH   5  13
ENDBRANCH   2   3
TORSDOF 3
ENDMDL
MODEL       99
REMARK 921   NORMALIZED FREE ENERGY PREDICTED BY IDOCK:   -3.64 KCAL/MOL
REMARK 922        TOTAL FREE ENERGY PREDICTED BY IDOCK:   -4.83 KCAL/MOL
REMARK 923 INTER-LIGAND FREE ENERGY PREDICTED BY IDOCK:   -4.29 KCAL/MOL
REMARK 924 INTRA-LIGAND FREE ENERGY PREDICTED BY IDOCK:   -0.54 KCAL/MOL
REMARK 927      BINDING AFFINITY PREDICTED BY RF-SCORE:    0.00 PKD
ROOT
HETATM    1  C   UNL     1      -7.942  10.744  68.635  1.00  0.00    -0.133 C  
HETATM    2  C   UNL     1      -8.966  11.769  69.106  1.00  0.00     0.425 C  
ENDROOT
BRANCH   2   3
HETATM    3  N   UNL     1     -10.405  11.707  68.780  1.00  0.00    -0.214 N  
HETATM    4  O   UNL     1     -12.028  11.551  67.088  1.00  0.00    -0.581 OA 
HETATM    5  C   UNL     1     -10.959  11.994  67.519  1.00  0.00    -0.253 C  
BRANCH   3   6
HETATM    6  C   UNL     1     -11.281  11.100  69.809  1.00  0.00    -0.245 A  
HETATM    7  C   UNL     1     -12.090  11.968  70.578  1.00  0.00    -0.402 A  
HETATM    8  C   UNL     1     -10.658   8.580  69.427  1.00  0.00    -0.203 C  
HETATM    9  C   UNL     1     -11.344   9.714  70.145  1.00  0.00    -0.275 A  
HETATM   10  C   UNL     1     -12.920  11.520  71.615  1.00  0.00    -0.499 A  
HETATM   11  C   UNL     1     -12.959  10.181  71.939  1.00  0.00    -0.549 A  
HETATM   12  C   UNL     1     -12.179   9.290  71.213  1.00  0.00    -0.410 A  
ENDBRANCH   3   6
BRANCH   5  13
HETATM   13  C   UNL     1     -10.235  12.939  66.631  1.00  0.00    -0.251 C  
HETATM   14  C   UNL     1     -10.809  14.095  66.255  1.00  0.00    -0.300 C  
HETATM   15  C   UNL     1     -10.162  15.102  65.359  1.00  0.00    -0.402 C  
ENDBRANCH   5  13
ENDBRANCH   2   3
TORSDOF 3
ENDMDL
MODEL      100
REMARK 921   NORMALIZED FREE ENERGY PREDICTED BY IDOCK:   -3.62 KCAL/MOL
REMARK 922        TOTAL FREE ENERGY PREDICTED BY IDOCK:   -4.81 KCAL/MOL
REMARK 923 INTER-LIGAND FREE ENERGY PREDICTED BY IDOCK:   -4.15 KCAL/MOL
REMARK 924 INTRA-LIGAND FREE ENERGY PREDICTED BY IDOCK:   -0.66 KCAL/MOL
REMARK 927      BINDING AFFINITY PREDICTED BY RF-SCORE:    0.00 PKD
ROOT
HETATM    1  C   UNL     1     -10.335   8.596  67.103  1.00  0.00    -0.369 C  
HETATM    2  C   UNL     1     -10.528   7.971  68.479  1.00  0.00    -0.164 C  
ENDROOT
BRANCH   2   3
HETATM    3  N   UNL     1     -10.086   8.601  69.740  1.00  0.00    -0.194 N  
HETATM    4  O   UNL     1      -8.281   9.450  70.981  1.00  0.00    -0.294 OA 
HETATM    5  C   UNL     1      -8.762   8.608  70.216  1.00  0.00    -0.147 C  
BRANCH   3   6
HETATM    6  C   UNL     1     -11.084   9.451  70.428  1.00  0.00    -0.261 A  
HETATM    7  C   UNL     1     -11.810   8.879  71.497  1.00  0.00    -0.402 A  
HETATM    8  C   UNL     1     -10.752  11.655  69.042  1.00  0.00    -0.217 C  
HETATM    9  C   UNL     1     -11.430  10.791  70.074  1.00  0.00    -0.412 A  
HETATM   10  C   UNL     1     -12.817   9.564  72.191  1.00  0.00    -0.471 A  
HETATM   11  C   UNL     1     -13.152  10.852  71.829  1.00  0.00    -0.564 A  
HETATM   12  C   UNL     1     -12.467  11.456  70.782  1.00  0.00    -0.460 A  
ENDBRANCH   3   6
BRANCH   5  13
HETATM   13  C   UNL     1      -7.862   7.498  69.812  1.00  0.00    -0.108 C  
HETATM   14  C   UNL     1      -6.888   7.706  68.909  1.00  0.00    -0.061 C  
HETATM   15  C   UNL     1      -5.941   6.650  68.436  1.00  0.00    -0.021 C  
ENDBRANCH   5  13
ENDBRANCH   2   3
TORSDOF 3
ENDMDL
MODEL      101
REMARK 921   NORMALIZED FREE ENERGY PREDICTED BY IDOCK:   -3.61 KCAL/MOL
REMARK 922        TOTAL FREE ENERGY PREDICTED BY IDOCK:   -4.80 KCAL/MOL
REMARK 923 INTER-LIGAND FREE ENERGY PREDICTED BY IDOCK:   -4.18 KCAL/MOL
REMARK 924 INTRA-LIGAND FREE ENERGY PREDICTED BY IDOCK:   -0.62 KCAL/MOL
REMARK 927      BINDING AFFINITY PREDICTED BY RF-SCORE:    0.00 PKD
ROOT
HETATM    1  C   UNL     1     -10.927  11.596  68.452  1.00  0.00    -0.265 C  
HETATM    2  C   UNL     1     -11.700  10.377  68.938  1.00  0.00    -0.068 C  
ENDROOT
BRANCH   2   3
HETATM    3  N   UNL     1     -11.474   9.723  70.242  1.00  0.00    -0.260 N  
HETATM    4  O   UNL     1     -12.439   8.934  72.235  1.00  0.00    -0.372 OA 
HETATM    5  C   UNL     1     -12.359   9.777  71.335  1.00  0.00    -0.388 C  
BRANCH   3   6
HETATM    6  C   UNL     1     -10.331   8.784  70.311  1.00  0.00    -0.203 A  
HETATM    7  C   UNL     1      -9.069   9.311  70.669  1.00  0.00    -0.309 A  
HETATM    8  C   UNL     1     -11.591   6.574  69.668  1.00  0.00    -0.348 C  
HETATM    9  C   UNL     1     -10.367   7.393  69.990  1.00  0.00    -0.224 A  
HETATM   10  C   UNL     1      -7.902   8.534  70.718  1.00  0.00    -0.097 A  
HETATM   11  C   UNL     1      -7.949   7.196  70.389  1.00  0.00    -0.112 A  
HETATM   12  C   UNL     1      -9.167   6.634  70.028  1.00  0.00    -0.158 A  
ENDBRANCH   3   6
BRANCH   5  13
HETATM   13  C   UNL     1     -13.253  10.956  71.459  1.00  0.00    -0.420 C  
HETATM   14  C   UNL     1     -12.816  12.082  72.049  1.00  0.00    -0.251 C  
HETATM   15  C   UNL     1     -13.645  13.314  72.226  1.00  0.00    -0.703 C  
ENDBRANCH   5  13
ENDBRANCH   2   3
TORSDOF 3
ENDMDL
MODEL      102
REMARK 921   NORMALIZED FREE ENERGY PREDICTED BY IDOCK:   -3.60 KCAL/MOL
REMARK 922        TOTAL FREE ENERGY PREDICTED BY IDOCK:   -4.79 KCAL/MOL
REMARK 923 INTER-LIGAND FREE ENERGY PREDICTED BY IDOCK:   -4.25 KCAL/MOL
REMARK 924 INTRA-LIGAND FREE ENERGY PREDICTED BY IDOCK:   -0.54 KCAL/MOL
REMARK 927      BINDING AFFINITY PREDICTED BY RF-SCORE:    0.00 PKD
ROOT
HETATM    1  C   UNL     1      -8.290   8.373  71.655  1.00  0.00    -0.202 C  
HETATM    2  C   UNL     1      -8.643   9.325  70.520  1.00  0.00    -0.233 C  
ENDROOT
BRANCH   2   3
HETATM    3  N   UNL     1      -9.869   9.216  69.704  1.00  0.00    -0.174 N  
HETATM    4  O   UNL     1     -10.813   8.534  67.663  1.00  0.00    -0.169 OA 
HETATM    5  C   UNL     1      -9.895   9.052  68.307  1.00  0.00    -0.166 C  
BRANCH   3   6
HETATM    6  C   UNL     1     -11.138   9.066  70.452  1.00  0.00    -0.244 A  
HETATM    7  C   UNL     1     -11.790  10.243  70.884  1.00  0.00    -0.473 A  
HETATM    8  C   UNL     1     -11.304   6.447  70.431  1.00  0.00    -0.453 C  
HETATM    9  C   UNL     1     -11.744   7.831  70.836  1.00  0.00    -0.281 A  
HETATM   10  C   UNL     1     -12.968  10.230  71.644  1.00  0.00    -0.570 A  
HETATM   11  C   UNL     1     -13.533   9.031  72.021  1.00  0.00    -0.498 A  
HETATM   12  C   UNL     1     -12.927   7.846  71.622  1.00  0.00    -0.359 A  
ENDBRANCH   3   6
BRANCH   5  13
HETATM   13  C   UNL     1      -8.753   9.576  67.515  1.00  0.00    -0.126 C  
HETATM   14  C   UNL     1      -8.857   9.718  66.182  1.00  0.00    -0.162 C  
HETATM   15  C   UNL     1      -7.760  10.229  65.303  1.00  0.00    -0.144 C  
ENDBRANCH   5  13
ENDBRANCH   2   3
TORSDOF 3
ENDMDL
MODEL      103
REMARK 921   NORMALIZED FREE ENERGY PREDICTED BY IDOCK:   -3.60 KCAL/MOL
REMARK 922        TOTAL FREE ENERGY PREDICTED BY IDOCK:   -4.79 KCAL/MOL
REMARK 923 INTER-LIGAND FREE ENERGY PREDICTED BY IDOCK:   -4.27 KCAL/MOL
REMARK 924 INTRA-LIGAND FREE ENERGY PREDICTED BY IDOCK:   -0.51 KCAL/MOL
REMARK 927      BINDING AFFINITY PREDICTED BY RF-SCORE:    0.00 PKD
ROOT
HETATM    1  C   UNL     1      -8.206  13.756  67.162  1.00  0.00    -0.125 C  
HETATM    2  C   UNL     1      -8.856  12.633  67.960  1.00  0.00    -0.195 C  
ENDROOT
BRANCH   2   3
HETATM    3  N   UNL     1     -10.141  12.001  67.597  1.00  0.00    -0.194 N  
HETATM    4  O   UNL     1     -12.264  12.287  66.631  1.00  0.00    -0.574 OA 
HETATM    5  C   UNL     1     -11.335  12.697  67.335  1.00  0.00    -0.313 C  
BRANCH   3   6
HETATM    6  C   UNL     1     -10.092  10.553  67.295  1.00  0.00    -0.201 A  
HETATM    7  C   UNL     1     -10.321   9.651  68.359  1.00  0.00    -0.233 A  
HETATM    8  C   UNL     1      -9.577  10.699  64.726  1.00  0.00    -0.334 C  
HETATM    9  C   UNL     1      -9.773   9.970  66.030  1.00  0.00    -0.301 A  
HETATM   10  C   UNL     1     -10.249   8.258  68.210  1.00  0.00    -0.246 A  
HETATM   11  C   UNL     1      -9.925   7.710  66.987  1.00  0.00    -0.310 A  
HETATM   12  C   UNL     1      -9.689   8.557  65.912  1.00  0.00    -0.101 A  
ENDBRANCH   3   6
BRANCH   5  13
HETATM   13  C   UNL     1     -11.537  14.019  67.981  1.00  0.00    -0.372 C  
HETATM   14  C   UNL     1     -12.018  14.098  69.234  1.00  0.00    -0.382 C  
HETATM   15  C   UNL     1     -12.260  15.381  69.961  1.00  0.00    -0.392 C  
ENDBRANCH   5  13
ENDBRANCH   2   3
TORSDOF 3
ENDMDL
MODEL      104
REMARK 921   NORMALIZED FREE ENERGY PREDICTED BY IDOCK:   -3.60 KCAL/MOL
REMARK 922        TOTAL FREE ENERGY PREDICTED BY IDOCK:   -4.78 KCAL/MOL
REMARK 923 INTER-LIGAND FREE ENERGY PREDICTED BY IDOCK:   -4.18 KCAL/MOL
REMARK 924 INTRA-LIGAND FREE ENERGY PREDICTED BY IDOCK:   -0.60 KCAL/MOL
REMARK 927      BINDING AFFINITY PREDICTED BY RF-SCORE:    0.00 PKD
ROOT
HETATM    1  C   UNL     1      -8.620   7.744  70.527  1.00  0.00    -0.132 C  
HETATM    2  C   UNL     1      -9.168   9.160  70.649  1.00  0.00    -0.258 C  
ENDROOT
BRANCH   2   3
HETATM    3  N   UNL     1     -10.131   9.756  69.702  1.00  0.00    -0.214 N  
HETATM    4  O   UNL     1     -11.997  11.157  69.423  1.00  0.00    -0.313 OA 
HETATM    5  C   UNL     1     -11.383  10.293  70.056  1.00  0.00    -0.301 C  
BRANCH   3   6
HETATM    6  C   UNL     1      -9.637   9.979  68.324  1.00  0.00    -0.140 A  
HETATM    7  C   UNL     1      -8.870  11.141  68.081  1.00  0.00    -0.148 A  
HETATM    8  C   UNL     1     -10.626   7.827  67.193  1.00  0.00    -0.401 C  
HETATM    9  C   UNL     1      -9.914   9.156  67.190  1.00  0.00    -0.280 A  
HETATM   10  C   UNL     1      -8.392  11.490  66.810  1.00  0.00    -0.165 A  
HETATM   11  C   UNL     1      -8.680  10.694  65.721  1.00  0.00    -0.192 A  
HETATM   12  C   UNL     1      -9.433   9.543  65.910  1.00  0.00    -0.307 A  
ENDBRANCH   3   6
BRANCH   5  13
HETATM   13  C   UNL     1     -12.060   9.760  71.266  1.00  0.00    -0.470 C  
HETATM   14  C   UNL     1     -13.385   9.536  71.261  1.00  0.00    -0.385 C  
HETATM   15  C   UNL     1     -14.153   9.011  72.432  1.00  0.00    -0.478 C  
ENDBRANCH   5  13
ENDBRANCH   2   3
TORSDOF 3
ENDMDL
MODEL      105
REMARK 921   NORMALIZED FREE ENERGY PREDICTED BY IDOCK:   -3.59 KCAL/MOL
REMARK 922        TOTAL FREE ENERGY PREDICTED BY IDOCK:   -4.77 KCAL/MOL
REMARK 923 INTER-LIGAND FREE ENERGY PREDICTED BY IDOCK:   -4.16 KCAL/MOL
REMARK 924 INTRA-LIGAND FREE ENERGY PREDICTED BY IDOCK:   -0.61 KCAL/MOL
REMARK 927      BINDING AFFINITY PREDICTED BY RF-SCORE:    0.00 PKD
ROOT
HETATM    1  C   UNL     1      -7.315  11.073  68.443  1.00  0.00    -0.096 C  
HETATM    2  C   UNL     1      -8.383  10.854  67.379  1.00  0.00    -0.117 C  
ENDROOT
BRANCH   2   3
HETATM    3  N   UNL     1      -9.811  10.627  67.678  1.00  0.00    -0.165 N  
HETATM    4  O   UNL     1     -12.031  11.274  67.258  1.00  0.00    -0.529 OA 
HETATM    5  C   UNL     1     -10.842  11.555  67.441  1.00  0.00    -0.246 C  
BRANCH   3   6
HETATM    6  C   UNL     1     -10.185   9.246  68.060  1.00  0.00    -0.209 A  
HETATM    7  C   UNL     1     -10.371   8.304  67.022  1.00  0.00    -0.393 A  
HETATM    8  C   UNL     1     -10.228   9.551  70.666  1.00  0.00    -0.364 C  
HETATM    9  C   UNL     1     -10.438   8.782  69.387  1.00  0.00    -0.228 A  
HETATM   10  C   UNL     1     -10.776   6.982  67.253  1.00  0.00    -0.412 A  
HETATM   11  C   UNL     1     -11.032   6.552  68.537  1.00  0.00    -0.360 A  
HETATM   12  C   UNL     1     -10.866   7.443  69.590  1.00  0.00    -0.222 A  
ENDBRANCH   3   6
BRANCH   5  13
HETATM   13  C   UNL     1     -10.503  13.001  67.448  1.00  0.00    -0.235 C  
HETATM   14  C   UNL     1     -10.491  13.703  66.302  1.00  0.00    -0.291 C  
HETATM   15  C   UNL     1     -10.155  15.157  66.211  1.00  0.00    -0.299 C  
ENDBRANCH   5  13
ENDBRANCH   2   3
TORSDOF 3
ENDMDL
MODEL      106
REMARK 921   NORMALIZED FREE ENERGY PREDICTED BY IDOCK:   -3.59 KCAL/MOL
REMARK 922        TOTAL FREE ENERGY PREDICTED BY IDOCK:   -4.77 KCAL/MOL
REMARK 923 INTER-LIGAND FREE ENERGY PREDICTED BY IDOCK:   -4.20 KCAL/MOL
REMARK 924 INTRA-LIGAND FREE ENERGY PREDICTED BY IDOCK:   -0.57 KCAL/MOL
REMARK 927      BINDING AFFINITY PREDICTED BY RF-SCORE:    0.00 PKD
ROOT
HETATM    1  C   UNL     1      -7.766  11.794  68.583  1.00  0.00    -0.126 C  
HETATM    2  C   UNL     1      -9.065  11.219  68.033  1.00  0.00    -0.156 C  
ENDROOT
BRANCH   2   3
HETATM    3  N   UNL     1     -10.390  11.840  68.230  1.00  0.00    -0.199 N  
HETATM    4  O   UNL     1     -12.119  12.335  69.743  1.00  0.00    -0.287 OA 
HETATM    5  C   UNL     1     -11.255  11.568  69.306  1.00  0.00    -0.272 C  
BRANCH   3   6
HETATM    6  C   UNL     1     -10.719  12.973  67.335  1.00  0.00    -0.245 A  
HETATM    7  C   UNL     1     -11.315  12.674  66.089  1.00  0.00    -0.375 A  
HETATM    8  C   UNL     1      -9.890  14.940  68.861  1.00  0.00    -0.230 C  
HETATM    9  C   UNL     1     -10.434  14.350  67.585  1.00  0.00    -0.245 A  
HETATM   10  C   UNL     1     -11.624  13.654  65.134  1.00  0.00    -0.333 A  
HETATM   11  C   UNL     1     -11.329  14.977  65.383  1.00  0.00    -0.328 A  
HETATM   12  C   UNL     1     -10.740  15.319  66.593  1.00  0.00    -0.309 A  
ENDBRANCH   3   6
BRANCH   5  13
HETATM   13  C   UNL     1     -11.170  10.236  69.958  1.00  0.00    -0.376 C  
HETATM   14  C   UNL     1     -12.143   9.821  70.788  1.00  0.00    -0.364 C  
HETATM   15  C   UNL     1     -12.139   8.503  71.494  1.00  0.00    -0.351 C  
ENDBRANCH   5  13
ENDBRANCH   2   3
TORSDOF 3
ENDMDL
MODEL      107
REMARK 921   NORMALIZED FREE ENERGY PREDICTED BY IDOCK:   -3.58 KCAL/MOL
REMARK 922        TOTAL FREE ENERGY PREDICTED BY IDOCK:   -4.77 KCAL/MOL
REMARK 923 INTER-LIGAND FREE ENERGY PREDICTED BY IDOCK:   -4.35 KCAL/MOL
REMARK 924 INTRA-LIGAND FREE ENERGY PREDICTED BY IDOCK:   -0.42 KCAL/MOL
REMARK 927      BINDING AFFINITY PREDICTED BY RF-SCORE:    0.00 PKD
ROOT
HETATM    1  C   UNL     1     -10.536   8.805  67.299  1.00  0.00    -0.353 C  
HETATM    2  C   UNL     1     -10.734  10.315  67.334  1.00  0.00    -0.281 C  
ENDROOT
BRANCH   2   3
HETATM    3  N   UNL     1     -10.842  11.104  68.578  1.00  0.00    -0.187 N  
HETATM    4  O   UNL     1     -11.363  13.181  69.544  1.00  0.00    -0.234 OA 
HETATM    5  C   UNL     1     -10.853  12.509  68.642  1.00  0.00    -0.248 C  
BRANCH   3   6
HETATM    6  C   UNL     1     -11.165  10.343  69.806  1.00  0.00    -0.293 A  
HETATM    7  C   UNL     1     -12.525  10.245  70.179  1.00  0.00    -0.179 A  
HETATM    8  C   UNL     1      -8.733   9.629  70.484  1.00  0.00    -0.158 C  
HETATM    9  C   UNL     1     -10.221   9.743  70.694  1.00  0.00    -0.290 A  
HETATM   10  C   UNL     1     -12.952   9.597  71.347  1.00  0.00    -0.474 A  
HETATM   11  C   UNL     1     -12.029   9.036  72.204  1.00  0.00    -0.395 A  
HETATM   12  C   UNL     1     -10.680   9.111  71.880  1.00  0.00    -0.334 A  
ENDBRANCH   3   6
BRANCH   5  13
HETATM   13  C   UNL     1     -10.164  13.269  67.567  1.00  0.00    -0.222 C  
HETATM   14  C   UNL     1     -10.868  13.804  66.554  1.00  0.00    -0.287 C  
HETATM   15  C   UNL     1     -10.261  14.576  65.426  1.00  0.00    -0.415 C  
ENDBRANCH   5  13
ENDBRANCH   2   3
TORSDOF 3
ENDMDL
MODEL      108
REMARK 921   NORMALIZED FREE ENERGY PREDICTED BY IDOCK:   -3.57 KCAL/MOL
REMARK 922        TOTAL FREE ENERGY PREDICTED BY IDOCK:   -4.75 KCAL/MOL
REMARK 923 INTER-LIGAND FREE ENERGY PREDICTED BY IDOCK:   -4.23 KCAL/MOL
REMARK 924 INTRA-LIGAND FREE ENERGY PREDICTED BY IDOCK:   -0.53 KCAL/MOL
REMARK 927      BINDING AFFINITY PREDICTED BY RF-SCORE:    0.00 PKD
ROOT
HETATM    1  C   UNL     1     -10.509  19.888  68.036  1.00  0.00    -0.490 C  
HETATM    2  C   UNL     1      -9.863  18.605  67.531  1.00  0.00    -0.320 C  
ENDROOT
BRANCH   2   3
HETATM    3  N   UNL     1      -8.627  18.027  68.094  1.00  0.00    -0.266 N  
HETATM    4  O   UNL     1      -7.314  16.098  68.377  1.00  0.00    -0.132 OA 
HETATM    5  C   UNL     1      -8.415  16.657  68.337  1.00  0.00    -0.216 C  
BRANCH   3   6
HETATM    6  C   UNL     1      -7.471  18.946  68.209  1.00  0.00    -0.286 A  
HETATM    7  C   UNL     1      -7.130  19.415  69.498  1.00  0.00    -0.244 A  
HETATM    8  C   UNL     1      -6.794  19.054  65.676  1.00  0.00    -0.305 C  
HETATM    9  C   UNL     1      -6.696  19.459  67.124  1.00  0.00    -0.206 A  
HETATM   10  C   UNL     1      -6.092  20.328  69.730  1.00  0.00    -0.385 A  
HETATM   11  C   UNL     1      -5.362  20.827  68.672  1.00  0.00    -0.347 A  
HETATM   12  C   UNL     1      -5.663  20.398  67.385  1.00  0.00    -0.211 A  
ENDBRANCH   3   6
BRANCH   5  13
HETATM   13  C   UNL     1      -9.597  15.801  68.612  1.00  0.00    -0.207 C  
HETATM   14  C   UNL     1     -10.359  16.022  69.697  1.00  0.00    -0.283 C  
HETATM   15  C   UNL     1     -11.560  15.208  70.060  1.00  0.00    -0.326 C  
ENDBRANCH   5  13
ENDBRANCH   2   3
TORSDOF 3
ENDMDL
MODEL      109
REMARK 921   NORMALIZED FREE ENERGY PREDICTED BY IDOCK:   -3.54 KCAL/MOL
REMARK 922        TOTAL FREE ENERGY PREDICTED BY IDOCK:   -4.72 KCAL/MOL
REMARK 923 INTER-LIGAND FREE ENERGY PREDICTED BY IDOCK:   -4.15 KCAL/MOL
REMARK 924 INTRA-LIGAND FREE ENERGY PREDICTED BY IDOCK:   -0.57 KCAL/MOL
REMARK 927      BINDING AFFINITY PREDICTED BY RF-SCORE:    0.00 PKD
ROOT
HETATM    1  C   UNL     1      -8.017  12.944  68.128  1.00  0.00    -0.153 C  
HETATM    2  C   UNL     1      -8.845  13.199  66.876  1.00  0.00    -0.179 C  
ENDROOT
BRANCH   2   3
HETATM    3  N   UNL     1     -10.124  12.521  66.580  1.00  0.00    -0.227 N  
HETATM    4  O   UNL     1     -12.080  12.504  65.278  1.00  0.00    -0.426 OA 
HETATM    5  C   UNL     1     -11.214  13.112  65.916  1.00  0.00    -0.289 C  
BRANCH   3   6
HETATM    6  C   UNL     1     -10.159  11.062  66.825  1.00  0.00    -0.220 A  
HETATM    7  C   UNL     1      -9.434  10.229  65.942  1.00  0.00    -0.241 A  
HETATM    8  C   UNL     1     -11.691  11.052  68.955  1.00  0.00    -0.402 C  
HETATM    9  C   UNL     1     -10.913  10.400  67.842  1.00  0.00    -0.354 A  
HETATM   10  C   UNL     1      -9.432   8.830  66.038  1.00  0.00    -0.302 A  
HETATM   11  C   UNL     1     -10.177   8.204  67.015  1.00  0.00    -0.378 A  
HETATM   12  C   UNL     1     -10.908   8.981  67.904  1.00  0.00    -0.118 A  
ENDBRANCH   3   6
BRANCH   5  13
HETATM   13  C   UNL     1     -11.383  14.585  66.011  1.00  0.00    -0.341 C  
HETATM   14  C   UNL     1     -10.870  15.391  65.065  1.00  0.00    -0.462 C  
HETATM   15  C   UNL     1     -10.982  16.882  65.080  1.00  0.00    -0.060 C  
ENDBRANCH   5  13
ENDBRANCH   2   3
TORSDOF 3
ENDMDL
MODEL      110
REMARK 921   NORMALIZED FREE ENERGY PREDICTED BY IDOCK:   -3.54 KCAL/MOL
REMARK 922        TOTAL FREE ENERGY PREDICTED BY IDOCK:   -4.72 KCAL/MOL
REMARK 923 INTER-LIGAND FREE ENERGY PREDICTED BY IDOCK:   -4.15 KCAL/MOL
REMARK 924 INTRA-LIGAND FREE ENERGY PREDICTED BY IDOCK:   -0.57 KCAL/MOL
REMARK 927      BINDING AFFINITY PREDICTED BY RF-SCORE:    0.00 PKD
ROOT
HETATM    1  C   UNL     1      -7.752   9.844  70.299  1.00  0.00    -0.160 C  
HETATM    2  C   UNL     1      -8.237   9.131  69.044  1.00  0.00    -0.115 C  
ENDROOT
BRANCH   2   3
HETATM    3  N   UNL     1      -9.613   8.630  68.859  1.00  0.00    -0.157 N  
HETATM    4  O   UNL     1     -11.031   7.181  67.670  1.00  0.00    -0.218 OA 
HETATM    5  C   UNL     1     -10.085   7.974  67.707  1.00  0.00    -0.195 C  
BRANCH   3   6
HETATM    6  C   UNL     1     -10.480   8.648  70.060  1.00  0.00    -0.223 A  
HETATM    7  C   UNL     1     -10.392   7.553  70.949  1.00  0.00    -0.203 A  
HETATM    8  C   UNL     1     -11.679  10.946  69.652  1.00  0.00    -0.403 C  
HETATM    9  C   UNL     1     -11.450   9.645  70.380  1.00  0.00    -0.325 A  
HETATM   10  C   UNL     1     -11.197   7.428  72.091  1.00  0.00    -0.302 A  
HETATM   11  C   UNL     1     -12.141   8.391  72.379  1.00  0.00    -0.443 A  
HETATM   12  C   UNL     1     -12.266   9.485  71.532  1.00  0.00    -0.468 A  
ENDBRANCH   3   6
BRANCH   5  13
HETATM   13  C   UNL     1      -9.431   8.277  66.408  1.00  0.00    -0.287 C  
HETATM   14  C   UNL     1      -9.730   9.406  65.742  1.00  0.00    -0.354 C  
HETATM   15  C   UNL     1      -9.130   9.790  64.428  1.00  0.00    -0.296 C  
ENDBRANCH   5  13
ENDBRANCH   2   3
TORSDOF 3
ENDMDL
MODEL      111
REMARK 921   NORMALIZED FREE ENERGY PREDICTED BY IDOCK:   -3.53 KCAL/MOL
REMARK 922        TOTAL FREE ENERGY PREDICTED BY IDOCK:   -4.70 KCAL/MOL
REMARK 923 INTER-LIGAND FREE ENERGY PREDICTED BY IDOCK:   -4.15 KCAL/MOL
REMARK 924 INTRA-LIGAND FREE ENERGY PREDICTED BY IDOCK:   -0.55 KCAL/MOL
REMARK 927      BINDING AFFINITY PREDICTED BY RF-SCORE:    0.00 PKD
ROOT
HETATM    1  C   UNL     1      -9.475   7.549  67.362  1.00  0.00    -0.173 C  
HETATM    2  C   UNL     1     -10.569   7.171  68.352  1.00  0.00    -0.186 C  
ENDROOT
BRANCH   2   3
HETATM    3  N   UNL     1     -10.491   7.425  69.804  1.00  0.00    -0.223 N  
HETATM    4  O   UNL     1      -9.175   7.310  71.748  1.00  0.00    -0.142 OA 
HETATM    5  C   UNL     1      -9.562   6.830  70.678  1.00  0.00    -0.169 C  
BRANCH   3   6
HETATM    6  C   UNL     1     -11.321   8.539  70.317  1.00  0.00    -0.130 A  
HETATM    7  C   UNL     1     -10.996   9.849  69.895  1.00  0.00    -0.321 A  
HETATM    8  C   UNL     1     -12.991   7.148  71.787  1.00  0.00    -0.367 C  
HETATM    9  C   UNL     1     -12.392   8.425  71.254  1.00  0.00    -0.289 A  
HETATM   10  C   UNL     1     -11.672  10.989  70.351  1.00  0.00    -0.437 A  
HETATM   11  C   UNL     1     -12.695  10.865  71.268  1.00  0.00    -0.542 A  
HETATM   12  C   UNL     1     -13.048   9.598  71.714  1.00  0.00    -0.514 A  
ENDBRANCH   3   6
BRANCH   5  13
HETATM   13  C   UNL     1      -9.020   5.493  70.324  1.00  0.00    -0.155 C  
HETATM   14  C   UNL     1      -9.736   4.382  70.568  1.00  0.00    -0.287 C  
HETATM   15  C   UNL     1      -9.269   2.996  70.254  1.00  0.00    -0.213 C  
ENDBRANCH   5  13
ENDBRANCH   2   3
TORSDOF 3
ENDMDL
MODEL      112
REMARK 921   NORMALIZED FREE ENERGY PREDICTED BY IDOCK:   -3.52 KCAL/MOL
REMARK 922        TOTAL FREE ENERGY PREDICTED BY IDOCK:   -4.70 KCAL/MOL
REMARK 923 INTER-LIGAND FREE ENERGY PREDICTED BY IDOCK:   -4.52 KCAL/MOL
REMARK 924 INTRA-LIGAND FREE ENERGY PREDICTED BY IDOCK:   -0.17 KCAL/MOL
REMARK 927      BINDING AFFINITY PREDICTED BY RF-SCORE:    0.00 PKD
ROOT
HETATM    1  C   UNL     1      -8.931   8.643  71.905  1.00  0.00    -0.301 C  
HETATM    2  C   UNL     1     -10.409   8.985  71.766  1.00  0.00    -0.337 C  
ENDROOT
BRANCH   2   3
HETATM    3  N   UNL     1     -11.059   9.330  70.486  1.00  0.00    -0.252 N  
HETATM    4  O   UNL     1     -12.043  11.016  69.177  1.00  0.00    -0.366 OA 
HETATM    5  C   UNL     1     -11.857  10.468  70.268  1.00  0.00    -0.331 C  
BRANCH   3   6
HETATM    6  C   UNL     1     -10.659   8.520  69.313  1.00  0.00    -0.181 A  
HETATM    7  C   UNL     1      -9.896   9.152  68.306  1.00  0.00    -0.181 A  
HETATM    8  C   UNL     1     -11.753   6.240  70.014  1.00  0.00    -0.248 C  
HETATM    9  C   UNL     1     -11.026   7.161  69.069  1.00  0.00    -0.122 A  
HETATM   10  C   UNL     1      -9.503   8.507  67.125  1.00  0.00    -0.208 A  
HETATM   11  C   UNL     1      -9.877   7.200  66.895  1.00  0.00    -0.271 A  
HETATM   12  C   UNL     1     -10.630   6.537  67.855  1.00  0.00    -0.313 A  
ENDBRANCH   3   6
BRANCH   5  13
HETATM   13  C   UNL     1     -12.582  11.052  71.427  1.00  0.00    -0.498 C  
HETATM   14  C   UNL     1     -12.874  12.364  71.456  1.00  0.00    -0.377 C  
HETATM   15  C   UNL     1     -13.591  13.040  72.580  1.00  0.00    -0.537 C  
ENDBRANCH   5  13
ENDBRANCH   2   3
TORSDOF 3
ENDMDL
MODEL      113
REMARK 921   NORMALIZED FREE ENERGY PREDICTED BY IDOCK:   -3.52 KCAL/MOL
REMARK 922        TOTAL FREE ENERGY PREDICTED BY IDOCK:   -4.69 KCAL/MOL
REMARK 923 INTER-LIGAND FREE ENERGY PREDICTED BY IDOCK:   -4.19 KCAL/MOL
REMARK 924 INTRA-LIGAND FREE ENERGY PREDICTED BY IDOCK:   -0.50 KCAL/MOL
REMARK 927      BINDING AFFINITY PREDICTED BY RF-SCORE:    0.00 PKD
ROOT
HETATM    1  C   UNL     1      -7.393  11.341  66.624  1.00  0.00    -0.131 C  
HETATM    2  C   UNL     1      -8.429  11.708  67.678  1.00  0.00    -0.142 C  
ENDROOT
BRANCH   2   3
HETATM    3  N   UNL     1      -9.801  12.157  67.365  1.00  0.00    -0.188 N  
HETATM    4  O   UNL     1     -12.083  11.598  67.304  1.00  0.00    -0.595 OA 
HETATM    5  C   UNL     1     -10.895  11.304  67.132  1.00  0.00    -0.270 C  
BRANCH   3   6
HETATM    6  C   UNL     1     -10.062  13.607  67.515  1.00  0.00    -0.237 A  
HETATM    7  C   UNL     1     -10.024  14.150  68.820  1.00  0.00    -0.184 A  
HETATM    8  C   UNL     1     -10.433  14.209  64.988  1.00  0.00    -0.447 C  
HETATM    9  C   UNL     1     -10.411  14.510  66.465  1.00  0.00    -0.283 A  
HETATM   10  C   UNL     1     -10.306  15.495  69.097  1.00  0.00    -0.237 A  
HETATM   11  C   UNL     1     -10.657  16.352  68.075  1.00  0.00    -0.314 A  
HETATM   12  C   UNL     1     -10.710  15.863  66.776  1.00  0.00    -0.281 A  
ENDBRANCH   3   6
BRANCH   5  13
HETATM   13  C   UNL     1     -10.627   9.945  66.596  1.00  0.00    -0.186 C  
HETATM   14  C   UNL     1     -10.648   8.875  67.411  1.00  0.00    -0.305 C  
HETATM   15  C   UNL     1     -10.383   7.474  66.964  1.00  0.00    -0.395 C  
ENDBRANCH   5  13
ENDBRANCH   2   3
TORSDOF 3
ENDMDL
MODEL      114
REMARK 921   NORMALIZED FREE ENERGY PREDICTED BY IDOCK:   -3.52 KCAL/MOL
REMARK 922        TOTAL FREE ENERGY PREDICTED BY IDOCK:   -4.69 KCAL/MOL
REMARK 923 INTER-LIGAND FREE ENERGY PREDICTED BY IDOCK:   -4.09 KCAL/MOL
REMARK 924 INTRA-LIGAND FREE ENERGY PREDICTED BY IDOCK:   -0.60 KCAL/MOL
REMARK 927      BINDING AFFINITY PREDICTED BY RF-SCORE:    0.00 PKD
ROOT
HETATM    1  C   UNL     1      -7.753   8.411  71.472  1.00  0.00    -0.125 C  
HETATM    2  C   UNL     1      -8.498   9.125  70.353  1.00  0.00    -0.199 C  
ENDROOT
BRANCH   2   3
HETATM    3  N   UNL     1      -9.829   8.719  69.859  1.00  0.00    -0.180 N  
HETATM    4  O   UNL     1     -11.115   7.036  68.841  1.00  0.00    -0.153 OA 
HETATM    5  C   UNL     1     -10.066   7.680  68.940  1.00  0.00    -0.197 C  
BRANCH   3   6
HETATM    6  C   UNL     1     -10.992   9.325  70.547  1.00  0.00    -0.265 A  
HETATM    7  C   UNL     1     -11.511  10.531  70.023  1.00  0.00    -0.393 A  
HETATM    8  C   UNL     1     -11.310   7.537  72.441  1.00  0.00    -0.360 C  
HETATM    9  C   UNL     1     -11.610   8.836  71.738  1.00  0.00    -0.416 A  
HETATM   10  C   UNL     1     -12.575  11.227  70.615  1.00  0.00    -0.377 A  
HETATM   11  C   UNL     1     -13.151  10.752  71.773  1.00  0.00    -0.573 A  
HETATM   12  C   UNL     1     -12.673   9.571  72.328  1.00  0.00    -0.388 A  
ENDBRANCH   3   6
BRANCH   5  13
HETATM   13  C   UNL     1      -8.993   7.339  67.971  1.00  0.00    -0.131 C  
HETATM   14  C   UNL     1      -9.302   6.968  66.717  1.00  0.00    -0.191 C  
HETATM   15  C   UNL     1      -8.292   6.600  65.677  1.00  0.00    -0.144 C  
ENDBRANCH   5  13
ENDBRANCH   2   3
TORSDOF 3
ENDMDL
MODEL      115
REMARK 921   NORMALIZED FREE ENERGY PREDICTED BY IDOCK:   -3.52 KCAL/MOL
REMARK 922        TOTAL FREE ENERGY PREDICTED BY IDOCK:   -4.69 KCAL/MOL
REMARK 923 INTER-LIGAND FREE ENERGY PREDICTED BY IDOCK:   -4.14 KCAL/MOL
REMARK 924 INTRA-LIGAND FREE ENERGY PREDICTED BY IDOCK:   -0.55 KCAL/MOL
REMARK 927      BINDING AFFINITY PREDICTED BY RF-SCORE:    0.00 PKD
ROOT
HETATM    1  C   UNL     1      -9.270   8.803  71.679  1.00  0.00    -0.333 C  
HETATM    2  C   UNL     1     -10.614   9.225  71.101  1.00  0.00    -0.332 C  
ENDROOT
BRANCH   2   3
HETATM    3  N   UNL     1     -10.768  10.021  69.867  1.00  0.00    -0.265 N  
HETATM    4  O   UNL     1     -11.135  12.149  68.938  1.00  0.00    -0.222 OA 
HETATM    5  C   UNL     1     -11.367  11.293  69.798  1.00  0.00    -0.271 C  
BRANCH   3   6
HETATM    6  C   UNL     1     -10.053   9.517  68.673  1.00  0.00    -0.181 A  
HETATM    7  C   UNL     1     -10.710   8.557  67.870  1.00  0.00    -0.148 A  
HETATM    8  C   UNL     1      -7.848  10.920  68.907  1.00  0.00    -0.142 C  
HETATM    9  C   UNL     1      -8.724   9.866  68.282  1.00  0.00    -0.119 A  
HETATM   10  C   UNL     1     -10.117   7.966  66.745  1.00  0.00    -0.352 A  
HETATM   11  C   UNL     1      -8.828   8.300  66.388  1.00  0.00    -0.180 A  
HETATM   12  C   UNL     1      -8.141   9.238  67.149  1.00  0.00    -0.109 A  
ENDBRANCH   3   6
BRANCH   5  13
HETATM   13  C   UNL     1     -12.398  11.642  70.809  1.00  0.00    -0.454 C  
HETATM   14  C   UNL     1     -12.580  12.920  71.182  1.00  0.00    -0.373 C  
HETATM   15  C   UNL     1     -13.586  13.365  72.195  1.00  0.00    -0.660 C  
ENDBRANCH   5  13
ENDBRANCH   2   3
TORSDOF 3
ENDMDL
MODEL      116
REMARK 921   NORMALIZED FREE ENERGY PREDICTED BY IDOCK:   -3.51 KCAL/MOL
REMARK 922        TOTAL FREE ENERGY PREDICTED BY IDOCK:   -4.68 KCAL/MOL
REMARK 923 INTER-LIGAND FREE ENERGY PREDICTED BY IDOCK:   -4.28 KCAL/MOL
REMARK 924 INTRA-LIGAND FREE ENERGY PREDICTED BY IDOCK:   -0.40 KCAL/MOL
REMARK 927      BINDING AFFINITY PREDICTED BY RF-SCORE:    0.00 PKD
ROOT
HETATM    1  C   UNL     1      -8.575  15.371  66.486  1.00  0.00    -0.294 C  
HETATM    2  C   UNL     1      -7.294  15.896  67.119  1.00  0.00    -0.223 C  
ENDROOT
BRANCH   2   3
HETATM    3  N   UNL     1      -7.237  17.069  68.015  1.00  0.00    -0.164 N  
HETATM    4  O   UNL     1      -5.923  18.362  69.472  1.00  0.00    -0.236 OA 
HETATM    5  C   UNL     1      -6.275  17.267  69.023  1.00  0.00    -0.209 C  
BRANCH   3   6
HETATM    6  C   UNL     1      -8.136  18.194  67.673  1.00  0.00    -0.234 A  
HETATM    7  C   UNL     1      -9.296  18.371  68.462  1.00  0.00    -0.354 A  
HETATM    8  C   UNL     1      -6.794  19.176  65.644  1.00  0.00    -0.308 C  
HETATM    9  C   UNL     1      -7.976  19.093  66.575  1.00  0.00    -0.296 A  
HETATM   10  C   UNL     1     -10.251  19.366  68.206  1.00  0.00    -0.535 A  
HETATM   11  C   UNL     1     -10.091  20.216  67.132  1.00  0.00    -0.590 A  
HETATM   12  C   UNL     1      -8.968  20.079  66.327  1.00  0.00    -0.383 A  
ENDBRANCH   3   6
BRANCH   5  13
HETATM   13  C   UNL     1      -5.649  16.071  69.644  1.00  0.00    -0.130 C  
HETATM   14  C   UNL     1      -6.413  15.070  70.115  1.00  0.00    -0.136 C  
HETATM   15  C   UNL     1      -5.874  13.834  70.761  1.00  0.00    -0.188 C  
ENDBRANCH   5  13
ENDBRANCH   2   3
TORSDOF 3
ENDMDL
MODEL      117
REMARK 921   NORMALIZED FREE ENERGY PREDICTED BY IDOCK:   -3.49 KCAL/MOL
REMARK 922        TOTAL FREE ENERGY PREDICTED BY IDOCK:   -4.66 KCAL/MOL
REMARK 923 INTER-LIGAND FREE ENERGY PREDICTED BY IDOCK:   -4.36 KCAL/MOL
REMARK 924 INTRA-LIGAND FREE ENERGY PREDICTED BY IDOCK:   -0.30 KCAL/MOL
REMARK 927      BINDING AFFINITY PREDICTED BY RF-SCORE:    0.00 PKD
ROOT
HETATM    1  C   UNL     1      -8.382  13.671  68.513  1.00  0.00    -0.110 C  
HETATM    2  C   UNL     1      -9.837  13.285  68.285  1.00  0.00    -0.231 C  
ENDROOT
BRANCH   2   3
HETATM    3  N   UNL     1     -10.287  11.913  67.976  1.00  0.00    -0.190 N  
HETATM    4  O   UNL     1     -10.505  10.243  66.337  1.00  0.00    -0.224 OA 
HETATM    5  C   UNL     1     -10.561  11.427  66.684  1.00  0.00    -0.258 C  
BRANCH   3   6
HETATM    6  C   UNL     1     -10.241  10.944  69.094  1.00  0.00    -0.195 A  
HETATM    7  C   UNL     1      -9.164  10.030  69.128  1.00  0.00    -0.196 A  
HETATM    8  C   UNL     1     -12.411  11.697  70.364  1.00  0.00    -0.373 C  
HETATM    9  C   UNL     1     -11.223  10.801  70.122  1.00  0.00    -0.345 A  
HETATM   10  C   UNL     1      -9.037   9.032  70.105  1.00  0.00    -0.206 A  
HETATM   11  C   UNL     1     -10.001   8.895  71.082  1.00  0.00    -0.342 A  
HETATM   12  C   UNL     1     -11.081   9.770  71.088  1.00  0.00    -0.414 A  
ENDBRANCH   3   6
BRANCH   5  13
HETATM   13  C   UNL     1     -10.996  12.395  65.645  1.00  0.00    -0.321 C  
HETATM   14  C   UNL     1     -11.612  11.966  64.530  1.00  0.00    -0.344 C  
HETATM   15  C   UNL     1     -12.077  12.864  63.428  1.00  0.00    -0.610 C  
ENDBRANCH   5  13
ENDBRANCH   2   3
TORSDOF 3
ENDMDL
MODEL      118
REMARK 921   NORMALIZED FREE ENERGY PREDICTED BY IDOCK:   -3.49 KCAL/MOL
REMARK 922        TOTAL FREE ENERGY PREDICTED BY IDOCK:   -4.65 KCAL/MOL
REMARK 923 INTER-LIGAND FREE ENERGY PREDICTED BY IDOCK:   -4.85 KCAL/MOL
REMARK 924 INTRA-LIGAND FREE ENERGY PREDICTED BY IDOCK:    0.19 KCAL/MOL
REMARK 927      BINDING AFFINITY PREDICTED BY RF-SCORE:    0.00 PKD
ROOT
HETATM    1  C   UNL     1      -8.952   9.085  68.984  1.00  0.00    -0.140 C  
HETATM    2  C   UNL     1      -9.504  10.476  69.265  1.00  0.00    -0.173 C  
ENDROOT
BRANCH   2   3
HETATM    3  N   UNL     1     -10.944  10.795  69.331  1.00  0.00    -0.237 N  
HETATM    4  O   UNL     1     -12.877  10.873  70.666  1.00  0.00    -0.317 OA 
HETATM    5  C   UNL     1     -11.831  10.318  70.315  1.00  0.00    -0.288 C  
BRANCH   3   6
HETATM    6  C   UNL     1     -11.421  11.852  68.411  1.00  0.00    -0.299 A  
HETATM    7  C   UNL     1     -11.497  11.541  67.035  1.00  0.00    -0.290 A  
HETATM    8  C   UNL     1     -11.846  13.751  70.173  1.00  0.00    -0.360 C  
HETATM    9  C   UNL     1     -11.758  13.192  68.776  1.00  0.00    -0.363 A  
HETATM   10  C   UNL     1     -11.883  12.472  66.060  1.00  0.00    -0.478 A  
HETATM   11  C   UNL     1     -12.190  13.766  66.424  1.00  0.00    -0.480 A  
HETATM   12  C   UNL     1     -12.127  14.120  67.766  1.00  0.00    -0.321 A  
ENDBRANCH   3   6
BRANCH   5  13
HETATM   13  C   UNL     1     -11.524   9.020  70.969  1.00  0.00    -0.358 C  
HETATM   14  C   UNL     1     -11.441   8.936  72.308  1.00  0.00    -0.307 C  
HETATM   15  C   UNL     1     -11.131   7.678  73.054  1.00  0.00    -0.437 C  
ENDBRANCH   5  13
ENDBRANCH   2   3
TORSDOF 3
ENDMDL
MODEL      119
REMARK 921   NORMALIZED FREE ENERGY PREDICTED BY IDOCK:   -3.49 KCAL/MOL
REMARK 922        TOTAL FREE ENERGY PREDICTED BY IDOCK:   -4.65 KCAL/MOL
REMARK 923 INTER-LIGAND FREE ENERGY PREDICTED BY IDOCK:   -4.11 KCAL/MOL
REMARK 924 INTRA-LIGAND FREE ENERGY PREDICTED BY IDOCK:   -0.54 KCAL/MOL
REMARK 927      BINDING AFFINITY PREDICTED BY RF-SCORE:    0.00 PKD
ROOT
HETATM    1  C   UNL     1     -13.469   9.544  71.698  1.00  0.00    -0.463 C  
HETATM    2  C   UNL     1     -11.949   9.491  71.620  1.00  0.00    -0.401 C  
ENDROOT
BRANCH   2   3
HETATM    3  N   UNL     1     -11.202   8.756  70.579  1.00  0.00    -0.256 N  
HETATM    4  O   UNL     1     -11.071   6.817  69.259  1.00  0.00    -0.260 OA 
HETATM    5  C   UNL     1     -11.308   7.374  70.335  1.00  0.00    -0.249 C  
BRANCH   3   6
HETATM    6  C   UNL     1     -10.454   9.585  69.607  1.00  0.00    -0.223 A  
HETATM    7  C   UNL     1     -11.193  10.235  68.592  1.00  0.00    -0.263 A  
HETATM    8  C   UNL     1      -8.035   9.237  70.563  1.00  0.00    -0.188 C  
HETATM    9  C   UNL     1      -9.035   9.745  69.557  1.00  0.00    -0.215 A  
HETATM   10  C   UNL     1     -10.594  11.003  67.583  1.00  0.00    -0.255 A  
HETATM   11  C   UNL     1      -9.223  11.136  67.538  1.00  0.00    -0.155 A  
HETATM   12  C   UNL     1      -8.454  10.513  68.513  1.00  0.00    -0.131 A  
ENDBRANCH   3   6
BRANCH   5  13
HETATM   13  C   UNL     1     -11.695   6.488  71.462  1.00  0.00    -0.376 C  
HETATM   14  C   UNL     1     -10.760   5.992  72.291  1.00  0.00    -0.272 C  
HETATM   15  C   UNL     1     -11.053   5.088  73.445  1.00  0.00    -0.404 C  
ENDBRANCH   5  13
ENDBRANCH   2   3
TORSDOF 3
ENDMDL
MODEL      120
REMARK 921   NORMALIZED FREE ENERGY PREDICTED BY IDOCK:   -3.48 KCAL/MOL
REMARK 922        TOTAL FREE ENERGY PREDICTED BY IDOCK:   -4.64 KCAL/MOL
REMARK 923 INTER-LIGAND FREE ENERGY PREDICTED BY IDOCK:   -4.41 KCAL/MOL
REMARK 924 INTRA-LIGAND FREE ENERGY PREDICTED BY IDOCK:   -0.23 KCAL/MOL
REMARK 927      BINDING AFFINITY PREDICTED BY RF-SCORE:    0.00 PKD
ROOT
HETATM    1  C   UNL     1      -9.765  16.993  66.074  1.00  0.00    -0.243 C  
HETATM    2  C   UNL     1      -9.307  15.560  65.839  1.00  0.00    -0.319 C  
ENDROOT
BRANCH   2   3
HETATM    3  N   UNL     1     -10.012  14.372  66.361  1.00  0.00    -0.283 N  
HETATM    4  O   UNL     1     -11.225  13.437  68.143  1.00  0.00    -0.248 OA 
HETATM    5  C   UNL     1     -10.302  14.139  67.718  1.00  0.00    -0.242 C  
BRANCH   3   6
HETATM    6  C   UNL     1     -10.627  13.483  65.349  1.00  0.00    -0.308 A  
HETATM    7  C   UNL     1     -10.083  12.187  65.197  1.00  0.00    -0.288 A  
HETATM    8  C   UNL     1     -12.495  15.104  64.475  1.00  0.00    -0.099 C  
HETATM    9  C   UNL     1     -11.689  13.831  64.461  1.00  0.00    -0.432 A  
HETATM   10  C   UNL     1     -10.543  11.273  64.238  1.00  0.00    -0.422 A  
HETATM   11  C   UNL     1     -11.559  11.628  63.376  1.00  0.00    -0.340 A  
HETATM   12  C   UNL     1     -12.123  12.893  63.487  1.00  0.00    -0.633 A  
ENDBRANCH   3   6
BRANCH   5  13
HETATM   13  C   UNL     1      -9.411  14.743  68.742  1.00  0.00    -0.206 C  
HETATM   14  C   UNL     1      -8.085  14.527  68.704  1.00  0.00    -0.150 C  
HETATM   15  C   UNL     1      -7.114  15.086  69.694  1.00  0.00    -0.193 C  
ENDBRANCH   5  13
ENDBRANCH   2   3
TORSDOF 3
ENDMDL
MODEL      121
REMARK 921   NORMALIZED FREE ENERGY PREDICTED BY IDOCK:   -3.47 KCAL/MOL
REMARK 922        TOTAL FREE ENERGY PREDICTED BY IDOCK:   -4.64 KCAL/MOL
REMARK 923 INTER-LIGAND FREE ENERGY PREDICTED BY IDOCK:   -4.02 KCAL/MOL
REMARK 924 INTRA-LIGAND FREE ENERGY PREDICTED BY IDOCK:   -0.62 KCAL/MOL
REMARK 927      BINDING AFFINITY PREDICTED BY RF-SCORE:    0.00 PKD
ROOT
HETATM    1  C   UNL     1     -13.286   9.916  71.619  1.00  0.00    -0.481 C  
HETATM    2  C   UNL     1     -11.983  10.456  71.046  1.00  0.00    -0.382 C  
ENDROOT
BRANCH   2   3
HETATM    3  N   UNL     1     -11.014   9.640  70.288  1.00  0.00    -0.264 N  
HETATM    4  O   UNL     1      -9.420   9.586  68.562  1.00  0.00    -0.140 OA 
HETATM    5  C   UNL     1     -10.502   9.968  69.019  1.00  0.00    -0.214 C  
BRANCH   3   6
HETATM    6  C   UNL     1     -10.398   8.511  71.022  1.00  0.00    -0.209 A  
HETATM    7  C   UNL     1      -9.446   8.817  72.021  1.00  0.00    -0.336 A  
HETATM    8  C   UNL     1     -11.652   6.534  69.836  1.00  0.00    -0.433 C  
HETATM    9  C   UNL     1     -10.630   7.123  70.775  1.00  0.00    -0.240 A  
HETATM   10  C   UNL     1      -8.755   7.836  72.746  1.00  0.00    -0.208 A  
HETATM   11  C   UNL     1      -8.978   6.500  72.487  1.00  0.00    -0.136 A  
HETATM   12  C   UNL     1      -9.904   6.150  71.511  1.00  0.00    -0.190 A  
ENDBRANCH   3   6
BRANCH   5  13
HETATM   13  C   UNL     1     -11.334  10.808  68.120  1.00  0.00    -0.377 C  
HETATM   14  C   UNL     1     -10.992  10.971  66.831  1.00  0.00    -0.311 C  
HETATM   15  C   UNL     1     -11.762  11.802  65.855  1.00  0.00    -0.094 C  
ENDBRANCH   5  13
ENDBRANCH   2   3
TORSDOF 3
ENDMDL
MODEL      122
REMARK 921   NORMALIZED FREE ENERGY PREDICTED BY IDOCK:   -3.47 KCAL/MOL
REMARK 922        TOTAL FREE ENERGY PREDICTED BY IDOCK:   -4.63 KCAL/MOL
REMARK 923 INTER-LIGAND FREE ENERGY PREDICTED BY IDOCK:   -4.04 KCAL/MOL
REMARK 924 INTRA-LIGAND FREE ENERGY PREDICTED BY IDOCK:   -0.58 KCAL/MOL
REMARK 927      BINDING AFFINITY PREDICTED BY RF-SCORE:    0.00 PKD
ROOT
HETATM    1  C   UNL     1      -7.552  12.398  67.306  1.00  0.00    -0.141 C  
HETATM    2  C   UNL     1      -8.643  11.791  66.433  1.00  0.00    -0.113 C  
ENDROOT
BRANCH   2   3
HETATM    3  N   UNL     1     -10.071  11.752  66.806  1.00  0.00    -0.207 N  
HETATM    4  O   UNL     1     -12.291  12.074  66.105  1.00  0.00    -0.449 OA 
HETATM    5  C   UNL     1     -11.103  12.412  66.114  1.00  0.00    -0.302 C  
BRANCH   3   6
HETATM    6  C   UNL     1     -10.443  10.779  67.858  1.00  0.00    -0.199 A  
HETATM    7  C   UNL     1     -10.816  11.289  69.122  1.00  0.00    -0.269 A  
HETATM    8  C   UNL     1     -10.131   8.566  66.483  1.00  0.00    -0.328 C  
HETATM    9  C   UNL     1     -10.405   9.356  67.737  1.00  0.00    -0.291 A  
HETATM   10  C   UNL     1     -11.138  10.469  70.213  1.00  0.00    -0.359 A  
HETATM   11  C   UNL     1     -11.081   9.097  70.087  1.00  0.00    -0.248 A  
HETATM   12  C   UNL     1     -10.717   8.549  68.863  1.00  0.00    -0.100 A  
ENDBRANCH   3   6
BRANCH   5  13
HETATM   13  C   UNL     1     -10.767  13.646  65.358  1.00  0.00    -0.311 C  
HETATM   14  C   UNL     1     -10.851  14.851  65.949  1.00  0.00    -0.336 C  
HETATM   15  C   UNL     1     -10.541  16.145  65.267  1.00  0.00    -0.390 C  
ENDBRANCH   5  13
ENDBRANCH   2   3
TORSDOF 3
ENDMDL
MODEL      123
REMARK 921   NORMALIZED FREE ENERGY PREDICTED BY IDOCK:   -3.46 KCAL/MOL
REMARK 922        TOTAL FREE ENERGY PREDICTED BY IDOCK:   -4.62 KCAL/MOL
REMARK 923 INTER-LIGAND FREE ENERGY PREDICTED BY IDOCK:   -5.12 KCAL/MOL
REMARK 924 INTRA-LIGAND FREE ENERGY PREDICTED BY IDOCK:    0.49 KCAL/MOL
REMARK 927      BINDING AFFINITY PREDICTED BY RF-SCORE:    0.00 PKD
ROOT
HETATM    1  C   UNL     1     -13.556   9.449  72.245  1.00  0.00    -0.532 C  
HETATM    2  C   UNL     1     -13.299  10.098  70.891  1.00  0.00    -0.207 C  
ENDROOT
BRANCH   2   3
HETATM    3  N   UNL     1     -12.037  10.772  70.526  1.00  0.00    -0.334 N  
HETATM    4  O   UNL     1      -9.909  10.557  69.552  1.00  0.00    -0.213 OA 
HETATM    5  C   UNL     1     -10.821  10.116  70.258  1.00  0.00    -0.310 C  
BRANCH   3   6
HETATM    6  C   UNL     1     -12.134  12.218  70.225  1.00  0.00    -0.295 A  
HETATM    7  C   UNL     1     -11.616  12.669  68.990  1.00  0.00    -0.367 A  
HETATM    8  C   UNL     1     -13.337  13.002  72.422  1.00  0.00    -0.563 C  
HETATM    9  C   UNL     1     -12.651  13.224  71.098  1.00  0.00    -0.412 A  
HETATM   10  C   UNL     1     -11.601  14.020  68.614  1.00  0.00    -0.360 A  
HETATM   11  C   UNL     1     -12.088  14.981  69.473  1.00  0.00    -0.311 A  
HETATM   12  C   UNL     1     -12.606  14.587  70.701  1.00  0.00    -0.416 A  
ENDBRANCH   3   6
BRANCH   5  13
HETATM   13  C   UNL     1     -10.575   8.799  70.902  1.00  0.00    -0.276 C  
HETATM   14  C   UNL     1     -10.724   7.661  70.202  1.00  0.00    -0.245 C  
HETATM   15  C   UNL     1     -10.507   6.294  70.766  1.00  0.00    -0.273 C  
ENDBRANCH   5  13
ENDBRANCH   2   3
TORSDOF 3
ENDMDL
MODEL      124
REMARK 921   NORMALIZED FREE ENERGY PREDICTED BY IDOCK:   -3.45 KCAL/MOL
REMARK 922        TOTAL FREE ENERGY PREDICTED BY IDOCK:   -4.61 KCAL/MOL
REMARK 923 INTER-LIGAND FREE ENERGY PREDICTED BY IDOCK:   -4.04 KCAL/MOL
REMARK 924 INTRA-LIGAND FREE ENERGY PREDICTED BY IDOCK:   -0.56 KCAL/MOL
REMARK 927      BINDING AFFINITY PREDICTED BY RF-SCORE:    0.00 PKD
ROOT
HETATM    1  C   UNL     1     -10.350  14.187  66.609  1.00  0.00    -0.277 C  
HETATM    2  C   UNL     1      -9.291  15.146  66.080  1.00  0.00    -0.311 C  
ENDROOT
BRANCH   2   3
HETATM    3  N   UNL     1      -8.453  16.005  66.940  1.00  0.00    -0.216 N  
HETATM    4  O   UNL     1      -6.285  16.508  67.693  1.00  0.00    -0.120 OA 
HETATM    5  C   UNL     1      -7.151  15.689  67.371  1.00  0.00    -0.207 C  
BRANCH   3   6
HETATM    6  C   UNL     1      -8.959  17.376  67.183  1.00  0.00    -0.240 A  
HETATM    7  C   UNL     1      -8.515  18.402  66.318  1.00  0.00    -0.218 A  
HETATM    8  C   UNL     1     -10.493  16.875  69.252  1.00  0.00    -0.319 C  
HETATM    9  C   UNL     1      -9.814  17.778  68.254  1.00  0.00    -0.340 A  
HETATM   10  C   UNL     1      -8.880  19.747  66.477  1.00  0.00    -0.420 A  
HETATM   11  C   UNL     1      -9.693  20.123  67.524  1.00  0.00    -0.557 A  
HETATM   12  C   UNL     1     -10.152  19.149  68.402  1.00  0.00    -0.498 A  
ENDBRANCH   3   6
BRANCH   5  13
HETATM   13  C   UNL     1      -6.780  14.257  67.497  1.00  0.00    -0.128 C  
HETATM   14  C   UNL     1      -6.948  13.610  68.664  1.00  0.00    -0.103 C  
HETATM   15  C   UNL     1      -6.596  12.174  68.887  1.00  0.00    -0.090 C  
ENDBRANCH   5  13
ENDBRANCH   2   3
TORSDOF 3
ENDMDL
MODEL      125
REMARK 921   NORMALIZED FREE ENERGY PREDICTED BY IDOCK:   -3.45 KCAL/MOL
REMARK 922        TOTAL FREE ENERGY PREDICTED BY IDOCK:   -4.61 KCAL/MOL
REMARK 923 INTER-LIGAND FREE ENERGY PREDICTED BY IDOCK:   -4.01 KCAL/MOL
REMARK 924 INTRA-LIGAND FREE ENERGY PREDICTED BY IDOCK:   -0.59 KCAL/MOL
REMARK 927      BINDING AFFINITY PREDICTED BY RF-SCORE:    0.00 PKD
ROOT
HETATM    1  C   UNL     1      -8.357  13.495  66.742  1.00  0.00     0.097 C  
HETATM    2  C   UNL     1      -9.450  14.548  66.609  1.00  0.00    -0.283 C  
ENDROOT
BRANCH   2   3
HETATM    3  N   UNL     1     -10.128  15.182  67.757  1.00  0.00    -0.230 N  
HETATM    4  O   UNL     1     -11.129  14.871  69.860  1.00  0.00    -0.258 OA 
HETATM    5  C   UNL     1     -10.922  14.502  68.700  1.00  0.00    -0.251 C  
BRANCH   3   6
HETATM    6  C   UNL     1      -9.767  16.591  68.031  1.00  0.00    -0.236 A  
HETATM    7  C   UNL     1     -10.647  17.597  67.571  1.00  0.00    -0.345 A  
HETATM    8  C   UNL     1      -7.521  16.182  69.325  1.00  0.00    -0.222 C  
HETATM    9  C   UNL     1      -8.571  17.041  68.670  1.00  0.00    -0.265 A  
HETATM   10  C   UNL     1     -10.388  18.967  67.722  1.00  0.00    -0.490 A  
HETATM   11  C   UNL     1      -9.223  19.387  68.326  1.00  0.00    -0.402 A  
HETATM   12  C   UNL     1      -8.325  18.435  68.792  1.00  0.00    -0.255 A  
ENDBRANCH   3   6
BRANCH   5  13
HETATM   13  C   UNL     1     -11.611  13.257  68.274  1.00  0.00    -0.369 C  
HETATM   14  C   UNL     1     -11.110  12.055  68.606  1.00  0.00    -0.298 C  
HETATM   15  C   UNL     1     -11.729  10.750  68.216  1.00  0.00    -0.205 C  
ENDBRANCH   5  13
ENDBRANCH   2   3
TORSDOF 3
ENDMDL
MODEL      126
REMARK 921   NORMALIZED FREE ENERGY PREDICTED BY IDOCK:   -3.41 KCAL/MOL
REMARK 922        TOTAL FREE ENERGY PREDICTED BY IDOCK:   -4.56 KCAL/MOL
REMARK 923 INTER-LIGAND FREE ENERGY PREDICTED BY IDOCK:   -3.91 KCAL/MOL
REMARK 924 INTRA-LIGAND FREE ENERGY PREDICTED BY IDOCK:   -0.64 KCAL/MOL
REMARK 927      BINDING AFFINITY PREDICTED BY RF-SCORE:    0.00 PKD
ROOT
HETATM    1  C   UNL     1     -10.551  11.414  64.801  1.00  0.00    -0.377 C  
HETATM    2  C   UNL     1     -11.218  11.471  66.169  1.00  0.00    -0.202 C  
ENDROOT
BRANCH   2   3
HETATM    3  N   UNL     1     -10.674  12.217  67.321  1.00  0.00    -0.223 N  
HETATM    4  O   UNL     1     -10.983  13.989  68.834  1.00  0.00    -0.247 OA 
HETATM    5  C   UNL     1     -11.061  13.517  67.695  1.00  0.00    -0.269 C  
BRANCH   3   6
HETATM    6  C   UNL     1      -9.817  11.446  68.251  1.00  0.00    -0.200 A  
HETATM    7  C   UNL     1      -8.420  11.482  68.039  1.00  0.00    -0.148 A  
HETATM    8  C   UNL     1     -11.692  10.471  69.806  1.00  0.00    -0.354 C  
HETATM    9  C   UNL     1     -10.273  10.613  69.317  1.00  0.00    -0.235 A  
HETATM   10  C   UNL     1      -7.509  10.753  68.817  1.00  0.00    -0.109 A  
HETATM   11  C   UNL     1      -7.965   9.940  69.833  1.00  0.00    -0.193 A  
HETATM   12  C   UNL     1      -9.331   9.871  70.078  1.00  0.00    -0.232 A  
ENDBRANCH   3   6
BRANCH   5  13
HETATM   13  C   UNL     1     -11.571  14.430  66.640  1.00  0.00    -0.396 C  
HETATM   14  C   UNL     1     -10.715  15.076  65.828  1.00  0.00    -0.351 C  
HETATM   15  C   UNL     1     -11.134  16.018  64.745  1.00  0.00    -0.378 C  
ENDBRANCH   5  13
ENDBRANCH   2   3
TORSDOF 3
ENDMDL
MODEL      127
REMARK 921   NORMALIZED FREE ENERGY PREDICTED BY IDOCK:   -3.40 KCAL/MOL
REMARK 922        TOTAL FREE ENERGY PREDICTED BY IDOCK:   -4.54 KCAL/MOL
REMARK 923 INTER-LIGAND FREE ENERGY PREDICTED BY IDOCK:   -4.01 KCAL/MOL
REMARK 924 INTRA-LIGAND FREE ENERGY PREDICTED BY IDOCK:   -0.53 KCAL/MOL
REMARK 927      BINDING AFFINITY PREDICTED BY RF-SCORE:    0.00 PKD
ROOT
HETATM    1  C   UNL     1      -7.387  16.775  68.524  1.00  0.00    -0.205 C  
HETATM    2  C   UNL     1      -8.616  16.225  69.237  1.00  0.00    -0.148 C  
ENDROOT
BRANCH   2   3
HETATM    3  N   UNL     1     -10.004  16.480  68.802  1.00  0.00    -0.243 N  
HETATM    4  O   UNL     1     -12.288  16.290  69.320  1.00  0.00     0.012 OA 
HETATM    5  C   UNL     1     -11.142  15.831  69.316  1.00  0.00    -0.297 C  
BRANCH   3   6
HETATM    6  C   UNL     1     -10.204  17.647  67.913  1.00  0.00    -0.357 A  
HETATM    7  C   UNL     1     -10.477  17.394  66.549  1.00  0.00    -0.264 A  
HETATM    8  C   UNL     1      -9.895  19.557  69.685  1.00  0.00     0.010 C  
HETATM    9  C   UNL     1     -10.089  19.019  68.290  1.00  0.00    -0.466 A  
HETATM   10  C   UNL     1     -10.633  18.414  65.599  1.00  0.00    -0.128 A  
HETATM   11  C   UNL     1     -10.503  19.734  65.974  1.00  0.00    -0.609 A  
HETATM   12  C   UNL     1     -10.233  20.031  67.304  1.00  0.00    -0.565 A  
ENDBRANCH   3   6
BRANCH   5  13
HETATM   13  C   UNL     1     -10.981  14.461  69.867  1.00  0.00    -0.103 C  
HETATM   14  C   UNL     1     -12.059  13.692  70.104  1.00  0.00    -0.431 C  
HETATM   15  C   UNL     1     -11.996  12.307  70.664  1.00  0.00    -0.218 C  
ENDBRANCH   5  13
ENDBRANCH   2   3
TORSDOF 3
ENDMDL
MODEL      128
REMARK 921   NORMALIZED FREE ENERGY PREDICTED BY IDOCK:   -3.39 KCAL/MOL
REMARK 922        TOTAL FREE ENERGY PREDICTED BY IDOCK:   -4.54 KCAL/MOL
REMARK 923 INTER-LIGAND FREE ENERGY PREDICTED BY IDOCK:   -4.29 KCAL/MOL
REMARK 924 INTRA-LIGAND FREE ENERGY PREDICTED BY IDOCK:   -0.25 KCAL/MOL
REMARK 927      BINDING AFFINITY PREDICTED BY RF-SCORE:    0.00 PKD
ROOT
HETATM    1  C   UNL     1     -12.138  14.653  70.972  1.00  0.00    -0.393 C  
HETATM    2  C   UNL     1     -11.956  14.703  69.461  1.00  0.00    -0.319 C  
ENDROOT
BRANCH   2   3
HETATM    3  N   UNL     1     -10.923  13.942  68.729  1.00  0.00    -0.256 N  
HETATM    4  O   UNL     1     -10.348  11.913  67.693  1.00  0.00    -0.196 OA 
HETATM    5  C   UNL     1     -10.889  12.540  68.609  1.00  0.00    -0.248 C  
BRANCH   3   6
HETATM    6  C   UNL     1      -9.989  14.740  67.902  1.00  0.00    -0.213 A  
HETATM    7  C   UNL     1      -8.807  15.212  68.517  1.00  0.00    -0.185 A  
HETATM    8  C   UNL     1     -11.321  14.695  65.642  1.00  0.00    -0.338 C  
HETATM    9  C   UNL     1     -10.198  15.134  66.545  1.00  0.00    -0.283 A  
HETATM   10  C   UNL     1      -7.872  16.020  67.855  1.00  0.00    -0.148 A  
HETATM   11  C   UNL     1      -8.093  16.406  66.550  1.00  0.00    -0.345 A  
HETATM   12  C   UNL     1      -9.243  15.969  65.905  1.00  0.00    -0.321 A  
ENDBRANCH   3   6
BRANCH   5  13
HETATM   13  C   UNL     1     -11.513  11.726  69.683  1.00  0.00    -0.341 C  
HETATM   14  C   UNL     1     -11.253  10.411  69.778  1.00  0.00    -0.353 C  
HETATM   15  C   UNL     1     -11.840   9.511  70.819  1.00  0.00    -0.350 C  
ENDBRANCH   5  13
ENDBRANCH   2   3
TORSDOF 3
ENDMDL
MODEL      129
REMARK 921   NORMALIZED FREE ENERGY PREDICTED BY IDOCK:   -3.37 KCAL/MOL
REMARK 922        TOTAL FREE ENERGY PREDICTED BY IDOCK:   -4.51 KCAL/MOL
REMARK 923 INTER-LIGAND FREE ENERGY PREDICTED BY IDOCK:   -4.02 KCAL/MOL
REMARK 924 INTRA-LIGAND FREE ENERGY PREDICTED BY IDOCK:   -0.49 KCAL/MOL
REMARK 927      BINDING AFFINITY PREDICTED BY RF-SCORE:    0.00 PKD
ROOT
HETATM    1  C   UNL     1     -11.518   9.457  71.608  1.00  0.00    -0.463 C  
HETATM    2  C   UNL     1     -10.230   9.555  70.800  1.00  0.00    -0.293 C  
ENDROOT
BRANCH   2   3
HETATM    3  N   UNL     1     -10.185   9.620  69.326  1.00  0.00    -0.194 N  
HETATM    4  O   UNL     1     -10.624   8.515  67.299  1.00  0.00    -0.295 OA 
HETATM    5  C   UNL     1     -10.227   8.505  68.468  1.00  0.00    -0.198 C  
BRANCH   3   6
HETATM    6  C   UNL     1     -10.311  10.969  68.729  1.00  0.00    -0.199 A  
HETATM    7  C   UNL     1     -11.612  11.499  68.573  1.00  0.00    -0.377 A  
HETATM    8  C   UNL     1      -7.765  11.481  68.357  1.00  0.00    -0.129 C  
HETATM    9  C   UNL     1      -9.239  11.771  68.234  1.00  0.00    -0.188 A  
HETATM   10  C   UNL     1     -11.865  12.741  67.974  1.00  0.00    -0.386 A  
HETATM   11  C   UNL     1     -10.822  13.498  67.486  1.00  0.00    -0.276 A  
HETATM   12  C   UNL     1      -9.525  13.017  67.614  1.00  0.00    -0.201 A  
ENDBRANCH   3   6
BRANCH   5  13
HETATM   13  C   UNL     1      -9.716   7.206  68.977  1.00  0.00    -0.150 C  
HETATM   14  C   UNL     1     -10.558   6.312  69.524  1.00  0.00    -0.331 C  
HETATM   15  C   UNL     1     -10.135   4.985  70.069  1.00  0.00    -0.342 C  
ENDBRANCH   5  13
ENDBRANCH   2   3
TORSDOF 3
ENDMDL
MODEL      130
REMARK 921   NORMALIZED FREE ENERGY PREDICTED BY IDOCK:   -3.35 KCAL/MOL
REMARK 922        TOTAL FREE ENERGY PREDICTED BY IDOCK:   -4.49 KCAL/MOL
REMARK 923 INTER-LIGAND FREE ENERGY PREDICTED BY IDOCK:   -3.86 KCAL/MOL
REMARK 924 INTRA-LIGAND FREE ENERGY PREDICTED BY IDOCK:   -0.63 KCAL/MOL
REMARK 927      BINDING AFFINITY PREDICTED BY RF-SCORE:    0.00 PKD
ROOT
HETATM    1  C   UNL     1      -8.185   5.034  70.728  1.00  0.00    -0.100 C  
HETATM    2  C   UNL     1      -9.527   4.906  70.019  1.00  0.00    -0.166 C  
ENDROOT
BRANCH   2   3
HETATM    3  N   UNL     1     -10.204   6.021  69.327  1.00  0.00    -0.189 N  
HETATM    4  O   UNL     1     -11.399   6.714  67.426  1.00  0.00    -0.299 OA 
HETATM    5  C   UNL     1     -10.492   6.059  67.951  1.00  0.00    -0.234 C  
BRANCH   3   6
HETATM    6  C   UNL     1     -10.793   7.065  70.196  1.00  0.00    -0.256 A  
HETATM    7  C   UNL     1     -11.991   6.753  70.879  1.00  0.00    -0.437 A  
HETATM    8  C   UNL     1      -9.003   8.948  69.828  1.00  0.00    -0.149 C  
HETATM    9  C   UNL     1     -10.296   8.394  70.367  1.00  0.00    -0.219 A  
HETATM   10  C   UNL     1     -12.673   7.674  71.688  1.00  0.00    -0.368 A  
HETATM   11  C   UNL     1     -12.190   8.958  71.831  1.00  0.00    -0.445 A  
HETATM   12  C   UNL     1     -11.017   9.312  71.176  1.00  0.00    -0.409 A  
ENDBRANCH   3   6
BRANCH   5  13
HETATM   13  C   UNL     1      -9.621   5.288  67.027  1.00  0.00    -0.150 C  
HETATM   14  C   UNL     1     -10.158   4.567  66.028  1.00  0.00    -0.282 C  
HETATM   15  C   UNL     1      -9.362   3.755  65.056  1.00  0.00    -0.157 C  
ENDBRANCH   5  13
ENDBRANCH   2   3
TORSDOF 3
ENDMDL
MODEL      131
REMARK 921   NORMALIZED FREE ENERGY PREDICTED BY IDOCK:   -3.35 KCAL/MOL
REMARK 922        TOTAL FREE ENERGY PREDICTED BY IDOCK:   -4.49 KCAL/MOL
REMARK 923 INTER-LIGAND FREE ENERGY PREDICTED BY IDOCK:   -3.94 KCAL/MOL
REMARK 924 INTRA-LIGAND FREE ENERGY PREDICTED BY IDOCK:   -0.55 KCAL/MOL
REMARK 927      BINDING AFFINITY PREDICTED BY RF-SCORE:    0.00 PKD
ROOT
HETATM    1  C   UNL     1      -7.088  14.391  67.524  1.00  0.00    -0.197 C  
HETATM    2  C   UNL     1      -8.231  13.516  68.019  1.00  0.00    -0.163 C  
ENDROOT
BRANCH   2   3
HETATM    3  N   UNL     1      -9.656  13.892  67.932  1.00  0.00    -0.219 N  
HETATM    4  O   UNL     1     -11.845  13.474  68.678  1.00  0.00    -0.333 OA 
HETATM    5  C   UNL     1     -10.731  13.073  68.323  1.00  0.00    -0.245 C  
BRANCH   3   6
HETATM    6  C   UNL     1      -9.937  15.308  67.601  1.00  0.00    -0.222 A  
HETATM    7  C   UNL     1      -9.940  16.243  68.661  1.00  0.00    -0.233 A  
HETATM    8  C   UNL     1     -10.249  15.056  65.008  1.00  0.00    -0.349 C  
HETATM    9  C   UNL     1     -10.269  15.817  66.308  1.00  0.00    -0.317 A  
HETATM   10  C   UNL     1     -10.244  17.600  68.483  1.00  0.00    -0.386 A  
HETATM   11  C   UNL     1     -10.577  18.075  67.233  1.00  0.00    -0.358 A  
HETATM   12  C   UNL     1     -10.591  17.192  66.160  1.00  0.00    -0.201 A  
ENDBRANCH   3   6
BRANCH   5  13
HETATM   13  C   UNL     1     -10.549  11.600  68.275  1.00  0.00    -0.232 C  
HETATM   14  C   UNL     1     -11.045  10.820  69.250  1.00  0.00    -0.312 C  
HETATM   15  C   UNL     1     -10.904   9.332  69.290  1.00  0.00    -0.170 C  
ENDBRANCH   5  13
ENDBRANCH   2   3
TORSDOF 3
ENDMDL
MODEL      132
REMARK 921   NORMALIZED FREE ENERGY PREDICTED BY IDOCK:   -3.34 KCAL/MOL
REMARK 922        TOTAL FREE ENERGY PREDICTED BY IDOCK:   -4.47 KCAL/MOL
REMARK 923 INTER-LIGAND FREE ENERGY PREDICTED BY IDOCK:   -3.91 KCAL/MOL
REMARK 924 INTRA-LIGAND FREE ENERGY PREDICTED BY IDOCK:   -0.57 KCAL/MOL
REMARK 927      BINDING AFFINITY PREDICTED BY RF-SCORE:    0.00 PKD
ROOT
HETATM    1  C   UNL     1      -9.532   9.665  70.237  1.00  0.00    -0.300 C  
HETATM    2  C   UNL     1     -10.643   9.323  69.254  1.00  0.00    -0.222 C  
ENDROOT
BRANCH   2   3
HETATM    3  N   UNL     1     -10.423   9.065  67.817  1.00  0.00    -0.248 N  
HETATM    4  O   UNL     1      -9.795   9.959  65.736  1.00  0.00    -0.252 OA 
HETATM    5  C   UNL     1     -10.387  10.053  66.816  1.00  0.00    -0.217 C  
BRANCH   3   6
HETATM    6  C   UNL     1     -10.008   7.689  67.458  1.00  0.00    -0.178 A  
HETATM    7  C   UNL     1     -11.010   6.794  67.019  1.00  0.00    -0.439 A  
HETATM    8  C   UNL     1      -7.436   7.913  67.927  1.00  0.00    -0.104 C  
HETATM    9  C   UNL     1      -8.689   7.154  67.572  1.00  0.00    -0.121 A  
HETATM   10  C   UNL     1     -10.752   5.453  66.702  1.00  0.00    -0.309 A  
HETATM   11  C   UNL     1      -9.477   4.946  66.831  1.00  0.00    -0.156 A  
HETATM   12  C   UNL     1      -8.459   5.787  67.262  1.00  0.00    -0.107 A  
ENDBRANCH   3   6
BRANCH   5  13
HETATM   13  C   UNL     1     -11.153  11.307  67.037  1.00  0.00    -0.356 C  
HETATM   14  C   UNL     1     -11.472  12.101  66.001  1.00  0.00    -0.427 C  
HETATM   15  C   UNL     1     -12.232  13.383  66.128  1.00  0.00    -0.471 C  
ENDBRANCH   5  13
ENDBRANCH   2   3
TORSDOF 3
ENDMDL
MODEL      133
REMARK 921   NORMALIZED FREE ENERGY PREDICTED BY IDOCK:   -3.33 KCAL/MOL
REMARK 922        TOTAL FREE ENERGY PREDICTED BY IDOCK:   -4.47 KCAL/MOL
REMARK 923 INTER-LIGAND FREE ENERGY PREDICTED BY IDOCK:   -4.43 KCAL/MOL
REMARK 924 INTRA-LIGAND FREE ENERGY PREDICTED BY IDOCK:   -0.04 KCAL/MOL
REMARK 927      BINDING AFFINITY PREDICTED BY RF-SCORE:    0.00 PKD
ROOT
HETATM    1  C   UNL     1     -12.974  11.215  71.515  1.00  0.00    -0.542 C  
HETATM    2  C   UNL     1     -12.912  10.940  70.019  1.00  0.00     0.106 C  
ENDROOT
BRANCH   2   3
HETATM    3  N   UNL     1     -11.704  11.140  69.193  1.00  0.00    -0.311 N  
HETATM    4  O   UNL     1      -9.837  10.141  68.173  1.00  0.00    -0.142 OA 
HETATM    5  C   UNL     1     -10.618  10.248  69.124  1.00  0.00    -0.230 C  
BRANCH   3   6
HETATM    6  C   UNL     1     -11.755  12.259  68.225  1.00  0.00    -0.336 A  
HETATM    7  C   UNL     1     -11.809  11.936  66.850  1.00  0.00    -0.177 A  
HETATM    8  C   UNL     1     -11.720  14.258  69.924  1.00  0.00    -0.373 C  
HETATM    9  C   UNL     1     -11.693  13.649  68.545  1.00  0.00    -0.392 A  
HETATM   10  C   UNL     1     -11.807  12.905  65.836  1.00  0.00    -0.476 A  
HETATM   11  C   UNL     1     -11.731  14.243  66.159  1.00  0.00    -0.397 A  
HETATM   12  C   UNL     1     -11.673  14.609  67.498  1.00  0.00    -0.403 A  
ENDBRANCH   3   6
BRANCH   5  13
HETATM   13  C   UNL     1     -10.342   9.382  70.299  1.00  0.00    -0.293 C  
HETATM   14  C   UNL     1     -10.666   8.078  70.274  1.00  0.00    -0.239 C  
HETATM   15  C   UNL     1     -10.435   7.133  71.410  1.00  0.00    -0.220 C  
ENDBRANCH   5  13
ENDBRANCH   2   3
TORSDOF 3
ENDMDL
MODEL      134
REMARK 921   NORMALIZED FREE ENERGY PREDICTED BY IDOCK:   -3.33 KCAL/MOL
REMARK 922        TOTAL FREE ENERGY PREDICTED BY IDOCK:   -4.46 KCAL/MOL
REMARK 923 INTER-LIGAND FREE ENERGY PREDICTED BY IDOCK:   -4.12 KCAL/MOL
REMARK 924 INTRA-LIGAND FREE ENERGY PREDICTED BY IDOCK:   -0.34 KCAL/MOL
REMARK 927      BINDING AFFINITY PREDICTED BY RF-SCORE:    0.00 PKD
ROOT
HETATM    1  C   UNL     1     -12.018   7.622  72.488  1.00  0.00    -0.261 C  
HETATM    2  C   UNL     1     -11.986   7.150  71.041  1.00  0.00    -0.347 C  
ENDROOT
BRANCH   2   3
HETATM    3  N   UNL     1     -10.779   7.179  70.190  1.00  0.00    -0.234 N  
HETATM    4  O   UNL     1      -8.683   8.163  69.792  1.00  0.00    -0.133 OA 
HETATM    5  C   UNL     1      -9.872   8.251  70.115  1.00  0.00    -0.184 C  
BRANCH   3   6
HETATM    6  C   UNL     1     -10.410   5.901  69.539  1.00  0.00    -0.248 A  
HETATM    7  C   UNL     1      -9.962   4.847  70.368  1.00  0.00    -0.316 A  
HETATM    8  C   UNL     1     -10.916   6.561  67.051  1.00  0.00    -0.466 C  
HETATM    9  C   UNL     1     -10.405   5.646  68.134  1.00  0.00    -0.254 A  
HETATM   10  C   UNL     1      -9.534   3.609  69.866  1.00  0.00    -0.262 A  
HETATM   11  C   UNL     1      -9.520   3.383  68.507  1.00  0.00    -0.209 A  
HETATM   12  C   UNL     1      -9.949   4.390  67.652  1.00  0.00    -0.111 A  
ENDBRANCH   3   6
BRANCH   5  13
HETATM   13  C   UNL     1     -10.373   9.620  70.403  1.00  0.00    -0.350 C  
HETATM   14  C   UNL     1     -11.235  10.219  69.564  1.00  0.00    -0.314 C  
HETATM   15  C   UNL     1     -11.787  11.594  69.767  1.00  0.00    -0.428 C  
ENDBRANCH   5  13
ENDBRANCH   2   3
TORSDOF 3
ENDMDL
MODEL      135
REMARK 921   NORMALIZED FREE ENERGY PREDICTED BY IDOCK:   -3.32 KCAL/MOL
REMARK 922        TOTAL FREE ENERGY PREDICTED BY IDOCK:   -4.46 KCAL/MOL
REMARK 923 INTER-LIGAND FREE ENERGY PREDICTED BY IDOCK:   -3.80 KCAL/MOL
REMARK 924 INTRA-LIGAND FREE ENERGY PREDICTED BY IDOCK:   -0.65 KCAL/MOL
REMARK 927      BINDING AFFINITY PREDICTED BY RF-SCORE:    0.00 PKD
ROOT
HETATM    1  C   UNL     1     -10.026   9.068  66.541  1.00  0.00    -0.355 C  
HETATM    2  C   UNL     1     -10.564   7.794  67.177  1.00  0.00    -0.331 C  
ENDROOT
BRANCH   2   3
HETATM    3  N   UNL     1      -9.960   7.141  68.356  1.00  0.00    -0.153 N  
HETATM    4  O   UNL     1      -8.019   6.222  69.310  1.00  0.00    -0.106 OA 
HETATM    5  C   UNL     1      -8.766   6.397  68.342  1.00  0.00    -0.113 C  
BRANCH   3   6
HETATM    6  C   UNL     1     -10.560   7.480  69.667  1.00  0.00    -0.239 A  
HETATM    7  C   UNL     1     -11.587   6.641  70.156  1.00  0.00    -0.446 A  
HETATM    8  C   UNL     1      -9.131   9.610  70.220  1.00  0.00    -0.272 C  
HETATM    9  C   UNL     1     -10.239   8.618  70.467  1.00  0.00    -0.229 A  
HETATM   10  C   UNL     1     -12.268   6.887  71.357  1.00  0.00    -0.418 A  
HETATM   11  C   UNL     1     -11.959   7.998  72.112  1.00  0.00    -0.399 A  
HETATM   12  C   UNL     1     -10.957   8.853  71.670  1.00  0.00    -0.415 A  
ENDBRANCH   3   6
BRANCH   5  13
HETATM   13  C   UNL     1      -8.372   5.723  67.078  1.00  0.00    -0.108 C  
HETATM   14  C   UNL     1      -8.779   4.467  66.821  1.00  0.00    -0.111 C  
HETATM   15  C   UNL     1      -8.427   3.707  65.583  1.00  0.00    -0.110 C  
ENDBRANCH   5  13
ENDBRANCH   2   3
TORSDOF 3
ENDMDL
MODEL      136
REMARK 921   NORMALIZED FREE ENERGY PREDICTED BY IDOCK:   -3.31 KCAL/MOL
REMARK 922        TOTAL FREE ENERGY PREDICTED BY IDOCK:   -4.44 KCAL/MOL
REMARK 923 INTER-LIGAND FREE ENERGY PREDICTED BY IDOCK:   -3.82 KCAL/MOL
REMARK 924 INTRA-LIGAND FREE ENERGY PREDICTED BY IDOCK:   -0.62 KCAL/MOL
REMARK 927      BINDING AFFINITY PREDICTED BY RF-SCORE:    0.00 PKD
ROOT
HETATM    1  C   UNL     1      -8.373   9.181  70.909  1.00  0.00    -0.231 C  
HETATM    2  C   UNL     1      -8.566   8.131  69.823  1.00  0.00    -0.133 C  
ENDROOT
BRANCH   2   3
HETATM    3  N   UNL     1      -9.825   7.390  69.607  1.00  0.00    -0.173 N  
HETATM    4  O   UNL     1     -11.262   6.377  68.048  1.00  0.00    -0.311 OA 
HETATM    5  C   UNL     1     -10.502   7.293  68.378  1.00  0.00    -0.195 C  
BRANCH   3   6
HETATM    6  C   UNL     1     -10.274   6.529  70.725  1.00  0.00    -0.187 A  
HETATM    7  C   UNL     1      -9.604   5.300  70.919  1.00  0.00    -0.233 A  
HETATM    8  C   UNL     1     -12.187   8.061  71.663  1.00  0.00    -0.340 C  
HETATM    9  C   UNL     1     -11.372   6.796  71.600  1.00  0.00    -0.305 A  
HETATM   10  C   UNL     1      -9.971   4.376  71.908  1.00  0.00    -0.258 A  
HETATM   11  C   UNL     1     -11.042   4.639  72.735  1.00  0.00    -0.213 A  
HETATM   12  C   UNL     1     -11.734   5.834  72.580  1.00  0.00    -0.256 A  
ENDBRANCH   3   6
BRANCH   5  13
HETATM   13  C   UNL     1     -10.338   8.395  67.394  1.00  0.00    -0.355 C  
HETATM   14  C   UNL     1     -10.758   9.637  67.688  1.00  0.00    -0.324 C  
HETATM   15  C   UNL     1     -10.642  10.804  66.761  1.00  0.00    -0.307 C  
ENDBRANCH   5  13
ENDBRANCH   2   3
TORSDOF 3
ENDMDL
MODEL      137
REMARK 921   NORMALIZED FREE ENERGY PREDICTED BY IDOCK:   -3.30 KCAL/MOL
REMARK 922        TOTAL FREE ENERGY PREDICTED BY IDOCK:   -4.43 KCAL/MOL
REMARK 923 INTER-LIGAND FREE ENERGY PREDICTED BY IDOCK:   -4.02 KCAL/MOL
REMARK 924 INTRA-LIGAND FREE ENERGY PREDICTED BY IDOCK:   -0.42 KCAL/MOL
REMARK 927      BINDING AFFINITY PREDICTED BY RF-SCORE:    0.00 PKD
ROOT
HETATM    1  C   UNL     1      -8.336   7.924  71.561  1.00  0.00    -0.130 C  
HETATM    2  C   UNL     1      -9.068   9.227  71.273  1.00  0.00    -0.057 C  
ENDROOT
BRANCH   2   3
HETATM    3  N   UNL     1     -10.232   9.337  70.370  1.00  0.00    -0.214 N  
HETATM    4  O   UNL     1     -10.994   9.378  68.148  1.00  0.00    -0.166 OA 
HETATM    5  C   UNL     1     -10.166   9.690  69.009  1.00  0.00    -0.199 C  
BRANCH   3   6
HETATM    6  C   UNL     1     -11.520   8.838  70.904  1.00  0.00    -0.284 A  
HETATM    7  C   UNL     1     -11.692   7.439  71.001  1.00  0.00    -0.326 A  
HETATM    8  C   UNL     1     -12.687  11.145  71.351  1.00  0.00    -0.524 C  
HETATM    9  C   UNL     1     -12.641   9.641  71.277  1.00  0.00    -0.443 A  
HETATM   10  C   UNL     1     -12.884   6.844  71.440  1.00  0.00    -0.365 A  
HETATM   11  C   UNL     1     -13.963   7.630  71.783  1.00  0.00    -0.471 A  
HETATM   12  C   UNL     1     -13.842   9.012  71.700  1.00  0.00    -0.422 A  
ENDBRANCH   3   6
BRANCH   5  13
HETATM   13  C   UNL     1      -9.037  10.543  68.557  1.00  0.00    -0.154 C  
HETATM   14  C   UNL     1      -9.145  11.275  67.435  1.00  0.00    -0.151 C  
HETATM   15  C   UNL     1      -8.062  12.155  66.899  1.00  0.00    -0.112 C  
ENDBRANCH   5  13
ENDBRANCH   2   3
TORSDOF 3
ENDMDL
MODEL      138
REMARK 921   NORMALIZED FREE ENERGY PREDICTED BY IDOCK:   -3.29 KCAL/MOL
REMARK 922        TOTAL FREE ENERGY PREDICTED BY IDOCK:   -4.42 KCAL/MOL
REMARK 923 INTER-LIGAND FREE ENERGY PREDICTED BY IDOCK:   -3.80 KCAL/MOL
REMARK 924 INTRA-LIGAND FREE ENERGY PREDICTED BY IDOCK:   -0.62 KCAL/MOL
REMARK 927      BINDING AFFINITY PREDICTED BY RF-SCORE:    0.00 PKD
ROOT
HETATM    1  C   UNL     1     -11.187  12.556  66.960  1.00  0.00    -0.353 C  
HETATM    2  C   UNL     1     -10.307  13.596  66.280  1.00  0.00    -0.293 C  
ENDROOT
BRANCH   2   3
HETATM    3  N   UNL     1      -9.345  14.458  66.997  1.00  0.00    -0.232 N  
HETATM    4  O   UNL     1      -7.085  14.944  67.422  1.00  0.00    -0.194 OA 
HETATM    5  C   UNL     1      -7.998  14.131  67.242  1.00  0.00    -0.150 C  
BRANCH   3   6
HETATM    6  C   UNL     1      -9.795  15.838  67.285  1.00  0.00    -0.230 A  
HETATM    7  C   UNL     1     -10.032  16.696  66.187  1.00  0.00    -0.356 A  
HETATM    8  C   UNL     1      -9.858  15.698  69.905  1.00  0.00    -0.199 C  
HETATM    9  C   UNL     1      -9.959  16.414  68.583  1.00  0.00    -0.235 A  
HETATM   10  C   UNL     1     -10.409  18.038  66.332  1.00  0.00    -0.382 A  
HETATM   11  C   UNL     1     -10.548  18.585  67.590  1.00  0.00    -0.450 A  
HETATM   12  C   UNL     1     -10.323  17.781  68.701  1.00  0.00    -0.351 A  
ENDBRANCH   3   6
BRANCH   5  13
HETATM   13  C   UNL     1      -7.628  12.696  67.338  1.00  0.00    -0.150 C  
HETATM   14  C   UNL     1      -7.694  12.053  68.517  1.00  0.00    -0.127 C  
HETATM   15  C   UNL     1      -7.335  10.615  68.711  1.00  0.00    -0.100 C  
ENDBRANCH   5  13
ENDBRANCH   2   3
TORSDOF 3
ENDMDL
MODEL      139
REMARK 921   NORMALIZED FREE ENERGY PREDICTED BY IDOCK:   -3.29 KCAL/MOL
REMARK 922        TOTAL FREE ENERGY PREDICTED BY IDOCK:   -4.42 KCAL/MOL
REMARK 923 INTER-LIGAND FREE ENERGY PREDICTED BY IDOCK:   -3.77 KCAL/MOL
REMARK 924 INTRA-LIGAND FREE ENERGY PREDICTED BY IDOCK:   -0.65 KCAL/MOL
REMARK 927      BINDING AFFINITY PREDICTED BY RF-SCORE:    0.00 PKD
ROOT
HETATM    1  C   UNL     1     -10.657   7.754  67.064  1.00  0.00    -0.396 C  
HETATM    2  C   UNL     1     -10.102   9.138  66.754  1.00  0.00    -0.271 C  
ENDROOT
BRANCH   2   3
HETATM    3  N   UNL     1      -9.789  10.151  67.783  1.00  0.00    -0.159 N  
HETATM    4  O   UNL     1      -9.059  12.341  68.221  1.00  0.00    -0.194 OA 
HETATM    5  C   UNL     1      -8.991  11.291  67.575  1.00  0.00    -0.140 C  
BRANCH   3   6
HETATM    6  C   UNL     1     -10.546  10.047  69.051  1.00  0.00    -0.214 A  
HETATM    7  C   UNL     1     -11.837  10.620  69.095  1.00  0.00    -0.287 A  
HETATM    8  C   UNL     1      -8.776   8.720  70.463  1.00  0.00    -0.196 C  
HETATM    9  C   UNL     1     -10.069   9.469  70.267  1.00  0.00    -0.314 A  
HETATM   10  C   UNL     1     -12.629  10.633  70.253  1.00  0.00    -0.333 A  
HETATM   11  C   UNL     1     -12.149  10.086  71.424  1.00  0.00    -0.498 A  
HETATM   12  C   UNL     1     -10.884   9.513  71.430  1.00  0.00    -0.382 A  
ENDBRANCH   3   6
BRANCH   5  13
HETATM   13  C   UNL     1      -7.944  11.234  66.523  1.00  0.00    -0.145 C  
HETATM   14  C   UNL     1      -6.723  10.746  66.803  1.00  0.00    -0.110 C  
HETATM   15  C   UNL     1      -5.606  10.657  65.813  1.00  0.00    -0.134 C  
ENDBRANCH   5  13
ENDBRANCH   2   3
TORSDOF 3
ENDMDL
MODEL      140
REMARK 921   NORMALIZED FREE ENERGY PREDICTED BY IDOCK:   -3.29 KCAL/MOL
REMARK 922        TOTAL FREE ENERGY PREDICTED BY IDOCK:   -4.42 KCAL/MOL
REMARK 923 INTER-LIGAND FREE ENERGY PREDICTED BY IDOCK:   -3.92 KCAL/MOL
REMARK 924 INTRA-LIGAND FREE ENERGY PREDICTED BY IDOCK:   -0.50 KCAL/MOL
REMARK 927      BINDING AFFINITY PREDICTED BY RF-SCORE:    0.00 PKD
ROOT
HETATM    1  C   UNL     1      -7.791   9.165  69.840  1.00  0.00    -0.091 C  
HETATM    2  C   UNL     1      -8.686   8.010  70.270  1.00  0.00    -0.134 C  
ENDROOT
BRANCH   2   3
HETATM    3  N   UNL     1     -10.119   7.907  69.929  1.00  0.00    -0.193 N  
HETATM    4  O   UNL     1     -11.899   6.488  69.344  1.00  0.00    -0.209 OA 
HETATM    5  C   UNL     1     -10.712   6.820  69.260  1.00  0.00    -0.253 C  
BRANCH   3   6
HETATM    6  C   UNL     1     -11.006   8.932  70.524  1.00  0.00    -0.241 A  
HETATM    7  C   UNL     1     -11.592   8.647  71.779  1.00  0.00    -0.403 A  
HETATM    8  C   UNL     1     -10.834  10.749  68.639  1.00  0.00    -0.260 C  
HETATM    9  C   UNL     1     -11.380  10.171  69.919  1.00  0.00    -0.335 A  
HETATM   10  C   UNL     1     -12.489   9.513  72.419  1.00  0.00    -0.196 A  
HETATM   11  C   UNL     1     -12.854  10.698  71.816  1.00  0.00    -0.549 A  
HETATM   12  C   UNL     1     -12.306  11.021  70.581  1.00  0.00    -0.480 A  
ENDBRANCH   3   6
BRANCH   5  13
HETATM   13  C   UNL     1      -9.869   6.015  68.339  1.00  0.00    -0.152 C  
HETATM   14  C   UNL     1     -10.235   5.844  67.057  1.00  0.00    -0.256 C  
HETATM   15  C   UNL     1      -9.456   5.046  66.060  1.00  0.00    -0.169 C  
ENDBRANCH   5  13
ENDBRANCH   2   3
TORSDOF 3
ENDMDL
MODEL      141
REMARK 921   NORMALIZED FREE ENERGY PREDICTED BY IDOCK:   -3.28 KCAL/MOL
REMARK 922        TOTAL FREE ENERGY PREDICTED BY IDOCK:   -4.41 KCAL/MOL
REMARK 923 INTER-LIGAND FREE ENERGY PREDICTED BY IDOCK:   -3.96 KCAL/MOL
REMARK 924 INTRA-LIGAND FREE ENERGY PREDICTED BY IDOCK:   -0.45 KCAL/MOL
REMARK 927      BINDING AFFINITY PREDICTED BY RF-SCORE:    0.00 PKD
ROOT
HETATM    1  C   UNL     1     -11.959  13.294  70.080  1.00  0.00    -0.388 C  
HETATM    2  C   UNL     1     -11.720  12.367  68.896  1.00  0.00    -0.324 C  
ENDROOT
BRANCH   2   3
HETATM    3  N   UNL     1     -10.538  11.491  68.759  1.00  0.00    -0.206 N  
HETATM    4  O   UNL     1      -8.202  11.370  68.534  1.00  0.00    -0.143 OA 
HETATM    5  C   UNL     1      -9.285  11.900  68.267  1.00  0.00    -0.187 C  
BRANCH   3   6
HETATM    6  C   UNL     1     -10.644  10.152  69.381  1.00  0.00    -0.237 A  
HETATM    7  C   UNL     1     -10.808  10.090  70.784  1.00  0.00    -0.330 A  
HETATM    8  C   UNL     1     -10.448   8.688  67.212  1.00  0.00    -0.360 C  
HETATM    9  C   UNL     1     -10.535   8.900  68.702  1.00  0.00    -0.223 A  
HETATM   10  C   UNL     1     -10.867   8.882  71.494  1.00  0.00    -0.396 A  
HETATM   11  C   UNL     1     -10.745   7.682  70.828  1.00  0.00    -0.231 A  
HETATM   12  C   UNL     1     -10.580   7.693  69.448  1.00  0.00    -0.217 A  
ENDBRANCH   3   6
BRANCH   5  13
HETATM   13  C   UNL     1      -9.241  13.035  67.310  1.00  0.00    -0.213 C  
HETATM   14  C   UNL     1      -8.723  14.219  67.682  1.00  0.00    -0.192 C  
HETATM   15  C   UNL     1      -8.643  15.418  66.792  1.00  0.00    -0.308 C  
ENDBRANCH   5  13
ENDBRANCH   2   3
TORSDOF 3
ENDMDL
MODEL      142
REMARK 921   NORMALIZED FREE ENERGY PREDICTED BY IDOCK:   -3.27 KCAL/MOL
REMARK 922        TOTAL FREE ENERGY PREDICTED BY IDOCK:   -4.40 KCAL/MOL
REMARK 923 INTER-LIGAND FREE ENERGY PREDICTED BY IDOCK:   -3.96 KCAL/MOL
REMARK 924 INTRA-LIGAND FREE ENERGY PREDICTED BY IDOCK:   -0.43 KCAL/MOL
REMARK 927      BINDING AFFINITY PREDICTED BY RF-SCORE:    0.00 PKD
ROOT
HETATM    1  C   UNL     1      -9.448   8.180  67.449  1.00  0.00    -0.191 C  
HETATM    2  C   UNL     1     -10.651   8.467  68.337  1.00  0.00    -0.105 C  
ENDROOT
BRANCH   2   3
HETATM    3  N   UNL     1     -10.564   9.126  69.656  1.00  0.00    -0.225 N  
HETATM    4  O   UNL     1      -9.377   9.328  71.673  1.00  0.00    -0.301 OA 
HETATM    5  C   UNL     1      -9.829   8.640  70.753  1.00  0.00    -0.192 C  
BRANCH   3   6
HETATM    6  C   UNL     1     -11.129  10.492  69.740  1.00  0.00    -0.295 A  
HETATM    7  C   UNL     1     -10.582  11.483  68.893  1.00  0.00    -0.236 A  
HETATM    8  C   UNL     1     -12.946  10.059  71.583  1.00  0.00    -0.554 C  
HETATM    9  C   UNL     1     -12.144  10.926  70.647  1.00  0.00    -0.468 A  
HETATM   10  C   UNL     1     -10.994  12.823  68.917  1.00  0.00    -0.275 A  
HETATM   11  C   UNL     1     -11.964  13.231  69.808  1.00  0.00    -0.391 A  
HETATM   12  C   UNL     1     -12.529  12.293  70.663  1.00  0.00    -0.323 A  
ENDBRANCH   3   6
BRANCH   5  13
HETATM   13  C   UNL     1      -9.601   7.176  70.854  1.00  0.00    -0.167 C  
HETATM   14  C   UNL     1      -8.416   6.699  71.273  1.00  0.00    -0.125 C  
HETATM   15  C   UNL     1      -8.092   5.245  71.400  1.00  0.00    -0.115 C  
ENDBRANCH   5  13
ENDBRANCH   2   3
TORSDOF 3
ENDMDL
MODEL      143
REMARK 921   NORMALIZED FREE ENERGY PREDICTED BY IDOCK:   -3.26 KCAL/MOL
REMARK 922        TOTAL FREE ENERGY PREDICTED BY IDOCK:   -4.39 KCAL/MOL
REMARK 923 INTER-LIGAND FREE ENERGY PREDICTED BY IDOCK:   -4.03 KCAL/MOL
REMARK 924 INTRA-LIGAND FREE ENERGY PREDICTED BY IDOCK:   -0.36 KCAL/MOL
REMARK 927      BINDING AFFINITY PREDICTED BY RF-SCORE:    0.00 PKD
ROOT
HETATM    1  C   UNL     1      -6.410  15.119  69.452  1.00  0.00    -0.129 C  
HETATM    2  C   UNL     1      -6.987  16.480  69.088  1.00  0.00    -0.225 C  
ENDROOT
BRANCH   2   3
HETATM    3  N   UNL     1      -7.754  16.747  67.854  1.00  0.00    -0.168 N  
HETATM    4  O   UNL     1      -7.690  17.500  65.629  1.00  0.00    -0.495 OA 
HETATM    5  C   UNL     1      -7.329  17.586  66.807  1.00  0.00    -0.215 C  
BRANCH   3   6
HETATM    6  C   UNL     1      -8.952  15.905  67.636  1.00  0.00    -0.190 A  
HETATM    7  C   UNL     1      -8.825  14.794  66.772  1.00  0.00    -0.281 A  
HETATM    8  C   UNL     1     -10.635  17.197  69.181  1.00  0.00    -0.259 C  
HETATM    9  C   UNL     1     -10.254  16.143  68.172  1.00  0.00    -0.247 A  
HETATM   10  C   UNL     1      -9.899  13.953  66.444  1.00  0.00    -0.304 A  
HETATM   11  C   UNL     1     -11.154  14.204  66.957  1.00  0.00    -0.314 A  
HETATM   12  C   UNL     1     -11.328  15.287  67.809  1.00  0.00    -0.331 A  
ENDBRANCH   3   6
BRANCH   5  13
HETATM   13  C   UNL     1      -6.401  18.700  67.129  1.00  0.00    -0.195 C  
HETATM   14  C   UNL     1      -6.859  19.819  67.716  1.00  0.00    -0.279 C  
HETATM   15  C   UNL     1      -6.003  20.993  68.070  1.00  0.00    -0.396 C  
ENDBRANCH   5  13
ENDBRANCH   2   3
TORSDOF 3
ENDMDL
MODEL      144
REMARK 921   NORMALIZED FREE ENERGY PREDICTED BY IDOCK:   -3.25 KCAL/MOL
REMARK 922        TOTAL FREE ENERGY PREDICTED BY IDOCK:   -4.38 KCAL/MOL
REMARK 923 INTER-LIGAND FREE ENERGY PREDICTED BY IDOCK:   -4.05 KCAL/MOL
REMARK 924 INTRA-LIGAND FREE ENERGY PREDICTED BY IDOCK:   -0.33 KCAL/MOL
REMARK 927      BINDING AFFINITY PREDICTED BY RF-SCORE:    0.00 PKD
ROOT
HETATM    1  C   UNL     1      -9.747  20.310  66.644  1.00  0.00    -0.550 C  
HETATM    2  C   UNL     1      -9.012  19.179  67.351  1.00  0.00    -0.293 C  
ENDROOT
BRANCH   2   3
HETATM    3  N   UNL     1      -8.308  18.087  66.648  1.00  0.00    -0.253 N  
HETATM    4  O   UNL     1      -6.272  17.317  65.762  1.00  0.00    -0.085 OA 
HETATM    5  C   UNL     1      -7.084  18.225  65.967  1.00  0.00    -0.271 C  
BRANCH   3   6
HETATM    6  C   UNL     1      -8.840  16.723  66.865  1.00  0.00    -0.218 A  
HETATM    7  C   UNL     1      -9.824  16.251  65.967  1.00  0.00    -0.371 A  
HETATM    8  C   UNL     1      -7.421  16.071  68.974  1.00  0.00    -0.202 C  
HETATM    9  C   UNL     1      -8.496  15.849  67.941  1.00  0.00    -0.164 A  
HETATM   10  C   UNL     1     -10.442  14.999  66.098  1.00  0.00    -0.313 A  
HETATM   11  C   UNL     1     -10.112  14.173  67.150  1.00  0.00    -0.258 A  
HETATM   12  C   UNL     1      -9.151  14.595  68.061  1.00  0.00    -0.189 A  
ENDBRANCH   3   6
BRANCH   5  13
HETATM   13  C   UNL     1      -6.739  19.555  65.402  1.00  0.00    -0.309 C  
HETATM   14  C   UNL     1      -5.814  19.663  64.432  1.00  0.00    -0.311 C  
HETATM   15  C   UNL     1      -5.397  20.956  63.810  1.00  0.00    -0.258 C  
ENDBRANCH   5  13
ENDBRANCH   2   3
TORSDOF 3
ENDMDL
MODEL      145
REMARK 921   NORMALIZED FREE ENERGY PREDICTED BY IDOCK:   -3.25 KCAL/MOL
REMARK 922        TOTAL FREE ENERGY PREDICTED BY IDOCK:   -4.38 KCAL/MOL
REMARK 923 INTER-LIGAND FREE ENERGY PREDICTED BY IDOCK:   -3.71 KCAL/MOL
REMARK 924 INTRA-LIGAND FREE ENERGY PREDICTED BY IDOCK:   -0.67 KCAL/MOL
REMARK 927      BINDING AFFINITY PREDICTED BY RF-SCORE:    0.00 PKD
ROOT
HETATM    1  C   UNL     1     -12.200  11.751  70.474  1.00  0.00    -0.438 C  
HETATM    2  C   UNL     1     -11.962  11.374  69.018  1.00  0.00    -0.320 C  
ENDROOT
BRANCH   2   3
HETATM    3  N   UNL     1     -10.644  10.997  68.469  1.00  0.00    -0.179 N  
HETATM    4  O   UNL     1      -8.404  11.628  68.135  1.00  0.00    -0.139 OA 
HETATM    5  C   UNL     1      -9.609  11.901  68.166  1.00  0.00    -0.195 C  
BRANCH   3   6
HETATM    6  C   UNL     1     -10.341   9.549  68.438  1.00  0.00    -0.206 A  
HETATM    7  C   UNL     1     -10.531   8.863  67.217  1.00  0.00    -0.348 A  
HETATM    8  C   UNL     1      -9.570   9.250  70.929  1.00  0.00    -0.339 C  
HETATM    9  C   UNL     1      -9.927   8.754  69.551  1.00  0.00    -0.195 A  
HETATM   10  C   UNL     1     -10.329   7.483  67.075  1.00  0.00    -0.395 A  
HETATM   11  C   UNL     1      -9.946   6.725  68.161  1.00  0.00    -0.161 A  
HETATM   12  C   UNL     1      -9.749   7.355  69.384  1.00  0.00    -0.159 A  
ENDBRANCH   3   6
BRANCH   5  13
HETATM   13  C   UNL     1      -9.974  13.296  67.808  1.00  0.00    -0.223 C  
HETATM   14  C   UNL     1      -9.589  14.321  68.588  1.00  0.00    -0.192 C  
HETATM   15  C   UNL     1      -9.916  15.754  68.314  1.00  0.00    -0.221 C  
ENDBRANCH   5  13
ENDBRANCH   2   3
TORSDOF 3
ENDMDL
MODEL      146
REMARK 921   NORMALIZED FREE ENERGY PREDICTED BY IDOCK:   -3.23 KCAL/MOL
REMARK 922        TOTAL FREE ENERGY PREDICTED BY IDOCK:   -4.35 KCAL/MOL
REMARK 923 INTER-LIGAND FREE ENERGY PREDICTED BY IDOCK:   -3.72 KCAL/MOL
REMARK 924 INTRA-LIGAND FREE ENERGY PREDICTED BY IDOCK:   -0.63 KCAL/MOL
REMARK 927      BINDING AFFINITY PREDICTED BY RF-SCORE:    0.00 PKD
ROOT
HETATM    1  C   UNL     1     -10.345   5.735  72.210  1.00  0.00    -0.244 C  
HETATM    2  C   UNL     1     -11.163   6.384  71.102  1.00  0.00    -0.302 C  
ENDROOT
BRANCH   2   3
HETATM    3  N   UNL     1     -10.575   7.132  69.973  1.00  0.00    -0.225 N  
HETATM    4  O   UNL     1      -9.404   9.051  69.288  1.00  0.00    -0.147 OA 
HETATM    5  C   UNL     1     -10.259   8.503  69.991  1.00  0.00    -0.198 C  
BRANCH   3   6
HETATM    6  C   UNL     1     -10.104   6.320  68.828  1.00  0.00    -0.161 A  
HETATM    7  C   UNL     1     -10.995   6.128  67.747  1.00  0.00    -0.400 A  
HETATM    8  C   UNL     1      -7.691   5.765  69.698  1.00  0.00    -0.091 C  
HETATM    9  C   UNL     1      -8.844   5.653  68.734  1.00  0.00    -0.108 A  
HETATM   10  C   UNL     1     -10.686   5.337  66.632  1.00  0.00    -0.274 A  
HETATM   11  C   UNL     1      -9.472   4.686  66.562  1.00  0.00    -0.171 A  
HETATM   12  C   UNL     1      -8.564   4.842  67.601  1.00  0.00    -0.103 A  
ENDBRANCH   3   6
BRANCH   5  13
HETATM   13  C   UNL     1     -11.034   9.392  70.894  1.00  0.00    -0.391 C  
HETATM   14  C   UNL     1     -11.875  10.310  70.388  1.00  0.00    -0.396 C  
HETATM   15  C   UNL     1     -12.690  11.251  71.217  1.00  0.00    -0.510 C  
ENDBRANCH   5  13
ENDBRANCH   2   3
TORSDOF 3
ENDMDL
MODEL      147
REMARK 921   NORMALIZED FREE ENERGY PREDICTED BY IDOCK:   -3.20 KCAL/MOL
REMARK 922        TOTAL FREE ENERGY PREDICTED BY IDOCK:   -4.31 KCAL/MOL
REMARK 923 INTER-LIGAND FREE ENERGY PREDICTED BY IDOCK:   -3.75 KCAL/MOL
REMARK 924 INTRA-LIGAND FREE ENERGY PREDICTED BY IDOCK:   -0.57 KCAL/MOL
REMARK 927      BINDING AFFINITY PREDICTED BY RF-SCORE:    0.00 PKD
ROOT
HETATM    1  C   UNL     1      -6.359  15.444  69.652  1.00  0.00    -0.160 C  
HETATM    2  C   UNL     1      -7.805  15.577  69.194  1.00  0.00    -0.215 C  
ENDROOT
BRANCH   2   3
HETATM    3  N   UNL     1      -8.217  15.661  67.779  1.00  0.00    -0.141 N  
HETATM    4  O   UNL     1      -9.579  14.782  66.077  1.00  0.00    -0.299 OA 
HETATM    5  C   UNL     1      -8.848  14.628  67.061  1.00  0.00    -0.241 C  
BRANCH   3   6
HETATM    6  C   UNL     1      -8.138  17.001  67.155  1.00  0.00    -0.191 A  
HETATM    7  C   UNL     1      -6.966  17.321  66.432  1.00  0.00    -0.310 A  
HETATM    8  C   UNL     1     -10.478  17.926  67.898  1.00  0.00    -0.404 C  
HETATM    9  C   UNL     1      -9.115  18.037  67.264  1.00  0.00    -0.255 A  
HETATM   10  C   UNL     1      -6.750  18.575  65.841  1.00  0.00    -0.310 A  
HETATM   11  C   UNL     1      -7.695  19.570  65.968  1.00  0.00    -0.322 A  
HETATM   12  C   UNL     1      -8.862  19.303  66.673  1.00  0.00    -0.359 A  
ENDBRANCH   3   6
BRANCH   5  13
HETATM   13  C   UNL     1      -8.596  13.225  67.477  1.00  0.00    -0.200 C  
HETATM   14  C   UNL     1      -9.073  12.202  66.747  1.00  0.00    -0.205 C  
HETATM   15  C   UNL     1      -8.876  10.760  67.092  1.00  0.00    -0.135 C  
ENDBRANCH   5  13
ENDBRANCH   2   3
TORSDOF 3
ENDMDL
MODEL      148
REMARK 921   NORMALIZED FREE ENERGY PREDICTED BY IDOCK:   -3.18 KCAL/MOL
REMARK 922        TOTAL FREE ENERGY PREDICTED BY IDOCK:   -4.30 KCAL/MOL
REMARK 923 INTER-LIGAND FREE ENERGY PREDICTED BY IDOCK:   -3.94 KCAL/MOL
REMARK 924 INTRA-LIGAND FREE ENERGY PREDICTED BY IDOCK:   -0.36 KCAL/MOL
REMARK 927      BINDING AFFINITY PREDICTED BY RF-SCORE:    0.00 PKD
ROOT
HETATM    1  C   UNL     1      -9.696   9.851  69.922  1.00  0.00    -0.274 C  
HETATM    2  C   UNL     1      -9.354  11.096  69.113  1.00  0.00     0.039 C  
ENDROOT
BRANCH   2   3
HETATM    3  N   UNL     1     -10.280  11.743  68.164  1.00  0.00    -0.196 N  
HETATM    4  O   UNL     1     -11.914  11.441  66.502  1.00  0.00    -0.268 OA 
HETATM    5  C   UNL     1     -10.851  11.117  67.040  1.00  0.00    -0.284 C  
BRANCH   3   6
HETATM    6  C   UNL     1     -10.789  13.077  68.557  1.00  0.00    -0.258 A  
HETATM    7  C   UNL     1     -10.410  14.185  67.765  1.00  0.00    -0.242 A  
HETATM    8  C   UNL     1     -12.194  12.365  70.655  1.00  0.00    -0.368 C  
HETATM    9  C   UNL     1     -11.587  13.365  69.706  1.00  0.00    -0.305 A  
HETATM   10  C   UNL     1     -10.784  15.503  68.064  1.00  0.00    -0.283 A  
HETATM   11  C   UNL     1     -11.540  15.768  69.186  1.00  0.00    -0.399 A  
HETATM   12  C   UNL     1     -11.935  14.711  69.997  1.00  0.00    -0.376 A  
ENDBRANCH   3   6
BRANCH   5  13
HETATM   13  C   UNL     1     -10.110   9.996  66.407  1.00  0.00    -0.307 C  
HETATM   14  C   UNL     1      -9.711  10.082  65.126  1.00  0.00    -0.380 C  
HETATM   15  C   UNL     1      -8.968   9.005  64.403  1.00  0.00    -0.034 C  
ENDBRANCH   5  13
ENDBRANCH   2   3
TORSDOF 3
ENDMDL
MODEL      149
REMARK 921   NORMALIZED FREE ENERGY PREDICTED BY IDOCK:   -3.17 KCAL/MOL
REMARK 922        TOTAL FREE ENERGY PREDICTED BY IDOCK:   -4.28 KCAL/MOL
REMARK 923 INTER-LIGAND FREE ENERGY PREDICTED BY IDOCK:   -3.73 KCAL/MOL
REMARK 924 INTRA-LIGAND FREE ENERGY PREDICTED BY IDOCK:   -0.55 KCAL/MOL
REMARK 927      BINDING AFFINITY PREDICTED BY RF-SCORE:    0.00 PKD
ROOT
HETATM    1  C   UNL     1      -8.567   9.292  70.625  1.00  0.00    -0.270 C  
HETATM    2  C   UNL     1      -8.573   7.962  69.882  1.00  0.00    -0.139 C  
ENDROOT
BRANCH   2   3
HETATM    3  N   UNL     1      -9.790   7.167  69.625  1.00  0.00    -0.162 N  
HETATM    4  O   UNL     1     -11.219   6.233  68.010  1.00  0.00    -0.323 OA 
HETATM    5  C   UNL     1     -10.506   7.157  68.414  1.00  0.00    -0.197 C  
BRANCH   3   6
HETATM    6  C   UNL     1     -10.144   6.164  70.656  1.00  0.00    -0.193 A  
HETATM    7  C   UNL     1     -10.973   6.581  71.722  1.00  0.00    -0.287 A  
HETATM    8  C   UNL     1      -8.859   4.103  69.664  1.00  0.00    -0.135 C  
HETATM    9  C   UNL     1      -9.674   4.817  70.711  1.00  0.00    -0.267 A  
HETATM   10  C   UNL     1     -11.333   5.741  72.785  1.00  0.00    -0.328 A  
HETATM   11  C   UNL     1     -10.860   4.447  72.834  1.00  0.00    -0.257 A  
HETATM   12  C   UNL     1     -10.039   3.993  71.809  1.00  0.00    -0.199 A  
ENDBRANCH   3   6
BRANCH   5  13
HETATM   13  C   UNL     1     -10.447   8.365  67.552  1.00  0.00    -0.328 C  
HETATM   14  C   UNL     1      -9.777   8.338  66.386  1.00  0.00    -0.300 C  
HETATM   15  C   UNL     1      -9.656   9.504  65.459  1.00  0.00    -0.349 C  
ENDBRANCH   5  13
ENDBRANCH   2   3
TORSDOF 3
ENDMDL
MODEL      150
REMARK 921   NORMALIZED FREE ENERGY PREDICTED BY IDOCK:   -3.17 KCAL/MOL
REMARK 922        TOTAL FREE ENERGY PREDICTED BY IDOCK:   -4.28 KCAL/MOL
REMARK 923 INTER-LIGAND FREE ENERGY PREDICTED BY IDOCK:   -3.77 KCAL/MOL
REMARK 924 INTRA-LIGAND FREE ENERGY PREDICTED BY IDOCK:   -0.51 KCAL/MOL
REMARK 927      BINDING AFFINITY PREDICTED BY RF-SCORE:    0.00 PKD
ROOT
HETATM    1  C   UNL     1     -11.044   9.778  70.021  1.00  0.00    -0.311 C  
HETATM    2  C   UNL     1      -9.921   9.058  69.287  1.00  0.00    -0.188 C  
ENDROOT
BRANCH   2   3
HETATM    3  N   UNL     1     -10.125   8.204  68.100  1.00  0.00    -0.191 N  
HETATM    4  O   UNL     1     -11.395   6.491  67.112  1.00  0.00    -0.333 OA 
HETATM    5  C   UNL     1     -10.837   6.990  68.094  1.00  0.00    -0.153 C  
BRANCH   3   6
HETATM    6  C   UNL     1      -9.723   8.787  66.800  1.00  0.00    -0.221 A  
HETATM    7  C   UNL     1     -10.374   9.969  66.380  1.00  0.00    -0.249 A  
HETATM    8  C   UNL     1      -7.881   7.041  66.134  1.00  0.00    -0.102 C  
HETATM    9  C   UNL     1      -8.771   8.232  65.891  1.00  0.00    -0.187 A  
HETATM   10  C   UNL     1     -10.119  10.586  65.147  1.00  0.00    -0.383 A  
HETATM   11  C   UNL     1      -9.210  10.031  64.272  1.00  0.00    -0.318 A  
HETATM   12  C   UNL     1      -8.546   8.867  64.640  1.00  0.00    -0.169 A  
ENDBRANCH   3   6
BRANCH   5  13
HETATM   13  C   UNL     1     -10.901   6.205  69.354  1.00  0.00    -0.420 C  
HETATM   14  C   UNL     1      -9.979   5.262  69.615  1.00  0.00    -0.302 C  
HETATM   15  C   UNL     1      -9.967   4.419  70.850  1.00  0.00    -0.242 C  
ENDBRANCH   5  13
ENDBRANCH   2   3
TORSDOF 3
ENDMDL
MODEL      151
REMARK 921   NORMALIZED FREE ENERGY PREDICTED BY IDOCK:   -3.16 KCAL/MOL
REMARK 922        TOTAL FREE ENERGY PREDICTED BY IDOCK:   -4.27 KCAL/MOL
REMARK 923 INTER-LIGAND FREE ENERGY PREDICTED BY IDOCK:   -3.70 KCAL/MOL
REMARK 924 INTRA-LIGAND FREE ENERGY PREDICTED BY IDOCK:   -0.57 KCAL/MOL
REMARK 927      BINDING AFFINITY PREDICTED BY RF-SCORE:    0.00 PKD
ROOT
HETATM    1  C   UNL     1      -8.010   4.365  68.922  1.00  0.00    -0.073 C  
HETATM    2  C   UNL     1      -8.252   5.705  69.604  1.00  0.00    -0.107 C  
ENDROOT
BRANCH   2   3
HETATM    3  N   UNL     1      -9.566   6.147  70.113  1.00  0.00    -0.161 N  
HETATM    4  O   UNL     1     -11.851   6.442  69.648  1.00  0.00    -0.323 OA 
HETATM    5  C   UNL     1     -10.665   6.499  69.307  1.00  0.00    -0.280 C  
BRANCH   3   6
HETATM    6  C   UNL     1      -9.783   6.002  71.570  1.00  0.00    -0.163 A  
HETATM    7  C   UNL     1     -10.118   4.720  72.061  1.00  0.00    -0.258 A  
HETATM    8  C   UNL     1      -9.332   8.486  72.288  1.00  0.00    -0.363 C  
HETATM    9  C   UNL     1      -9.746   7.058  72.532  1.00  0.00    -0.170 A  
HETATM   10  C   UNL     1     -10.399   4.467  73.411  1.00  0.00    -0.241 A  
HETATM   11  C   UNL     1     -10.375   5.498  74.327  1.00  0.00    -0.293 A  
HETATM   12  C   UNL     1     -10.054   6.777  73.890  1.00  0.00    -0.375 A  
ENDBRANCH   3   6
BRANCH   5  13
HETATM   13  C   UNL     1     -10.398   7.025  67.944  1.00  0.00    -0.247 C  
HETATM   14  C   UNL     1     -10.333   8.350  67.726  1.00  0.00    -0.297 C  
HETATM   15  C   UNL     1     -10.078   8.971  66.390  1.00  0.00    -0.351 C  
ENDBRANCH   5  13
ENDBRANCH   2   3
TORSDOF 3
ENDMDL
MODEL      152
REMARK 921   NORMALIZED FREE ENERGY PREDICTED BY IDOCK:   -3.16 KCAL/MOL
REMARK 922        TOTAL FREE ENERGY PREDICTED BY IDOCK:   -4.27 KCAL/MOL
REMARK 923 INTER-LIGAND FREE ENERGY PREDICTED BY IDOCK:   -3.80 KCAL/MOL
REMARK 924 INTRA-LIGAND FREE ENERGY PREDICTED BY IDOCK:   -0.47 KCAL/MOL
REMARK 927      BINDING AFFINITY PREDICTED BY RF-SCORE:    0.00 PKD
ROOT
HETATM    1  C   UNL     1     -11.453  11.141  69.736  1.00  0.00    -0.388 C  
HETATM    2  C   UNL     1     -10.246  10.756  68.891  1.00  0.00    -0.203 C  
ENDROOT
BRANCH   2   3
HETATM    3  N   UNL     1      -9.579  11.668  67.940  1.00  0.00    -0.175 N  
HETATM    4  O   UNL     1      -7.565  12.290  66.901  1.00  0.00    -0.107 OA 
HETATM    5  C   UNL     1      -8.195  11.915  67.895  1.00  0.00    -0.150 C  
BRANCH   3   6
HETATM    6  C   UNL     1     -10.420  12.188  66.838  1.00  0.00    -0.225 A  
HETATM    7  C   UNL     1     -11.134  13.387  67.064  1.00  0.00    -0.310 A  
HETATM    8  C   UNL     1      -9.926  10.331  65.051  1.00  0.00    -0.393 C  
HETATM    9  C   UNL     1     -10.629  11.557  65.573  1.00  0.00    -0.334 A  
HETATM   10  C   UNL     1     -12.003  13.950  66.119  1.00  0.00    -0.449 A  
HETATM   11  C   UNL     1     -12.208  13.322  64.909  1.00  0.00    -0.466 A  
HETATM   12  C   UNL     1     -11.530  12.139  64.641  1.00  0.00    -0.388 A  
ENDBRANCH   3   6
BRANCH   5  13
HETATM   13  C   UNL     1      -7.411  11.758  69.148  1.00  0.00     0.035 C  
HETATM   14  C   UNL     1      -6.226  12.376  69.290  1.00  0.00    -0.101 C  
HETATM   15  C   UNL     1      -5.365  12.271  70.508  1.00  0.00    -0.145 C  
ENDBRANCH   5  13
ENDBRANCH   2   3
TORSDOF 3
ENDMDL
MODEL      153
REMARK 921   NORMALIZED FREE ENERGY PREDICTED BY IDOCK:   -3.16 KCAL/MOL
REMARK 922        TOTAL FREE ENERGY PREDICTED BY IDOCK:   -4.27 KCAL/MOL
REMARK 923 INTER-LIGAND FREE ENERGY PREDICTED BY IDOCK:   -3.69 KCAL/MOL
REMARK 924 INTRA-LIGAND FREE ENERGY PREDICTED BY IDOCK:   -0.58 KCAL/MOL
REMARK 927      BINDING AFFINITY PREDICTED BY RF-SCORE:    0.00 PKD
ROOT
HETATM    1  C   UNL     1     -10.593   5.466  72.060  1.00  0.00    -0.284 C  
HETATM    2  C   UNL     1     -10.996   6.336  70.877  1.00  0.00    -0.286 C  
ENDROOT
BRANCH   2   3
HETATM    3  N   UNL     1     -10.107   7.332  70.245  1.00  0.00    -0.191 N  
HETATM    4  O   UNL     1      -8.849   9.297  70.526  1.00  0.00    -0.206 OA 
HETATM    5  C   UNL     1      -9.863   8.625  70.743  1.00  0.00    -0.192 C  
BRANCH   3   6
HETATM    6  C   UNL     1      -9.269   6.841  69.127  1.00  0.00    -0.137 A  
HETATM    7  C   UNL     1      -8.131   6.066  69.450  1.00  0.00    -0.111 A  
HETATM    8  C   UNL     1     -10.638   7.850  67.129  1.00  0.00    -0.383 C  
HETATM    9  C   UNL     1      -9.466   7.128  67.742  1.00  0.00    -0.136 A  
HETATM   10  C   UNL     1      -7.232   5.589  68.485  1.00  0.00    -0.074 A  
HETATM   11  C   UNL     1      -7.426   5.888  67.153  1.00  0.00    -0.084 A  
HETATM   12  C   UNL     1      -8.529   6.649  66.788  1.00  0.00    -0.117 A  
ENDBRANCH   3   6
BRANCH   5  13
HETATM   13  C   UNL     1     -10.916   9.273  71.566  1.00  0.00    -0.446 C  
HETATM   14  C   UNL     1     -11.833  10.071  70.993  1.00  0.00    -0.476 C  
HETATM   15  C   UNL     1     -12.923  10.770  71.740  1.00  0.00    -0.568 C  
ENDBRANCH   5  13
ENDBRANCH   2   3
TORSDOF 3
ENDMDL
MODEL      154
REMARK 921   NORMALIZED FREE ENERGY PREDICTED BY IDOCK:   -3.16 KCAL/MOL
REMARK 922        TOTAL FREE ENERGY PREDICTED BY IDOCK:   -4.27 KCAL/MOL
REMARK 923 INTER-LIGAND FREE ENERGY PREDICTED BY IDOCK:   -3.76 KCAL/MOL
REMARK 924 INTRA-LIGAND FREE ENERGY PREDICTED BY IDOCK:   -0.51 KCAL/MOL
REMARK 927      BINDING AFFINITY PREDICTED BY RF-SCORE:    0.00 PKD
ROOT
HETATM    1  C   UNL     1      -9.693   9.800  65.209  1.00  0.00    -0.371 C  
HETATM    2  C   UNL     1      -8.721  10.667  65.998  1.00  0.00    -0.177 C  
ENDROOT
BRANCH   2   3
HETATM    3  N   UNL     1      -9.102  11.916  66.688  1.00  0.00    -0.200 N  
HETATM    4  O   UNL     1      -8.367  13.792  67.896  1.00  0.00    -0.147 OA 
HETATM    5  C   UNL     1      -8.309  12.586  67.637  1.00  0.00    -0.172 C  
BRANCH   3   6
HETATM    6  C   UNL     1     -10.313  12.599  66.177  1.00  0.00    -0.256 A  
HETATM    7  C   UNL     1     -10.240  13.198  64.899  1.00  0.00    -0.306 A  
HETATM    8  C   UNL     1     -11.908  12.156  68.213  1.00  0.00    -0.361 C  
HETATM    9  C   UNL     1     -11.542  12.766  66.884  1.00  0.00    -0.428 A  
HETATM   10  C   UNL     1     -11.300  13.918  64.330  1.00  0.00    -0.352 A  
HETATM   11  C   UNL     1     -12.476  14.085  65.030  1.00  0.00    -0.446 A  
HETATM   12  C   UNL     1     -12.593  13.516  66.292  1.00  0.00    -0.298 A  
ENDBRANCH   3   6
BRANCH   5  13
HETATM   13  C   UNL     1      -7.344  11.789  68.438  1.00  0.00    -0.094 C  
HETATM   14  C   UNL     1      -6.285  12.382  69.014  1.00  0.00    -0.083 C  
HETATM   15  C   UNL     1      -5.259  11.661  69.829  1.00  0.00    -0.069 C  
ENDBRANCH   5  13
ENDBRANCH   2   3
TORSDOF 3
ENDMDL
MODEL      155
REMARK 921   NORMALIZED FREE ENERGY PREDICTED BY IDOCK:   -3.16 KCAL/MOL
REMARK 922        TOTAL FREE ENERGY PREDICTED BY IDOCK:   -4.27 KCAL/MOL
REMARK 923 INTER-LIGAND FREE ENERGY PREDICTED BY IDOCK:   -3.66 KCAL/MOL
REMARK 924 INTRA-LIGAND FREE ENERGY PREDICTED BY IDOCK:   -0.61 KCAL/MOL
REMARK 927      BINDING AFFINITY PREDICTED BY RF-SCORE:    0.00 PKD
ROOT
HETATM    1  C   UNL     1     -10.390  14.672  65.740  1.00  0.00    -0.349 C  
HETATM    2  C   UNL     1     -11.008  13.381  66.262  1.00  0.00    -0.288 C  
ENDROOT
BRANCH   2   3
HETATM    3  N   UNL     1     -10.372  12.512  67.272  1.00  0.00    -0.219 N  
HETATM    4  O   UNL     1     -10.692  11.059  69.091  1.00  0.00    -0.214 OA 
HETATM    5  C   UNL     1     -10.981  12.084  68.466  1.00  0.00    -0.240 C  
BRANCH   3   6
HETATM    6  C   UNL     1      -9.084  11.895  66.882  1.00  0.00    -0.196 A  
HETATM    7  C   UNL     1      -7.895  12.516  67.330  1.00  0.00    -0.175 A  
HETATM    8  C   UNL     1     -10.015   9.865  65.505  1.00  0.00    -0.363 C  
HETATM    9  C   UNL     1      -8.921  10.755  66.038  1.00  0.00    -0.196 A  
HETATM   10  C   UNL     1      -6.616  12.058  66.984  1.00  0.00    -0.108 A  
HETATM   11  C   UNL     1      -6.474  10.966  66.156  1.00  0.00    -0.114 A  
HETATM   12  C   UNL     1      -7.614  10.324  65.688  1.00  0.00    -0.148 A  
ENDBRANCH   3   6
BRANCH   5  13
HETATM   13  C   UNL     1     -12.035  12.943  69.066  1.00  0.00    -0.297 C  
HETATM   14  C   UNL     1     -11.850  13.505  70.272  1.00  0.00    -0.327 C  
HETATM   15  C   UNL     1     -12.854  14.376  70.957  1.00  0.00    -0.423 C  
ENDBRANCH   5  13
ENDBRANCH   2   3
TORSDOF 3
ENDMDL
MODEL      156
REMARK 921   NORMALIZED FREE ENERGY PREDICTED BY IDOCK:   -3.15 KCAL/MOL
REMARK 922        TOTAL FREE ENERGY PREDICTED BY IDOCK:   -4.26 KCAL/MOL
REMARK 923 INTER-LIGAND FREE ENERGY PREDICTED BY IDOCK:   -3.64 KCAL/MOL
REMARK 924 INTRA-LIGAND FREE ENERGY PREDICTED BY IDOCK:   -0.61 KCAL/MOL
REMARK 927      BINDING AFFINITY PREDICTED BY RF-SCORE:    0.00 PKD
ROOT
HETATM    1  C   UNL     1      -7.275   6.895  69.268  1.00  0.00    -0.090 C  
HETATM    2  C   UNL     1      -8.148   7.638  70.271  1.00  0.00    -0.114 C  
ENDROOT
BRANCH   2   3
HETATM    3  N   UNL     1      -9.581   7.927  70.062  1.00  0.00    -0.168 N  
HETATM    4  O   UNL     1     -11.727   7.994  71.017  1.00  0.00    -0.286 OA 
HETATM    5  C   UNL     1     -10.625   7.454  70.879  1.00  0.00    -0.223 C  
BRANCH   3   6
HETATM    6  C   UNL     1      -9.898   8.953  69.043  1.00  0.00    -0.180 A  
HETATM    7  C   UNL     1      -9.753  10.310  69.409  1.00  0.00    -0.242 A  
HETATM    8  C   UNL     1     -10.558   7.359  67.066  1.00  0.00    -0.414 C  
HETATM    9  C   UNL     1     -10.399   8.703  67.729  1.00  0.00    -0.303 A  
HETATM   10  C   UNL     1     -10.072  11.372  68.551  1.00  0.00    -0.211 A  
HETATM   11  C   UNL     1     -10.570  11.116  67.291  1.00  0.00    -0.279 A  
HETATM   12  C   UNL     1     -10.732   9.797  66.887  1.00  0.00    -0.192 A  
ENDBRANCH   3   6
BRANCH   5  13
HETATM   13  C   UNL     1     -10.423   6.178  71.612  1.00  0.00    -0.267 C  
HETATM   14  C   UNL     1     -11.019   5.974  72.800  1.00  0.00    -0.299 C  
HETATM   15  C   UNL     1     -10.868   4.728  73.612  1.00  0.00    -0.377 C  
ENDBRANCH   5  13
ENDBRANCH   2   3
TORSDOF 3
ENDMDL
MODEL      157
REMARK 921   NORMALIZED FREE ENERGY PREDICTED BY IDOCK:   -3.15 KCAL/MOL
REMARK 922        TOTAL FREE ENERGY PREDICTED BY IDOCK:   -4.26 KCAL/MOL
REMARK 923 INTER-LIGAND FREE ENERGY PREDICTED BY IDOCK:   -3.77 KCAL/MOL
REMARK 924 INTRA-LIGAND FREE ENERGY PREDICTED BY IDOCK:   -0.49 KCAL/MOL
REMARK 927      BINDING AFFINITY PREDICTED BY RF-SCORE:    0.00 PKD
ROOT
HETATM    1  C   UNL     1     -11.068  14.162  69.494  1.00  0.00    -0.222 C  
HETATM    2  C   UNL     1     -11.187  13.415  68.172  1.00  0.00    -0.273 C  
ENDROOT
BRANCH   2   3
HETATM    3  N   UNL     1     -10.081  12.661  67.549  1.00  0.00    -0.210 N  
HETATM    4  O   UNL     1      -7.802  12.634  66.977  1.00  0.00    -0.136 OA 
HETATM    5  C   UNL     1      -8.880  13.228  67.085  1.00  0.00    -0.222 C  
BRANCH   3   6
HETATM    6  C   UNL     1     -10.180  11.185  67.615  1.00  0.00    -0.181 A  
HETATM    7  C   UNL     1     -10.195  10.584  68.894  1.00  0.00    -0.223 A  
HETATM    8  C   UNL     1     -10.284  10.677  65.042  1.00  0.00    -0.380 C  
HETATM    9  C   UNL     1     -10.202  10.295  66.498  1.00  0.00    -0.289 A  
HETATM   10  C   UNL     1     -10.233   9.195  69.086  1.00  0.00    -0.215 A  
HETATM   11  C   UNL     1     -10.237   8.347  67.999  1.00  0.00    -0.263 A  
HETATM   12  C   UNL     1     -10.220   8.892  66.721  1.00  0.00    -0.348 A  
ENDBRANCH   3   6
BRANCH   5  13
HETATM   13  C   UNL     1      -8.895  14.646  66.644  1.00  0.00    -0.240 C  
HETATM   14  C   UNL     1      -7.917  15.487  67.022  1.00  0.00    -0.268 C  
HETATM   15  C   UNL     1      -7.852  16.930  66.634  1.00  0.00    -0.298 C  
ENDBRANCH   5  13
ENDBRANCH   2   3
TORSDOF 3
ENDMDL
MODEL      158
REMARK 921   NORMALIZED FREE ENERGY PREDICTED BY IDOCK:   -3.15 KCAL/MOL
REMARK 922        TOTAL FREE ENERGY PREDICTED BY IDOCK:   -4.25 KCAL/MOL
REMARK 923 INTER-LIGAND FREE ENERGY PREDICTED BY IDOCK:   -3.77 KCAL/MOL
REMARK 924 INTRA-LIGAND FREE ENERGY PREDICTED BY IDOCK:   -0.48 KCAL/MOL
REMARK 927      BINDING AFFINITY PREDICTED BY RF-SCORE:    0.00 PKD
ROOT
HETATM    1  C   UNL     1     -10.572  18.039  67.769  1.00  0.00    -0.409 C  
HETATM    2  C   UNL     1     -11.168  16.980  68.688  1.00  0.00    -0.003 C  
ENDROOT
BRANCH   2   3
HETATM    3  N   UNL     1     -10.549  15.663  68.939  1.00  0.00    -0.218 N  
HETATM    4  O   UNL     1     -10.879  13.345  69.132  1.00  0.00    -0.211 OA 
HETATM    5  C   UNL     1     -11.246  14.507  69.333  1.00  0.00    -0.280 C  
BRANCH   3   6
HETATM    6  C   UNL     1      -9.129  15.525  68.543  1.00  0.00    -0.196 A  
HETATM    7  C   UNL     1      -8.149  15.645  69.555  1.00  0.00    -0.174 A  
HETATM    8  C   UNL     1      -9.471  15.094  65.977  1.00  0.00    -0.358 C  
HETATM    9  C   UNL     1      -8.643  15.339  67.212  1.00  0.00    -0.210 A  
HETATM   10  C   UNL     1      -6.772  15.586  69.297  1.00  0.00    -0.154 A  
HETATM   11  C   UNL     1      -6.317  15.422  68.006  1.00  0.00    -0.151 A  
HETATM   12  C   UNL     1      -7.243  15.301  66.977  1.00  0.00    -0.012 A  
ENDBRANCH   3   6
BRANCH   5  13
HETATM   13  C   UNL     1     -12.512  14.673  70.094  1.00  0.00    -0.369 C  
HETATM   14  C   UNL     1     -12.653  14.117  71.310  1.00  0.00    -0.438 C  
HETATM   15  C   UNL     1     -13.889  14.224  72.144  1.00  0.00    -0.589 C  
ENDBRANCH   5  13
ENDBRANCH   2   3
TORSDOF 3
ENDMDL
MODEL      159
REMARK 921   NORMALIZED FREE ENERGY PREDICTED BY IDOCK:   -3.12 KCAL/MOL
REMARK 922        TOTAL FREE ENERGY PREDICTED BY IDOCK:   -4.22 KCAL/MOL
REMARK 923 INTER-LIGAND FREE ENERGY PREDICTED BY IDOCK:   -3.65 KCAL/MOL
REMARK 924 INTRA-LIGAND FREE ENERGY PREDICTED BY IDOCK:   -0.58 KCAL/MOL
REMARK 927      BINDING AFFINITY PREDICTED BY RF-SCORE:    0.00 PKD
ROOT
HETATM    1  C   UNL     1     -12.372  14.683  67.784  1.00  0.00     0.100 C  
HETATM    2  C   UNL     1     -11.294  13.620  67.948  1.00  0.00    -0.295 C  
ENDROOT
BRANCH   2   3
HETATM    3  N   UNL     1     -10.068  13.555  67.127  1.00  0.00    -0.242 N  
HETATM    4  O   UNL     1      -7.732  13.804  67.066  1.00  0.00    -0.045 OA 
HETATM    5  C   UNL     1      -8.846  14.171  67.453  1.00  0.00    -0.206 C  
BRANCH   3   6
HETATM    6  C   UNL     1     -10.092  12.602  65.994  1.00  0.00    -0.262 A  
HETATM    7  C   UNL     1     -10.327  13.124  64.701  1.00  0.00    -0.381 A  
HETATM    8  C   UNL     1      -9.619  10.390  67.323  1.00  0.00    -0.182 C  
HETATM    9  C   UNL     1      -9.960  11.183  66.088  1.00  0.00    -0.273 A  
HETATM   10  C   UNL     1     -10.425  12.319  63.557  1.00  0.00    -0.459 A  
HETATM   11  C   UNL     1     -10.311  10.949  63.665  1.00  0.00    -0.364 A  
HETATM   12  C   UNL     1     -10.083  10.390  64.916  1.00  0.00    -0.382 A  
ENDBRANCH   3   6
BRANCH   5  13
HETATM   13  C   UNL     1      -8.877  15.392  68.299  1.00  0.00    -0.176 C  
HETATM   14  C   UNL     1      -8.536  16.586  67.783  1.00  0.00    -0.180 C  
HETATM   15  C   UNL     1      -8.529  17.865  68.558  1.00  0.00    -0.303 C  
ENDBRANCH   5  13
ENDBRANCH   2   3
TORSDOF 3
ENDMDL
MODEL      160
REMARK 921   NORMALIZED FREE ENERGY PREDICTED BY IDOCK:   -3.12 KCAL/MOL
REMARK 922        TOTAL FREE ENERGY PREDICTED BY IDOCK:   -4.22 KCAL/MOL
REMARK 923 INTER-LIGAND FREE ENERGY PREDICTED BY IDOCK:   -3.64 KCAL/MOL
REMARK 924 INTRA-LIGAND FREE ENERGY PREDICTED BY IDOCK:   -0.58 KCAL/MOL
REMARK 927      BINDING AFFINITY PREDICTED BY RF-SCORE:    0.00 PKD
ROOT
HETATM    1  C   UNL     1     -10.556   6.290  68.189  1.00  0.00    -0.318 C  
HETATM    2  C   UNL     1     -11.389   6.442  69.455  1.00  0.00    -0.393 C  
ENDROOT
BRANCH   2   3
HETATM    3  N   UNL     1     -10.890   7.056  70.702  1.00  0.00    -0.238 N  
HETATM    4  O   UNL     1     -11.125   8.798  72.262  1.00  0.00    -0.359 OA 
HETATM    5  C   UNL     1     -11.129   8.385  71.098  1.00  0.00    -0.256 C  
BRANCH   3   6
HETATM    6  C   UNL     1     -10.275   6.132  71.682  1.00  0.00    -0.198 A  
HETATM    7  C   UNL     1     -11.139   5.329  72.461  1.00  0.00    -0.289 A  
HETATM    8  C   UNL     1      -7.752   6.686  71.223  1.00  0.00    -0.094 C  
HETATM    9  C   UNL     1      -8.879   6.015  71.964  1.00  0.00    -0.137 A  
HETATM   10  C   UNL     1     -10.681   4.455  73.457  1.00  0.00    -0.327 A  
HETATM   11  C   UNL     1      -9.332   4.364  73.729  1.00  0.00    -0.118 A  
HETATM   12  C   UNL     1      -8.444   5.137  72.991  1.00  0.00    -0.111 A  
ENDBRANCH   3   6
BRANCH   5  13
HETATM   13  C   UNL     1     -11.366   9.402  70.042  1.00  0.00    -0.172 C  
HETATM   14  C   UNL     1     -11.042  10.689  70.252  1.00  0.00    -0.310 C  
HETATM   15  C   UNL     1     -11.250  11.782  69.253  1.00  0.00    -0.318 C  
ENDBRANCH   5  13
ENDBRANCH   2   3
TORSDOF 3
ENDMDL
MODEL      161
REMARK 921   NORMALIZED FREE ENERGY PREDICTED BY IDOCK:   -3.11 KCAL/MOL
REMARK 922        TOTAL FREE ENERGY PREDICTED BY IDOCK:   -4.21 KCAL/MOL
REMARK 923 INTER-LIGAND FREE ENERGY PREDICTED BY IDOCK:   -3.62 KCAL/MOL
REMARK 924 INTRA-LIGAND FREE ENERGY PREDICTED BY IDOCK:   -0.59 KCAL/MOL
REMARK 927      BINDING AFFINITY PREDICTED BY RF-SCORE:    0.00 PKD
ROOT
HETATM    1  C   UNL     1     -10.699   7.035  67.627  1.00  0.00    -0.331 C  
HETATM    2  C   UNL     1     -10.785   6.846  69.136  1.00  0.00    -0.234 C  
ENDROOT
BRANCH   2   3
HETATM    3  N   UNL     1     -10.783   7.958  70.107  1.00  0.00    -0.242 N  
HETATM    4  O   UNL     1     -10.435   8.613  72.337  1.00  0.00    -0.320 OA 
HETATM    5  C   UNL     1     -10.861   7.807  71.504  1.00  0.00    -0.227 C  
BRANCH   3   6
HETATM    6  C   UNL     1     -10.468   9.298  69.563  1.00  0.00    -0.220 A  
HETATM    7  C   UNL     1     -11.549  10.171  69.301  1.00  0.00    -0.120 A  
HETATM    8  C   UNL     1      -7.854   9.090  69.476  1.00  0.00    -0.094 C  
HETATM    9  C   UNL     1      -9.169   9.779  69.217  1.00  0.00    -0.197 A  
HETATM   10  C   UNL     1     -11.384  11.444  68.737  1.00  0.00    -0.334 A  
HETATM   11  C   UNL     1     -10.125  11.890  68.393  1.00  0.00    -0.206 A  
HETATM   12  C   UNL     1      -9.032  11.065  68.630  1.00  0.00    -0.167 A  
ENDBRANCH   3   6
BRANCH   5  13
HETATM   13  C   UNL     1     -11.547   6.605  72.045  1.00  0.00    -0.341 C  
HETATM   14  C   UNL     1     -10.844   5.643  72.668  1.00  0.00    -0.301 C  
HETATM   15  C   UNL     1     -11.446   4.398  73.237  1.00  0.00    -0.282 C  
ENDBRANCH   5  13
ENDBRANCH   2   3
TORSDOF 3
ENDMDL
MODEL      162
REMARK 921   NORMALIZED FREE ENERGY PREDICTED BY IDOCK:   -3.11 KCAL/MOL
REMARK 922        TOTAL FREE ENERGY PREDICTED BY IDOCK:   -4.21 KCAL/MOL
REMARK 923 INTER-LIGAND FREE ENERGY PREDICTED BY IDOCK:   -3.63 KCAL/MOL
REMARK 924 INTRA-LIGAND FREE ENERGY PREDICTED BY IDOCK:   -0.58 KCAL/MOL
REMARK 927      BINDING AFFINITY PREDICTED BY RF-SCORE:    0.00 PKD
ROOT
HETATM    1  C   UNL     1      -8.250  11.786  68.694  1.00  0.00    -0.091 C  
HETATM    2  C   UNL     1      -8.368  11.862  67.178  1.00  0.00    -0.174 C  
ENDROOT
BRANCH   2   3
HETATM    3  N   UNL     1      -9.434  11.200  66.399  1.00  0.00    -0.187 N  
HETATM    4  O   UNL     1     -10.839  11.299  64.517  1.00  0.00    -0.329 OA 
HETATM    5  C   UNL     1     -10.272  11.844  65.470  1.00  0.00    -0.254 C  
BRANCH   3   6
HETATM    6  C   UNL     1      -9.467   9.722  66.465  1.00  0.00    -0.177 A  
HETATM    7  C   UNL     1     -10.369   9.124  67.375  1.00  0.00    -0.330 A  
HETATM    8  C   UNL     1      -7.648   9.201  64.646  1.00  0.00    -0.106 C  
HETATM    9  C   UNL     1      -8.623   8.830  65.734  1.00  0.00    -0.185 A  
HETATM   10  C   UNL     1     -10.455   7.738  67.567  1.00  0.00    -0.338 A  
HETATM   11  C   UNL     1      -9.624   6.890  66.866  1.00  0.00    -0.205 A  
HETATM   12  C   UNL     1      -8.718   7.432  65.962  1.00  0.00    -0.171 A  
ENDBRANCH   3   6
BRANCH   5  13
HETATM   13  C   UNL     1     -10.545  13.293  65.654  1.00  0.00    -0.291 C  
HETATM   14  C   UNL     1     -10.861  14.065  64.600  1.00  0.00    -0.416 C  
HETATM   15  C   UNL     1     -11.144  15.531  64.687  1.00  0.00    -0.373 C  
ENDBRANCH   5  13
ENDBRANCH   2   3
TORSDOF 3
ENDMDL
MODEL      163
REMARK 921   NORMALIZED FREE ENERGY PREDICTED BY IDOCK:   -3.11 KCAL/MOL
REMARK 922        TOTAL FREE ENERGY PREDICTED BY IDOCK:   -4.20 KCAL/MOL
REMARK 923 INTER-LIGAND FREE ENERGY PREDICTED BY IDOCK:   -3.78 KCAL/MOL
REMARK 924 INTRA-LIGAND FREE ENERGY PREDICTED BY IDOCK:   -0.43 KCAL/MOL
REMARK 927      BINDING AFFINITY PREDICTED BY RF-SCORE:    0.00 PKD
ROOT
HETATM    1  C   UNL     1     -10.178   4.984  66.767  1.00  0.00    -0.286 C  
HETATM    2  C   UNL     1     -10.883   6.296  67.086  1.00  0.00    -0.381 C  
ENDROOT
BRANCH   2   3
HETATM    3  N   UNL     1     -10.205   7.481  67.649  1.00  0.00    -0.196 N  
HETATM    4  O   UNL     1      -8.826   8.326  69.355  1.00  0.00    -0.143 OA 
HETATM    5  C   UNL     1      -9.743   7.591  68.974  1.00  0.00    -0.162 C  
BRANCH   3   6
HETATM    6  C   UNL     1      -9.813   8.530  66.681  1.00  0.00    -0.272 A  
HETATM    7  C   UNL     1      -8.981   8.152  65.603  1.00  0.00    -0.128 A  
HETATM    8  C   UNL     1     -11.085  10.559  67.755  1.00  0.00    -0.382 C  
HETATM    9  C   UNL     1     -10.148   9.916  66.764  1.00  0.00    -0.292 A  
HETATM   10  C   UNL     1      -8.500   9.063  64.651  1.00  0.00    -0.194 A  
HETATM   11  C   UNL     1      -8.819  10.400  64.753  1.00  0.00    -0.211 A  
HETATM   12  C   UNL     1      -9.632  10.820  65.798  1.00  0.00    -0.254 A  
ENDBRANCH   3   6
BRANCH   5  13
HETATM   13  C   UNL     1     -10.427   6.796  70.026  1.00  0.00    -0.241 C  
HETATM   14  C   UNL     1     -11.552   7.255  70.602  1.00  0.00    -0.322 C  
HETATM   15  C   UNL     1     -12.304   6.530  71.672  1.00  0.00    -0.315 C  
ENDBRANCH   5  13
ENDBRANCH   2   3
TORSDOF 3
ENDMDL
MODEL      164
REMARK 921   NORMALIZED FREE ENERGY PREDICTED BY IDOCK:   -3.09 KCAL/MOL
REMARK 922        TOTAL FREE ENERGY PREDICTED BY IDOCK:   -4.19 KCAL/MOL
REMARK 923 INTER-LIGAND FREE ENERGY PREDICTED BY IDOCK:   -4.02 KCAL/MOL
REMARK 924 INTRA-LIGAND FREE ENERGY PREDICTED BY IDOCK:   -0.17 KCAL/MOL
REMARK 927      BINDING AFFINITY PREDICTED BY RF-SCORE:    0.00 PKD
ROOT
HETATM    1  C   UNL     1     -10.578   8.379  66.840  1.00  0.00    -0.285 C  
HETATM    2  C   UNL     1      -9.788   9.549  66.268  1.00  0.00    -0.266 C  
ENDROOT
BRANCH   2   3
HETATM    3  N   UNL     1      -9.927  10.943  66.733  1.00  0.00    -0.198 N  
HETATM    4  O   UNL     1      -9.040  12.665  68.064  1.00  0.00    -0.194 OA 
HETATM    5  C   UNL     1      -9.314  11.474  67.883  1.00  0.00    -0.171 C  
BRANCH   3   6
HETATM    6  C   UNL     1     -10.592  11.879  65.797  1.00  0.00    -0.267 A  
HETATM    7  C   UNL     1     -11.715  12.594  66.271  1.00  0.00    -0.460 A  
HETATM    8  C   UNL     1      -9.043  11.522  63.709  1.00  0.00     0.120 C  
HETATM    9  C   UNL     1     -10.241  12.087  64.429  1.00  0.00    -0.332 A  
HETATM   10  C   UNL     1     -12.460  13.468  65.467  1.00  0.00    -0.538 A  
HETATM   11  C   UNL     1     -12.120  13.647  64.143  1.00  0.00    -0.484 A  
HETATM   12  C   UNL     1     -11.024  12.964  63.631  1.00  0.00    -0.321 A  
ENDBRANCH   3   6
BRANCH   5  13
HETATM   13  C   UNL     1      -9.000  10.550  69.003  1.00  0.00    -0.183 C  
HETATM   14  C   UNL     1      -9.920  10.288  69.947  1.00  0.00    -0.183 C  
HETATM   15  C   UNL     1      -9.692   9.380  71.113  1.00  0.00    -0.257 C  
ENDBRANCH   5  13
ENDBRANCH   2   3
TORSDOF 3
ENDMDL
MODEL      165
REMARK 921   NORMALIZED FREE ENERGY PREDICTED BY IDOCK:   -3.07 KCAL/MOL
REMARK 922        TOTAL FREE ENERGY PREDICTED BY IDOCK:   -4.17 KCAL/MOL
REMARK 923 INTER-LIGAND FREE ENERGY PREDICTED BY IDOCK:   -3.52 KCAL/MOL
REMARK 924 INTRA-LIGAND FREE ENERGY PREDICTED BY IDOCK:   -0.65 KCAL/MOL
REMARK 927      BINDING AFFINITY PREDICTED BY RF-SCORE:    0.00 PKD
ROOT
HETATM    1  C   UNL     1      -9.861   9.639  65.603  1.00  0.00    -0.369 C  
HETATM    2  C   UNL     1      -9.436  11.096  65.481  1.00  0.00    -0.221 C  
ENDROOT
BRANCH   2   3
HETATM    3  N   UNL     1      -8.985  11.921  66.619  1.00  0.00    -0.195 N  
HETATM    4  O   UNL     1      -7.214  13.122  67.590  1.00  0.00    -0.130 OA 
HETATM    5  C   UNL     1      -7.640  12.143  66.970  1.00  0.00    -0.093 C  
BRANCH   3   6
HETATM    6  C   UNL     1     -10.028  12.726  67.295  1.00  0.00    -0.219 A  
HETATM    7  C   UNL     1     -10.545  12.237  68.516  1.00  0.00    -0.254 A  
HETATM    8  C   UNL     1     -10.183  14.702  65.576  1.00  0.00    -0.395 C  
HETATM    9  C   UNL     1     -10.612  13.930  66.798  1.00  0.00    -0.277 A  
HETATM   10  C   UNL     1     -11.571  12.880  69.224  1.00  0.00    -0.368 A  
HETATM   11  C   UNL     1     -12.137  14.034  68.724  1.00  0.00    -0.338 A  
HETATM   12  C   UNL     1     -11.663  14.551  67.525  1.00  0.00    -0.413 A  
ENDBRANCH   3   6
BRANCH   5  13
HETATM   13  C   UNL     1      -6.639  11.106  66.612  1.00  0.00    -0.137 C  
HETATM   14  C   UNL     1      -6.461  10.031  67.400  1.00  0.00    -0.068 C  
HETATM   15  C   UNL     1      -5.473   8.942  67.126  1.00  0.00    -0.041 C  
ENDBRANCH   5  13
ENDBRANCH   2   3
TORSDOF 3
ENDMDL
MODEL      166
REMARK 921   NORMALIZED FREE ENERGY PREDICTED BY IDOCK:   -3.05 KCAL/MOL
REMARK 922        TOTAL FREE ENERGY PREDICTED BY IDOCK:   -4.14 KCAL/MOL
REMARK 923 INTER-LIGAND FREE ENERGY PREDICTED BY IDOCK:   -3.59 KCAL/MOL
REMARK 924 INTRA-LIGAND FREE ENERGY PREDICTED BY IDOCK:   -0.55 KCAL/MOL
REMARK 927      BINDING AFFINITY PREDICTED BY RF-SCORE:    0.00 PKD
ROOT
HETATM    1  C   UNL     1      -7.120   8.446  68.449  1.00  0.00    -0.080 C  
HETATM    2  C   UNL     1      -8.105   7.367  68.021  1.00  0.00    -0.124 C  
ENDROOT
BRANCH   2   3
HETATM    3  N   UNL     1      -9.553   7.411  68.308  1.00  0.00    -0.149 N  
HETATM    4  O   UNL     1     -11.402   6.303  69.245  1.00  0.00    -0.410 OA 
HETATM    5  C   UNL     1     -10.352   6.288  68.594  1.00  0.00    -0.206 C  
BRANCH   3   6
HETATM    6  C   UNL     1     -10.138   8.756  68.504  1.00  0.00    -0.189 A  
HETATM    7  C   UNL     1     -10.566   9.461  67.356  1.00  0.00    -0.326 A  
HETATM    8  C   UNL     1      -9.960   8.891  71.119  1.00  0.00    -0.342 C  
HETATM    9  C   UNL     1     -10.257   9.446  69.749  1.00  0.00    -0.238 A  
HETATM   10  C   UNL     1     -11.087  10.762  67.406  1.00  0.00    -0.363 A  
HETATM   11  C   UNL     1     -11.182  11.421  68.613  1.00  0.00    -0.303 A  
HETATM   12  C   UNL     1     -10.771  10.770  69.770  1.00  0.00    -0.241 A  
ENDBRANCH   3   6
BRANCH   5  13
HETATM   13  C   UNL     1      -9.941   4.972  68.042  1.00  0.00    -0.189 C  
HETATM   14  C   UNL     1      -9.464   4.013  68.855  1.00  0.00    -0.237 C  
HETATM   15  C   UNL     1      -9.019   2.663  68.390  1.00  0.00    -0.191 C  
ENDBRANCH   5  13
ENDBRANCH   2   3
TORSDOF 3
ENDMDL
MODEL      167
REMARK 921   NORMALIZED FREE ENERGY PREDICTED BY IDOCK:   -3.03 KCAL/MOL
REMARK 922        TOTAL FREE ENERGY PREDICTED BY IDOCK:   -4.12 KCAL/MOL
REMARK 923 INTER-LIGAND FREE ENERGY PREDICTED BY IDOCK:   -3.54 KCAL/MOL
REMARK 924 INTRA-LIGAND FREE ENERGY PREDICTED BY IDOCK:   -0.58 KCAL/MOL
REMARK 927      BINDING AFFINITY PREDICTED BY RF-SCORE:    0.00 PKD
ROOT
HETATM    1  C   UNL     1     -10.543  10.536  69.606  1.00  0.00    -0.281 C  
HETATM    2  C   UNL     1     -10.264  11.130  68.231  1.00  0.00    -0.182 C  
ENDROOT
BRANCH   2   3
HETATM    3  N   UNL     1      -9.715  10.361  67.096  1.00  0.00    -0.168 N  
HETATM    4  O   UNL     1      -8.944  10.419  64.877  1.00  0.00    -0.175 OA 
HETATM    5  C   UNL     1      -9.736  10.780  65.753  1.00  0.00    -0.228 C  
BRANCH   3   6
HETATM    6  C   UNL     1      -8.911   9.168  67.446  1.00  0.00    -0.118 A  
HETATM    7  C   UNL     1      -7.552   9.366  67.780  1.00  0.00    -0.088 A  
HETATM    8  C   UNL     1     -10.775   7.340  67.183  1.00  0.00    -0.413 C  
HETATM    9  C   UNL     1      -9.364   7.813  67.419  1.00  0.00    -0.168 A  
HETATM   10  C   UNL     1      -6.676   8.313  68.078  1.00  0.00    -0.065 A  
HETATM   11  C   UNL     1      -7.122   7.009  68.032  1.00  0.00    -0.086 A  
HETATM   12  C   UNL     1      -8.450   6.764  67.705  1.00  0.00    -0.122 A  
ENDBRANCH   3   6
BRANCH   5  13
HETATM   13  C   UNL     1     -10.817  11.702  65.320  1.00  0.00    -0.340 C  
HETATM   14  C   UNL     1     -11.044  11.920  64.013  1.00  0.00    -0.459 C  
HETATM   15  C   UNL     1     -12.102  12.834  63.484  1.00  0.00    -0.642 C  
ENDBRANCH   5  13
ENDBRANCH   2   3
TORSDOF 3
ENDMDL
MODEL      168
REMARK 921   NORMALIZED FREE ENERGY PREDICTED BY IDOCK:   -3.02 KCAL/MOL
REMARK 922        TOTAL FREE ENERGY PREDICTED BY IDOCK:   -4.10 KCAL/MOL
REMARK 923 INTER-LIGAND FREE ENERGY PREDICTED BY IDOCK:   -3.51 KCAL/MOL
REMARK 924 INTRA-LIGAND FREE ENERGY PREDICTED BY IDOCK:   -0.59 KCAL/MOL
REMARK 927      BINDING AFFINITY PREDICTED BY RF-SCORE:    0.00 PKD
ROOT
HETATM    1  C   UNL     1     -10.865   7.149  67.080  1.00  0.00    -0.403 C  
HETATM    2  C   UNL     1     -10.457   8.442  67.774  1.00  0.00    -0.220 C  
ENDROOT
BRANCH   2   3
HETATM    3  N   UNL     1      -9.776   8.496  69.083  1.00  0.00    -0.168 N  
HETATM    4  O   UNL     1      -8.379   9.726  70.518  1.00  0.00    -0.194 OA 
HETATM    5  C   UNL     1      -8.684   9.329  69.389  1.00  0.00    -0.148 C  
BRANCH   3   6
HETATM    6  C   UNL     1     -10.433   7.767  70.191  1.00  0.00    -0.231 A  
HETATM    7  C   UNL     1     -10.026   6.436  70.436  1.00  0.00    -0.213 A  
HETATM    8  C   UNL     1     -12.049   9.665  71.013  1.00  0.00    -0.421 C  
HETATM    9  C   UNL     1     -11.495   8.264  71.008  1.00  0.00    -0.303 A  
HETATM   10  C   UNL     1     -10.609   5.626  71.421  1.00  0.00    -0.317 A  
HETATM   11  C   UNL     1     -11.644   6.113  72.191  1.00  0.00    -0.369 A  
HETATM   12  C   UNL     1     -12.081   7.416  71.985  1.00  0.00    -0.325 A  
ENDBRANCH   3   6
BRANCH   5  13
HETATM   13  C   UNL     1      -7.783   9.744  68.282  1.00  0.00    -0.085 C  
HETATM   14  C   UNL     1      -6.710   9.000  67.963  1.00  0.00    -0.068 C  
HETATM   15  C   UNL     1      -5.745   9.341  66.873  1.00  0.00    -0.048 C  
ENDBRANCH   5  13
ENDBRANCH   2   3
TORSDOF 3
ENDMDL
MODEL      169
REMARK 921   NORMALIZED FREE ENERGY PREDICTED BY IDOCK:   -3.01 KCAL/MOL
REMARK 922        TOTAL FREE ENERGY PREDICTED BY IDOCK:   -4.09 KCAL/MOL
REMARK 923 INTER-LIGAND FREE ENERGY PREDICTED BY IDOCK:   -3.46 KCAL/MOL
REMARK 924 INTRA-LIGAND FREE ENERGY PREDICTED BY IDOCK:   -0.64 KCAL/MOL
REMARK 927      BINDING AFFINITY PREDICTED BY RF-SCORE:    0.00 PKD
ROOT
HETATM    1  C   UNL     1      -9.592   9.057  65.914  1.00  0.00    -0.317 C  
HETATM    2  C   UNL     1     -10.464   8.547  67.053  1.00  0.00    -0.292 C  
ENDROOT
BRANCH   2   3
HETATM    3  N   UNL     1     -10.360   9.022  68.448  1.00  0.00    -0.202 N  
HETATM    4  O   UNL     1     -11.396  10.186  70.207  1.00  0.00    -0.269 OA 
HETATM    5  C   UNL     1     -11.133  10.056  69.007  1.00  0.00    -0.180 C  
BRANCH   3   6
HETATM    6  C   UNL     1      -9.524   8.203  69.355  1.00  0.00    -0.162 A  
HETATM    7  C   UNL     1      -8.161   8.553  69.488  1.00  0.00    -0.116 A  
HETATM    8  C   UNL     1     -11.359   6.513  70.169  1.00  0.00    -0.463 C  
HETATM    9  C   UNL     1      -9.951   7.043  70.070  1.00  0.00    -0.188 A  
HETATM   10  C   UNL     1      -7.258   7.824  70.274  1.00  0.00    -0.062 A  
HETATM   11  C   UNL     1      -7.680   6.697  70.947  1.00  0.00    -0.094 A  
HETATM   12  C   UNL     1      -9.011   6.312  70.843  1.00  0.00    -0.147 A  
ENDBRANCH   3   6
BRANCH   5  13
HETATM   13  C   UNL     1     -11.652  11.115  68.103  1.00  0.00    -0.350 C  
HETATM   14  C   UNL     1     -10.900  12.190  67.811  1.00  0.00    -0.263 C  
HETATM   15  C   UNL     1     -11.340  13.307  66.920  1.00  0.00    -0.351 C  
ENDBRANCH   5  13
ENDBRANCH   2   3
TORSDOF 3
ENDMDL
MODEL      170
REMARK 921   NORMALIZED FREE ENERGY PREDICTED BY IDOCK:   -3.01 KCAL/MOL
REMARK 922        TOTAL FREE ENERGY PREDICTED BY IDOCK:   -4.09 KCAL/MOL
REMARK 923 INTER-LIGAND FREE ENERGY PREDICTED BY IDOCK:   -3.73 KCAL/MOL
REMARK 924 INTRA-LIGAND FREE ENERGY PREDICTED BY IDOCK:   -0.36 KCAL/MOL
REMARK 927      BINDING AFFINITY PREDICTED BY RF-SCORE:    0.00 PKD
ROOT
HETATM    1  C   UNL     1      -8.056  13.425  67.366  1.00  0.00    -0.178 C  
HETATM    2  C   UNL     1      -8.422  12.310  68.337  1.00  0.00    -0.138 C  
ENDROOT
BRANCH   2   3
HETATM    3  N   UNL     1      -9.760  11.689  68.413  1.00  0.00    -0.196 N  
HETATM    4  O   UNL     1     -12.075  11.976  68.129  1.00  0.00    -0.480 OA 
HETATM    5  C   UNL     1     -10.973  12.396  68.496  1.00  0.00    -0.245 C  
BRANCH   3   6
HETATM    6  C   UNL     1      -9.815  10.228  68.177  1.00  0.00    -0.148 A  
HETATM    7  C   UNL     1      -9.808   9.778  66.837  1.00  0.00    -0.256 A  
HETATM    8  C   UNL     1      -9.878   9.423  70.674  1.00  0.00    -0.340 C  
HETATM    9  C   UNL     1      -9.936   9.220  69.182  1.00  0.00    -0.181 A  
HETATM   10  C   UNL     1      -9.909   8.425  66.484  1.00  0.00    -0.338 A  
HETATM   11  C   UNL     1     -10.042   7.464  67.464  1.00  0.00    -0.250 A  
HETATM   12  C   UNL     1     -10.057   7.858  68.796  1.00  0.00    -0.203 A  
ENDBRANCH   3   6
BRANCH   5  13
HETATM   13  C   UNL     1     -10.959  13.748  69.111  1.00  0.00    -0.246 C  
HETATM   14  C   UNL     1     -12.074  14.499  69.131  1.00  0.00    -0.299 C  
HETATM   15  C   UNL     1     -12.154  15.871  69.720  1.00  0.00    -0.231 C  
ENDBRANCH   5  13
ENDBRANCH   2   3
TORSDOF 3
ENDMDL
MODEL      171
REMARK 921   NORMALIZED FREE ENERGY PREDICTED BY IDOCK:   -3.00 KCAL/MOL
REMARK 922        TOTAL FREE ENERGY PREDICTED BY IDOCK:   -4.08 KCAL/MOL
REMARK 923 INTER-LIGAND FREE ENERGY PREDICTED BY IDOCK:   -3.62 KCAL/MOL
REMARK 924 INTRA-LIGAND FREE ENERGY PREDICTED BY IDOCK:   -0.46 KCAL/MOL
REMARK 927      BINDING AFFINITY PREDICTED BY RF-SCORE:    0.00 PKD
ROOT
HETATM    1  C   UNL     1      -7.011  11.637  68.985  1.00  0.00    -0.111 C  
HETATM    2  C   UNL     1      -7.822  11.460  67.708  1.00  0.00    -0.117 C  
ENDROOT
BRANCH   2   3
HETATM    3  N   UNL     1      -9.232  11.019  67.681  1.00  0.00    -0.148 N  
HETATM    4  O   UNL     1     -10.888   9.681  68.675  1.00  0.00    -0.219 OA 
HETATM    5  C   UNL     1      -9.724   9.856  68.300  1.00  0.00    -0.144 C  
BRANCH   3   6
HETATM    6  C   UNL     1     -10.208  11.990  67.135  1.00  0.00    -0.202 A  
HETATM    7  C   UNL     1     -10.638  13.036  67.983  1.00  0.00    -0.246 A  
HETATM    8  C   UNL     1     -10.463  10.986  64.724  1.00  0.00    -0.384 C  
HETATM    9  C   UNL     1     -10.809  11.937  65.841  1.00  0.00    -0.342 A  
HETATM   10  C   UNL     1     -11.597  13.985  67.600  1.00  0.00    -0.385 A  
HETATM   11  C   UNL     1     -12.181  13.912  66.354  1.00  0.00    -0.487 A  
HETATM   12  C   UNL     1     -11.792  12.899  65.486  1.00  0.00    -0.455 A  
ENDBRANCH   3   6
BRANCH   5  13
HETATM   13  C   UNL     1      -8.795   8.713  68.491  1.00  0.00    -0.142 C  
HETATM   14  C   UNL     1      -8.849   7.647  67.674  1.00  0.00    -0.125 C  
HETATM   15  C   UNL     1      -7.962   6.450  67.794  1.00  0.00    -0.114 C  
ENDBRANCH   5  13
ENDBRANCH   2   3
TORSDOF 3
ENDMDL
MODEL      172
REMARK 921   NORMALIZED FREE ENERGY PREDICTED BY IDOCK:   -2.99 KCAL/MOL
REMARK 922        TOTAL FREE ENERGY PREDICTED BY IDOCK:   -4.06 KCAL/MOL
REMARK 923 INTER-LIGAND FREE ENERGY PREDICTED BY IDOCK:   -3.54 KCAL/MOL
REMARK 924 INTRA-LIGAND FREE ENERGY PREDICTED BY IDOCK:   -0.52 KCAL/MOL
REMARK 927      BINDING AFFINITY PREDICTED BY RF-SCORE:    0.00 PKD
ROOT
HETATM    1  C   UNL     1     -12.130  11.092  69.968  1.00  0.00    -0.441 C  
HETATM    2  C   UNL     1     -10.767  10.413  69.953  1.00  0.00    -0.279 C  
ENDROOT
BRANCH   2   3
HETATM    3  N   UNL     1     -10.342   9.441  68.926  1.00  0.00    -0.208 N  
HETATM    4  O   UNL     1     -10.612   7.282  68.037  1.00  0.00    -0.208 OA 
HETATM    5  C   UNL     1     -10.541   8.050  69.002  1.00  0.00    -0.154 C  
BRANCH   3   6
HETATM    6  C   UNL     1      -9.861  10.011  67.647  1.00  0.00    -0.162 A  
HETATM    7  C   UNL     1     -10.826  10.541  66.760  1.00  0.00    -0.209 A  
HETATM    8  C   UNL     1      -7.289   9.607  67.972  1.00  0.00    -0.082 C  
HETATM    9  C   UNL     1      -8.508  10.024  67.190  1.00  0.00    -0.125 A  
HETATM   10  C   UNL     1     -10.502  11.060  65.499  1.00  0.00    -0.302 A  
HETATM   11  C   UNL     1      -9.194  11.052  65.064  1.00  0.00    -0.219 A  
HETATM   12  C   UNL     1      -8.210  10.538  65.900  1.00  0.00    -0.152 A  
ENDBRANCH   3   6
BRANCH   5  13
HETATM   13  C   UNL     1     -10.634   7.424  70.346  1.00  0.00    -0.238 C  
HETATM   14  C   UNL     1     -11.793   6.892  70.771  1.00  0.00    -0.427 C  
HETATM   15  C   UNL     1     -11.984   6.250  72.107  1.00  0.00    -0.338 C  
ENDBRANCH   5  13
ENDBRANCH   2   3
TORSDOF 3
ENDMDL
MODEL      173
REMARK 921   NORMALIZED FREE ENERGY PREDICTED BY IDOCK:   -2.98 KCAL/MOL
REMARK 922        TOTAL FREE ENERGY PREDICTED BY IDOCK:   -4.06 KCAL/MOL
REMARK 923 INTER-LIGAND FREE ENERGY PREDICTED BY IDOCK:   -3.40 KCAL/MOL
REMARK 924 INTRA-LIGAND FREE ENERGY PREDICTED BY IDOCK:   -0.66 KCAL/MOL
REMARK 927      BINDING AFFINITY PREDICTED BY RF-SCORE:    0.00 PKD
ROOT
HETATM    1  C   UNL     1      -8.038   9.357  70.697  1.00  0.00    -0.197 C  
HETATM    2  C   UNL     1      -8.107   8.935  69.235  1.00  0.00    -0.109 C  
ENDROOT
BRANCH   2   3
HETATM    3  N   UNL     1      -9.194   8.115  68.664  1.00  0.00    -0.143 N  
HETATM    4  O   UNL     1     -10.568   7.698  66.803  1.00  0.00    -0.325 OA 
HETATM    5  C   UNL     1      -9.987   8.482  67.561  1.00  0.00    -0.200 C  
BRANCH   3   6
HETATM    6  C   UNL     1      -9.300   6.728  69.173  1.00  0.00    -0.135 A  
HETATM    7  C   UNL     1      -8.227   5.847  68.908  1.00  0.00    -0.103 A  
HETATM    8  C   UNL     1     -11.642   6.910  70.341  1.00  0.00    -0.385 C  
HETATM    9  C   UNL     1     -10.420   6.171  69.861  1.00  0.00    -0.294 A  
HETATM   10  C   UNL     1      -8.232   4.498  69.291  1.00  0.00    -0.071 A  
HETATM   11  C   UNL     1      -9.327   3.969  69.941  1.00  0.00    -0.240 A  
HETATM   12  C   UNL     1     -10.408   4.796  70.221  1.00  0.00    -0.180 A  
ENDBRANCH   3   6
BRANCH   5  13
HETATM   13  C   UNL     1     -10.192   9.928  67.292  1.00  0.00    -0.277 C  
HETATM   14  C   UNL     1     -11.268  10.567  67.783  1.00  0.00    -0.344 C  
HETATM   15  C   UNL     1     -11.561  12.015  67.558  1.00  0.00    -0.401 C  
ENDBRANCH   5  13
ENDBRANCH   2   3
TORSDOF 3
ENDMDL
MODEL      174
REMARK 921   NORMALIZED FREE ENERGY PREDICTED BY IDOCK:   -2.98 KCAL/MOL
REMARK 922        TOTAL FREE ENERGY PREDICTED BY IDOCK:   -4.05 KCAL/MOL
REMARK 923 INTER-LIGAND FREE ENERGY PREDICTED BY IDOCK:   -3.48 KCAL/MOL
REMARK 924 INTRA-LIGAND FREE ENERGY PREDICTED BY IDOCK:   -0.57 KCAL/MOL
REMARK 927      BINDING AFFINITY PREDICTED BY RF-SCORE:    0.00 PKD
ROOT
HETATM    1  C   UNL     1     -10.820   6.705  67.780  1.00  0.00    -0.372 C  
HETATM    2  C   UNL     1     -11.281   6.201  69.141  1.00  0.00    -0.339 C  
ENDROOT
BRANCH   2   3
HETATM    3  N   UNL     1     -10.577   6.484  70.408  1.00  0.00    -0.221 N  
HETATM    4  O   UNL     1     -10.698   7.449  72.546  1.00  0.00    -0.233 OA 
HETATM    5  C   UNL     1     -10.957   7.467  71.339  1.00  0.00    -0.231 C  
BRANCH   3   6
HETATM    6  C   UNL     1      -9.526   5.517  70.799  1.00  0.00    -0.166 A  
HETATM    7  C   UNL     1      -9.937   4.314  71.417  1.00  0.00    -0.238 A  
HETATM    8  C   UNL     1      -7.426   6.853  69.968  1.00  0.00    -0.093 C  
HETATM    9  C   UNL     1      -8.117   5.710  70.666  1.00  0.00    -0.116 A  
HETATM   10  C   UNL     1      -9.035   3.345  71.880  1.00  0.00    -0.147 A  
HETATM   11  C   UNL     1      -7.678   3.551  71.759  1.00  0.00    -0.057 A  
HETATM   12  C   UNL     1      -7.226   4.721  71.161  1.00  0.00    -0.052 A  
ENDBRANCH   3   6
BRANCH   5  13
HETATM   13  C   UNL     1     -11.697   8.657  70.844  1.00  0.00    -0.287 C  
HETATM   14  C   UNL     1     -11.800   9.760  71.606  1.00  0.00    -0.429 C  
HETATM   15  C   UNL     1     -12.529  10.999  71.196  1.00  0.00    -0.502 C  
ENDBRANCH   5  13
ENDBRANCH   2   3
TORSDOF 3
ENDMDL
MODEL      175
REMARK 921   NORMALIZED FREE ENERGY PREDICTED BY IDOCK:   -2.97 KCAL/MOL
REMARK 922        TOTAL FREE ENERGY PREDICTED BY IDOCK:   -4.04 KCAL/MOL
REMARK 923 INTER-LIGAND FREE ENERGY PREDICTED BY IDOCK:   -3.46 KCAL/MOL
REMARK 924 INTRA-LIGAND FREE ENERGY PREDICTED BY IDOCK:   -0.58 KCAL/MOL
REMARK 927      BINDING AFFINITY PREDICTED BY RF-SCORE:    0.00 PKD
ROOT
HETATM    1  C   UNL     1     -10.658   7.780  67.201  1.00  0.00    -0.401 C  
HETATM    2  C   UNL     1      -9.942   8.914  66.479  1.00  0.00    -0.288 C  
ENDROOT
BRANCH   2   3
HETATM    3  N   UNL     1      -9.658  10.229  67.087  1.00  0.00    -0.165 N  
HETATM    4  O   UNL     1     -10.517  12.322  67.725  1.00  0.00    -0.203 OA 
HETATM    5  C   UNL     1     -10.455  11.379  66.930  1.00  0.00    -0.240 C  
BRANCH   3   6
HETATM    6  C   UNL     1      -8.571  10.262  68.091  1.00  0.00    -0.119 A  
HETATM    7  C   UNL     1      -7.275  10.610  67.646  1.00  0.00    -0.089 A  
HETATM    8  C   UNL     1      -9.966   9.597  70.212  1.00  0.00    -0.326 C  
HETATM    9  C   UNL     1      -8.692   9.914  69.471  1.00  0.00    -0.200 A  
HETATM   10  C   UNL     1      -6.155  10.625  68.489  1.00  0.00    -0.046 A  
HETATM   11  C   UNL     1      -6.284  10.272  69.815  1.00  0.00    -0.060 A  
HETATM   12  C   UNL     1      -7.538   9.919  70.299  1.00  0.00    -0.172 A  
ENDBRANCH   3   6
BRANCH   5  13
HETATM   13  C   UNL     1     -11.267  11.509  65.693  1.00  0.00    -0.212 C  
HETATM   14  C   UNL     1     -11.111  12.573  64.886  1.00  0.00    -0.336 C  
HETATM   15  C   UNL     1     -11.887  12.793  63.627  1.00  0.00    -0.603 C  
ENDBRANCH   5  13
ENDBRANCH   2   3
TORSDOF 3
ENDMDL
MODEL      176
REMARK 921   NORMALIZED FREE ENERGY PREDICTED BY IDOCK:   -2.95 KCAL/MOL
REMARK 922        TOTAL FREE ENERGY PREDICTED BY IDOCK:   -4.03 KCAL/MOL
REMARK 923 INTER-LIGAND FREE ENERGY PREDICTED BY IDOCK:   -3.36 KCAL/MOL
REMARK 924 INTRA-LIGAND FREE ENERGY PREDICTED BY IDOCK:   -0.67 KCAL/MOL
REMARK 927      BINDING AFFINITY PREDICTED BY RF-SCORE:    0.00 PKD
ROOT
HETATM    1  C   UNL     1     -10.658   8.048  67.200  1.00  0.00    -0.367 C  
HETATM    2  C   UNL     1     -10.453   7.883  68.700  1.00  0.00    -0.167 C  
ENDROOT
BRANCH   2   3
HETATM    3  N   UNL     1      -9.626   8.788  69.524  1.00  0.00    -0.165 N  
HETATM    4  O   UNL     1      -8.841   9.312  71.676  1.00  0.00    -0.312 OA 
HETATM    5  C   UNL     1      -9.742   8.939  70.918  1.00  0.00    -0.239 C  
BRANCH   3   6
HETATM    6  C   UNL     1      -8.469   9.413  68.845  1.00  0.00    -0.122 A  
HETATM    7  C   UNL     1      -7.293   8.641  68.706  1.00  0.00    -0.083 A  
HETATM    8  C   UNL     1      -9.535  11.750  68.309  1.00  0.00    -0.193 C  
HETATM    9  C   UNL     1      -8.403  10.756  68.363  1.00  0.00    -0.132 A  
HETATM   10  C   UNL     1      -6.115   9.138  68.130  1.00  0.00    -0.050 A  
HETATM   11  C   UNL     1      -6.061  10.441  67.684  1.00  0.00    -0.052 A  
HETATM   12  C   UNL     1      -7.192  11.240  67.801  1.00  0.00    -0.088 A  
ENDBRANCH   3   6
BRANCH   5  13
HETATM   13  C   UNL     1     -11.061   8.673  71.548  1.00  0.00    -0.358 C  
HETATM   14  C   UNL     1     -12.014   9.621  71.558  1.00  0.00    -0.485 C  
HETATM   15  C   UNL     1     -13.365   9.448  72.174  1.00  0.00    -0.545 C  
ENDBRANCH   5  13
ENDBRANCH   2   3
TORSDOF 3
ENDMDL
MODEL      177
REMARK 921   NORMALIZED FREE ENERGY PREDICTED BY IDOCK:   -2.95 KCAL/MOL
REMARK 922        TOTAL FREE ENERGY PREDICTED BY IDOCK:   -4.02 KCAL/MOL
REMARK 923 INTER-LIGAND FREE ENERGY PREDICTED BY IDOCK:   -3.39 KCAL/MOL
REMARK 924 INTRA-LIGAND FREE ENERGY PREDICTED BY IDOCK:   -0.63 KCAL/MOL
REMARK 927      BINDING AFFINITY PREDICTED BY RF-SCORE:    0.00 PKD
ROOT
HETATM    1  C   UNL     1     -10.412   5.750  68.301  1.00  0.00    -0.281 C  
HETATM    2  C   UNL     1     -11.147   7.080  68.212  1.00  0.00    -0.006 C  
ENDROOT
BRANCH   2   3
HETATM    3  N   UNL     1     -10.553   8.378  68.592  1.00  0.00    -0.163 N  
HETATM    4  O   UNL     1      -9.691   9.708  70.327  1.00  0.00    -0.240 OA 
HETATM    5  C   UNL     1     -10.518   8.896  69.900  1.00  0.00    -0.214 C  
BRANCH   3   6
HETATM    6  C   UNL     1      -9.767   9.066  67.543  1.00  0.00    -0.161 A  
HETATM    7  C   UNL     1     -10.438  10.007  66.729  1.00  0.00    -0.267 A  
HETATM    8  C   UNL     1      -7.436   7.948  67.995  1.00  0.00    -0.108 C  
HETATM    9  C   UNL     1      -8.394   8.826  67.231  1.00  0.00    -0.104 A  
HETATM   10  C   UNL     1      -9.816  10.684  65.671  1.00  0.00    -0.307 A  
HETATM   11  C   UNL     1      -8.494  10.431  65.371  1.00  0.00    -0.173 A  
HETATM   12  C   UNL     1      -7.793   9.512  66.142  1.00  0.00    -0.100 A  
ENDBRANCH   3   6
BRANCH   5  13
HETATM   13  C   UNL     1     -11.579   8.477  70.851  1.00  0.00    -0.295 C  
HETATM   14  C   UNL     1     -12.456   9.376  71.332  1.00  0.00    -0.435 C  
HETATM   15  C   UNL     1     -13.550   9.050  72.297  1.00  0.00    -0.540 C  
ENDBRANCH   5  13
ENDBRANCH   2   3
TORSDOF 3
ENDMDL
MODEL      178
REMARK 921   NORMALIZED FREE ENERGY PREDICTED BY IDOCK:   -2.95 KCAL/MOL
REMARK 922        TOTAL FREE ENERGY PREDICTED BY IDOCK:   -4.02 KCAL/MOL
REMARK 923 INTER-LIGAND FREE ENERGY PREDICTED BY IDOCK:   -3.41 KCAL/MOL
REMARK 924 INTRA-LIGAND FREE ENERGY PREDICTED BY IDOCK:   -0.61 KCAL/MOL
REMARK 927      BINDING AFFINITY PREDICTED BY RF-SCORE:    0.00 PKD
ROOT
HETATM    1  C   UNL     1     -11.440  10.948  67.928  1.00  0.00    -0.344 C  
HETATM    2  C   UNL     1     -10.129  11.102  68.686  1.00  0.00    -0.200 C  
ENDROOT
BRANCH   2   3
HETATM    3  N   UNL     1      -9.294   9.968  69.131  1.00  0.00    -0.182 N  
HETATM    4  O   UNL     1      -7.378   9.285  70.308  1.00  0.00    -0.072 OA 
HETATM    5  C   UNL     1      -7.953  10.068  69.545  1.00  0.00    -0.158 C  
BRANCH   3   6
HETATM    6  C   UNL     1      -9.999   8.683  69.342  1.00  0.00    -0.197 A  
HETATM    7  C   UNL     1      -9.941   7.724  68.306  1.00  0.00    -0.201 A  
HETATM    8  C   UNL     1     -10.943   9.138  71.748  1.00  0.00    -0.429 C  
HETATM    9  C   UNL     1     -10.791   8.339  70.479  1.00  0.00    -0.245 A  
HETATM   10  C   UNL     1     -10.611   6.493  68.365  1.00  0.00    -0.296 A  
HETATM   11  C   UNL     1     -11.385   6.180  69.462  1.00  0.00    -0.426 A  
HETATM   12  C   UNL     1     -11.474   7.093  70.505  1.00  0.00    -0.334 A  
ENDBRANCH   3   6
BRANCH   5  13
HETATM   13  C   UNL     1      -7.128  11.176  68.999  1.00  0.00    -0.113 C  
HETATM   14  C   UNL     1      -6.195  11.771  69.763  1.00  0.00    -0.138 C  
HETATM   15  C   UNL     1      -5.325  12.896  69.304  1.00  0.00    -0.074 C  
ENDBRANCH   5  13
ENDBRANCH   2   3
TORSDOF 3
ENDMDL
MODEL      179
REMARK 921   NORMALIZED FREE ENERGY PREDICTED BY IDOCK:   -2.94 KCAL/MOL
REMARK 922        TOTAL FREE ENERGY PREDICTED BY IDOCK:   -4.01 KCAL/MOL
REMARK 923 INTER-LIGAND FREE ENERGY PREDICTED BY IDOCK:   -3.47 KCAL/MOL
REMARK 924 INTRA-LIGAND FREE ENERGY PREDICTED BY IDOCK:   -0.54 KCAL/MOL
REMARK 927      BINDING AFFINITY PREDICTED BY RF-SCORE:    0.00 PKD
ROOT
HETATM    1  C   UNL     1      -9.927   4.709  66.761  1.00  0.00    -0.250 C  
HETATM    2  C   UNL     1     -10.594   5.979  67.270  1.00  0.00    -0.294 C  
ENDROOT
BRANCH   2   3
HETATM    3  N   UNL     1      -9.858   7.126  67.839  1.00  0.00    -0.140 N  
HETATM    4  O   UNL     1      -8.089   7.834  69.215  1.00  0.00    -0.122 OA 
HETATM    5  C   UNL     1      -9.026   7.067  68.973  1.00  0.00    -0.133 C  
BRANCH   3   6
HETATM    6  C   UNL     1      -9.847   8.363  67.025  1.00  0.00    -0.230 A  
HETATM    7  C   UNL     1     -10.647   9.443  67.461  1.00  0.00    -0.333 A  
HETATM    8  C   UNL     1      -8.162   7.599  65.164  1.00  0.00    -0.130 C  
HETATM    9  C   UNL     1      -9.145   8.551  65.796  1.00  0.00    -0.222 A  
HETATM   10  C   UNL     1     -10.762  10.646  66.748  1.00  0.00    -0.272 A  
HETATM   11  C   UNL     1     -10.091  10.808  65.555  1.00  0.00    -0.335 A  
HETATM   12  C   UNL     1      -9.294   9.772  65.085  1.00  0.00    -0.322 A  
ENDBRANCH   3   6
BRANCH   5  13
HETATM   13  C   UNL     1      -9.307   6.030  69.999  1.00  0.00    -0.170 C  
HETATM   14  C   UNL     1     -10.226   6.250  70.955  1.00  0.00    -0.236 C  
HETATM   15  C   UNL     1     -10.570   5.270  72.031  1.00  0.00    -0.279 C  
ENDBRANCH   5  13
ENDBRANCH   2   3
TORSDOF 3
ENDMDL
MODEL      180
REMARK 921   NORMALIZED FREE ENERGY PREDICTED BY IDOCK:   -2.93 KCAL/MOL
REMARK 922        TOTAL FREE ENERGY PREDICTED BY IDOCK:   -4.00 KCAL/MOL
REMARK 923 INTER-LIGAND FREE ENERGY PREDICTED BY IDOCK:   -3.68 KCAL/MOL
REMARK 924 INTRA-LIGAND FREE ENERGY PREDICTED BY IDOCK:   -0.31 KCAL/MOL
REMARK 927      BINDING AFFINITY PREDICTED BY RF-SCORE:    0.00 PKD
ROOT
HETATM    1  C   UNL     1      -7.357  14.433  67.507  1.00  0.00    -0.208 C  
HETATM    2  C   UNL     1      -7.530  15.890  67.099  1.00  0.00    -0.227 C  
ENDROOT
BRANCH   2   3
HETATM    3  N   UNL     1      -8.319  16.873  67.867  1.00  0.00    -0.195 N  
HETATM    4  O   UNL     1      -9.965  17.215  69.509  1.00  0.00    -0.109 OA 
HETATM    5  C   UNL     1      -9.523  16.592  68.538  1.00  0.00    -0.239 C  
BRANCH   3   6
HETATM    6  C   UNL     1      -7.674  18.185  68.103  1.00  0.00    -0.274 A  
HETATM    7  C   UNL     1      -8.141  19.291  67.357  1.00  0.00    -0.306 A  
HETATM    8  C   UNL     1      -5.951  17.455  69.943  1.00  0.00    -0.232 C  
HETATM    9  C   UNL     1      -6.573  18.432  68.979  1.00  0.00    -0.270 A  
HETATM   10  C   UNL     1      -7.576  20.571  67.453  1.00  0.00    -0.380 A  
HETATM   11  C   UNL     1      -6.503  20.792  68.290  1.00  0.00    -0.302 A  
HETATM   12  C   UNL     1      -6.008  19.734  69.042  1.00  0.00    -0.288 A  
ENDBRANCH   3   6
BRANCH   5  13
HETATM   13  C   UNL     1     -10.372  15.485  68.029  1.00  0.00    -0.247 C  
HETATM   14  C   UNL     1     -11.152  15.666  66.949  1.00  0.00    -0.181 C  
HETATM   15  C   UNL     1     -12.043  14.615  66.370  1.00  0.00    -0.229 C  
ENDBRANCH   5  13
ENDBRANCH   2   3
TORSDOF 3
ENDMDL
MODEL      181
REMARK 921   NORMALIZED FREE ENERGY PREDICTED BY IDOCK:   -2.91 KCAL/MOL
REMARK 922        TOTAL FREE ENERGY PREDICTED BY IDOCK:   -3.98 KCAL/MOL
REMARK 923 INTER-LIGAND FREE ENERGY PREDICTED BY IDOCK:   -3.67 KCAL/MOL
REMARK 924 INTRA-LIGAND FREE ENERGY PREDICTED BY IDOCK:   -0.31 KCAL/MOL
REMARK 927      BINDING AFFINITY PREDICTED BY RF-SCORE:    0.00 PKD
ROOT
HETATM    1  C   UNL     1     -12.034  14.220  68.224  1.00  0.00    -0.346 C  
HETATM    2  C   UNL     1     -10.547  13.898  68.301  1.00  0.00    -0.257 C  
ENDROOT
BRANCH   2   3
HETATM    3  N   UNL     1      -9.774  13.300  67.194  1.00  0.00    -0.230 N  
HETATM    4  O   UNL     1      -7.977  11.917  66.580  1.00  0.00    -0.090 OA 
HETATM    5  C   UNL     1      -8.471  12.782  67.309  1.00  0.00    -0.194 C  
BRANCH   3   6
HETATM    6  C   UNL     1     -10.519  13.052  65.939  1.00  0.00    -0.281 A  
HETATM    7  C   UNL     1     -10.936  11.728  65.672  1.00  0.00    -0.348 A  
HETATM    8  C   UNL     1     -10.554  15.505  65.006  1.00  0.00    -0.435 C  
HETATM    9  C   UNL     1     -10.808  14.021  64.930  1.00  0.00    -0.421 A  
HETATM   10  C   UNL     1     -11.601  11.358  64.494  1.00  0.00    -0.044 A  
HETATM   11  C   UNL     1     -11.859  12.301  63.522  1.00  0.00    -0.601 A  
HETATM   12  C   UNL     1     -11.466  13.615  63.738  1.00  0.00    -0.106 A  
ENDBRANCH   3   6
BRANCH   5  13
HETATM   13  C   UNL     1      -7.583  13.339  68.362  1.00  0.00    -0.137 C  
HETATM   14  C   UNL     1      -6.247  13.232  68.252  1.00  0.00    -0.099 C  
HETATM   15  C   UNL     1      -5.276  13.753  69.262  1.00  0.00    -0.081 C  
ENDBRANCH   5  13
ENDBRANCH   2   3
TORSDOF 3
ENDMDL
MODEL      182
REMARK 921   NORMALIZED FREE ENERGY PREDICTED BY IDOCK:   -2.89 KCAL/MOL
REMARK 922        TOTAL FREE ENERGY PREDICTED BY IDOCK:   -3.95 KCAL/MOL
REMARK 923 INTER-LIGAND FREE ENERGY PREDICTED BY IDOCK:   -3.26 KCAL/MOL
REMARK 924 INTRA-LIGAND FREE ENERGY PREDICTED BY IDOCK:   -0.69 KCAL/MOL
REMARK 927      BINDING AFFINITY PREDICTED BY RF-SCORE:    0.00 PKD
ROOT
HETATM    1  C   UNL     1     -10.570  10.855  64.512  1.00  0.00    -0.335 C  
HETATM    2  C   UNL     1      -9.664  11.925  65.106  1.00  0.00    -0.176 C  
ENDROOT
BRANCH   2   3
HETATM    3  N   UNL     1      -9.224  11.944  66.516  1.00  0.00    -0.211 N  
HETATM    4  O   UNL     1      -7.404  11.971  68.002  1.00  0.00    -0.088 OA 
HETATM    5  C   UNL     1      -7.943  11.572  66.965  1.00  0.00    -0.161 C  
BRANCH   3   6
HETATM    6  C   UNL     1     -10.141  12.597  67.477  1.00  0.00    -0.212 A  
HETATM    7  C   UNL     1     -10.078  14.004  67.593  1.00  0.00    -0.241 A  
HETATM    8  C   UNL     1     -11.376  10.459  68.365  1.00  0.00    -0.292 C  
HETATM    9  C   UNL     1     -11.053  11.931  68.351  1.00  0.00    -0.292 A  
HETATM   10  C   UNL     1     -10.857  14.732  68.504  1.00  0.00    -0.255 A  
HETATM   11  C   UNL     1     -11.722  14.075  69.353  1.00  0.00    -0.365 A  
HETATM   12  C   UNL     1     -11.816  12.691  69.277  1.00  0.00    -0.358 A  
ENDBRANCH   3   6
BRANCH   5  13
HETATM   13  C   UNL     1      -7.174  10.587  66.162  1.00  0.00    -0.136 C  
HETATM   14  C   UNL     1      -7.354   9.268  66.350  1.00  0.00    -0.092 C  
HETATM   15  C   UNL     1      -6.621   8.205  65.596  1.00  0.00    -0.049 C  
ENDBRANCH   5  13
ENDBRANCH   2   3
TORSDOF 3
ENDMDL
MODEL      183
REMARK 921   NORMALIZED FREE ENERGY PREDICTED BY IDOCK:   -2.88 KCAL/MOL
REMARK 922        TOTAL FREE ENERGY PREDICTED BY IDOCK:   -3.93 KCAL/MOL
REMARK 923 INTER-LIGAND FREE ENERGY PREDICTED BY IDOCK:   -3.49 KCAL/MOL
REMARK 924 INTRA-LIGAND FREE ENERGY PREDICTED BY IDOCK:   -0.45 KCAL/MOL
REMARK 927      BINDING AFFINITY PREDICTED BY RF-SCORE:    0.00 PKD
ROOT
HETATM    1  C   UNL     1     -11.516  13.919  69.213  1.00  0.00    -0.348 C  
HETATM    2  C   UNL     1     -10.882  12.879  68.300  1.00  0.00    -0.242 C  
ENDROOT
BRANCH   2   3
HETATM    3  N   UNL     1      -9.464  12.897  67.888  1.00  0.00    -0.201 N  
HETATM    4  O   UNL     1      -7.696  11.713  66.891  1.00  0.00    -0.154 OA 
HETATM    5  C   UNL     1      -8.686  11.754  67.628  1.00  0.00    -0.159 C  
BRANCH   3   6
HETATM    6  C   UNL     1      -8.906  14.221  67.531  1.00  0.00    -0.199 A  
HETATM    7  C   UNL     1      -7.932  14.777  68.391  1.00  0.00    -0.138 A  
HETATM    8  C   UNL     1     -10.249  14.636  65.315  1.00  0.00    -0.421 C  
HETATM    9  C   UNL     1      -9.304  15.028  66.422  1.00  0.00    -0.334 A  
HETATM   10  C   UNL     1      -7.368  16.045  68.190  1.00  0.00    -0.133 A  
HETATM   11  C   UNL     1      -7.773  16.820  67.124  1.00  0.00    -0.213 A  
HETATM   12  C   UNL     1      -8.731  16.317  66.252  1.00  0.00    -0.370 A  
ENDBRANCH   3   6
BRANCH   5  13
HETATM   13  C   UNL     1      -9.041  10.488  68.320  1.00  0.00    -0.146 C  
HETATM   14  C   UNL     1      -9.877   9.608  67.743  1.00  0.00    -0.192 C  
HETATM   15  C   UNL     1     -10.297   8.316  68.365  1.00  0.00    -0.237 C  
ENDBRANCH   5  13
ENDBRANCH   2   3
TORSDOF 3
ENDMDL
MODEL      184
REMARK 921   NORMALIZED FREE ENERGY PREDICTED BY IDOCK:   -2.87 KCAL/MOL
REMARK 922        TOTAL FREE ENERGY PREDICTED BY IDOCK:   -3.93 KCAL/MOL
REMARK 923 INTER-LIGAND FREE ENERGY PREDICTED BY IDOCK:   -3.32 KCAL/MOL
REMARK 924 INTRA-LIGAND FREE ENERGY PREDICTED BY IDOCK:   -0.61 KCAL/MOL
REMARK 927      BINDING AFFINITY PREDICTED BY RF-SCORE:    0.00 PKD
ROOT
HETATM    1  C   UNL     1      -6.863  11.151  69.691  1.00  0.00    -0.117 C  
HETATM    2  C   UNL     1      -7.621  10.329  68.657  1.00  0.00    -0.089 C  
ENDROOT
BRANCH   2   3
HETATM    3  N   UNL     1      -9.085  10.382  68.472  1.00  0.00    -0.139 N  
HETATM    4  O   UNL     1     -11.192  10.473  69.510  1.00  0.00    -0.235 OA 
HETATM    5  C   UNL     1     -10.034  10.045  69.454  1.00  0.00    -0.223 C  
BRANCH   3   6
HETATM    6  C   UNL     1      -9.562  11.035  67.231  1.00  0.00    -0.165 A  
HETATM    7  C   UNL     1      -9.867  10.206  66.128  1.00  0.00    -0.297 A  
HETATM    8  C   UNL     1      -9.511  13.528  68.048  1.00  0.00    -0.220 C  
HETATM    9  C   UNL     1      -9.687  12.442  67.019  1.00  0.00    -0.211 A  
HETATM   10  C   UNL     1     -10.276  10.708  64.884  1.00  0.00    -0.395 A  
HETATM   11  C   UNL     1     -10.377  12.069  64.688  1.00  0.00    -0.325 A  
HETATM   12  C   UNL     1     -10.085  12.924  65.743  1.00  0.00    -0.294 A  
ENDBRANCH   3   6
BRANCH   5  13
HETATM   13  C   UNL     1      -9.648   9.060  70.497  1.00  0.00    -0.264 C  
HETATM   14  C   UNL     1      -9.870   7.747  70.309  1.00  0.00    -0.184 C  
HETATM   15  C   UNL     1      -9.523   6.686  71.303  1.00  0.00    -0.166 C  
ENDBRANCH   5  13
ENDBRANCH   2   3
TORSDOF 3
ENDMDL
MODEL      185
REMARK 921   NORMALIZED FREE ENERGY PREDICTED BY IDOCK:   -2.87 KCAL/MOL
REMARK 922        TOTAL FREE ENERGY PREDICTED BY IDOCK:   -3.93 KCAL/MOL
REMARK 923 INTER-LIGAND FREE ENERGY PREDICTED BY IDOCK:   -3.66 KCAL/MOL
REMARK 924 INTRA-LIGAND FREE ENERGY PREDICTED BY IDOCK:   -0.27 KCAL/MOL
REMARK 927      BINDING AFFINITY PREDICTED BY RF-SCORE:    0.00 PKD
ROOT
HETATM    1  C   UNL     1      -8.617   9.541  69.981  1.00  0.00    -0.234 C  
HETATM    2  C   UNL     1      -8.292   9.332  68.508  1.00  0.00    -0.119 C  
ENDROOT
BRANCH   2   3
HETATM    3  N   UNL     1      -9.169   8.610  67.564  1.00  0.00    -0.133 N  
HETATM    4  O   UNL     1     -10.989   7.145  67.306  1.00  0.00    -0.310 OA 
HETATM    5  C   UNL     1      -9.958   7.491  67.892  1.00  0.00    -0.165 C  
BRANCH   3   6
HETATM    6  C   UNL     1      -9.373   9.249  66.244  1.00  0.00    -0.200 A  
HETATM    7  C   UNL     1      -8.647   8.735  65.146  1.00  0.00    -0.209 A  
HETATM    8  C   UNL     1     -11.133  11.063  66.948  1.00  0.00    -0.280 C  
HETATM    9  C   UNL     1     -10.196  10.386  65.981  1.00  0.00    -0.295 A  
HETATM   10  C   UNL     1      -8.714   9.288  63.859  1.00  0.00    -0.193 A  
HETATM   11  C   UNL     1      -9.501  10.395  63.623  1.00  0.00    -0.353 A  
HETATM   12  C   UNL     1     -10.231  10.937  64.673  1.00  0.00    -0.411 A  
ENDBRANCH   3   6
BRANCH   5  13
HETATM   13  C   UNL     1      -9.511   6.616  69.006  1.00  0.00    -0.131 C  
HETATM   14  C   UNL     1     -10.254   5.561  69.383  1.00  0.00    -0.329 C  
HETATM   15  C   UNL     1      -9.888   4.631  70.495  1.00  0.00    -0.301 C  
ENDBRANCH   5  13
ENDBRANCH   2   3
TORSDOF 3
ENDMDL
MODEL      186
REMARK 921   NORMALIZED FREE ENERGY PREDICTED BY IDOCK:   -2.87 KCAL/MOL
REMARK 922        TOTAL FREE ENERGY PREDICTED BY IDOCK:   -3.93 KCAL/MOL
REMARK 923 INTER-LIGAND FREE ENERGY PREDICTED BY IDOCK:   -4.06 KCAL/MOL
REMARK 924 INTRA-LIGAND FREE ENERGY PREDICTED BY IDOCK:    0.14 KCAL/MOL
REMARK 927      BINDING AFFINITY PREDICTED BY RF-SCORE:    0.00 PKD
ROOT
HETATM    1  C   UNL     1      -7.627  14.647  67.375  1.00  0.00    -0.218 C  
HETATM    2  C   UNL     1      -8.959  14.222  66.770  1.00  0.00    -0.227 C  
ENDROOT
BRANCH   2   3
HETATM    3  N   UNL     1      -9.414  12.820  66.677  1.00  0.00    -0.245 N  
HETATM    4  O   UNL     1      -9.784  10.799  67.817  1.00  0.00    -0.159 OA 
HETATM    5  C   UNL     1      -9.107  11.810  67.608  1.00  0.00    -0.177 C  
BRANCH   3   6
HETATM    6  C   UNL     1     -10.428  12.531  65.638  1.00  0.00    -0.273 A  
HETATM    7  C   UNL     1     -10.003  11.841  64.480  1.00  0.00    -0.273 A  
HETATM    8  C   UNL     1     -12.516  13.603  66.811  1.00  0.00    -0.241 C  
HETATM    9  C   UNL     1     -11.796  12.939  65.665  1.00  0.00    -0.464 A  
HETATM   10  C   UNL     1     -10.856  11.556  63.404  1.00  0.00    -0.423 A  
HETATM   11  C   UNL     1     -12.171  11.970  63.436  1.00  0.00    -0.627 A  
HETATM   12  C   UNL     1     -12.633  12.654  64.553  1.00  0.00    -0.491 A  
ENDBRANCH   3   6
BRANCH   5  13
HETATM   13  C   UNL     1      -7.847  11.929  68.387  1.00  0.00    -0.141 C  
HETATM   14  C   UNL     1      -6.775  11.187  68.063  1.00  0.00    -0.062 C  
HETATM   15  C   UNL     1      -5.470  11.233  68.792  1.00  0.00    -0.043 C  
ENDBRANCH   5  13
ENDBRANCH   2   3
TORSDOF 3
ENDMDL
MODEL      187
REMARK 921   NORMALIZED FREE ENERGY PREDICTED BY IDOCK:   -2.85 KCAL/MOL
REMARK 922        TOTAL FREE ENERGY PREDICTED BY IDOCK:   -3.90 KCAL/MOL
REMARK 923 INTER-LIGAND FREE ENERGY PREDICTED BY IDOCK:   -3.47 KCAL/MOL
REMARK 924 INTRA-LIGAND FREE ENERGY PREDICTED BY IDOCK:   -0.43 KCAL/MOL
REMARK 927      BINDING AFFINITY PREDICTED BY RF-SCORE:    0.00 PKD
ROOT
HETATM    1  C   UNL     1      -7.299  12.974  68.051  1.00  0.00    -0.123 C  
HETATM    2  C   UNL     1      -7.773  12.017  66.966  1.00  0.00    -0.129 C  
ENDROOT
BRANCH   2   3
HETATM    3  N   UNL     1      -9.193  11.773  66.643  1.00  0.00    -0.193 N  
HETATM    4  O   UNL     1     -10.851  10.177  66.167  1.00  0.00    -0.014 OA 
HETATM    5  C   UNL     1      -9.696  10.599  66.053  1.00  0.00    -0.208 C  
BRANCH   3   6
HETATM    6  C   UNL     1     -10.161  12.761  67.173  1.00  0.00    -0.234 A  
HETATM    7  C   UNL     1     -10.568  12.624  68.520  1.00  0.00    -0.262 A  
HETATM    8  C   UNL     1     -10.454  14.228  65.018  1.00  0.00    -0.458 C  
HETATM    9  C   UNL     1     -10.776  13.814  66.431  1.00  0.00    -0.281 A  
HETATM   10  C   UNL     1     -11.518  13.463  69.121  1.00  0.00    -0.351 A  
HETATM   11  C   UNL     1     -12.115  14.466  68.388  1.00  0.00    -0.278 A  
HETATM   12  C   UNL     1     -11.749  14.637  67.059  1.00  0.00    -0.379 A  
ENDBRANCH   3   6
BRANCH   5  13
HETATM   13  C   UNL     1      -8.790   9.805  65.183  1.00  0.00    -0.213 C  
HETATM   14  C   UNL     1      -8.734  10.046  63.861  1.00  0.00    -0.219 C  
HETATM   15  C   UNL     1      -7.861   9.295  62.907  1.00  0.00    -0.129 C  
ENDBRANCH   5  13
ENDBRANCH   2   3
TORSDOF 3
ENDMDL
MODEL      188
REMARK 921   NORMALIZED FREE ENERGY PREDICTED BY IDOCK:   -2.84 KCAL/MOL
REMARK 922        TOTAL FREE ENERGY PREDICTED BY IDOCK:   -3.89 KCAL/MOL
REMARK 923 INTER-LIGAND FREE ENERGY PREDICTED BY IDOCK:   -3.30 KCAL/MOL
REMARK 924 INTRA-LIGAND FREE ENERGY PREDICTED BY IDOCK:   -0.59 KCAL/MOL
REMARK 927      BINDING AFFINITY PREDICTED BY RF-SCORE:    0.00 PKD
ROOT
HETATM    1  C   UNL     1     -11.317  10.487  69.798  1.00  0.00    -0.367 C  
HETATM    2  C   UNL     1      -9.887  10.254  69.330  1.00  0.00    -0.228 C  
ENDROOT
BRANCH   2   3
HETATM    3  N   UNL     1      -9.368   8.946  68.883  1.00  0.00    -0.140 N  
HETATM    4  O   UNL     1      -7.655   7.795  67.758  1.00  0.00    -0.107 OA 
HETATM    5  C   UNL     1      -8.416   8.762  67.863  1.00  0.00    -0.126 C  
BRANCH   3   6
HETATM    6  C   UNL     1      -9.734   7.779  69.718  1.00  0.00    -0.176 A  
HETATM    7  C   UNL     1      -9.286   7.765  71.059  1.00  0.00    -0.160 A  
HETATM    8  C   UNL     1     -11.112   6.431  67.938  1.00  0.00    -0.370 C  
HETATM    9  C   UNL     1     -10.453   6.626  69.279  1.00  0.00    -0.247 A  
HETATM   10  C   UNL     1      -9.523   6.694  71.932  1.00  0.00    -0.150 A  
HETATM   11  C   UNL     1     -10.205   5.580  71.491  1.00  0.00    -0.270 A  
HETATM   12  C   UNL     1     -10.663   5.547  70.179  1.00  0.00    -0.348 A  
ENDBRANCH   3   6
BRANCH   5  13
HETATM   13  C   UNL     1      -8.331   9.784  66.787  1.00  0.00    -0.124 C  
HETATM   14  C   UNL     1      -9.235   9.802  65.793  1.00  0.00    -0.242 C  
HETATM   15  C   UNL     1      -9.224  10.785  64.666  1.00  0.00    -0.249 C  
ENDBRANCH   5  13
ENDBRANCH   2   3
TORSDOF 3
ENDMDL
MODEL      189
REMARK 921   NORMALIZED FREE ENERGY PREDICTED BY IDOCK:   -2.83 KCAL/MOL
REMARK 922        TOTAL FREE ENERGY PREDICTED BY IDOCK:   -3.88 KCAL/MOL
REMARK 923 INTER-LIGAND FREE ENERGY PREDICTED BY IDOCK:   -3.23 KCAL/MOL
REMARK 924 INTRA-LIGAND FREE ENERGY PREDICTED BY IDOCK:   -0.65 KCAL/MOL
REMARK 927      BINDING AFFINITY PREDICTED BY RF-SCORE:    0.00 PKD
ROOT
HETATM    1  C   UNL     1      -9.880   8.392  68.716  1.00  0.00    -0.180 C  
HETATM    2  C   UNL     1     -10.613   7.152  69.209  1.00  0.00    -0.221 C  
ENDROOT
BRANCH   2   3
HETATM    3  N   UNL     1     -10.409   6.547  70.541  1.00  0.00    -0.197 N  
HETATM    4  O   UNL     1     -11.399   5.470  72.379  1.00  0.00    -0.271 OA 
HETATM    5  C   UNL     1     -11.423   6.327  71.490  1.00  0.00    -0.293 C  
BRANCH   3   6
HETATM    6  C   UNL     1      -9.075   5.953  70.789  1.00  0.00    -0.153 A  
HETATM    7  C   UNL     1      -8.124   6.739  71.479  1.00  0.00    -0.110 A  
HETATM    8  C   UNL     1      -9.467   3.613  69.669  1.00  0.00    -0.245 C  
HETATM    9  C   UNL     1      -8.631   4.672  70.341  1.00  0.00    -0.108 A  
HETATM   10  C   UNL     1      -6.813   6.309  71.728  1.00  0.00    -0.065 A  
HETATM   11  C   UNL     1      -6.393   5.076  71.276  1.00  0.00    -0.026 A  
HETATM   12  C   UNL     1      -7.292   4.269  70.590  1.00  0.00    -0.048 A  
ENDBRANCH   3   6
BRANCH   5  13
HETATM   13  C   UNL     1     -12.614   7.215  71.467  1.00  0.00    -0.427 C  
HETATM   14  C   UNL     1     -12.577   8.419  72.064  1.00  0.00    -0.400 C  
HETATM   15  C   UNL     1     -13.726   9.375  72.099  1.00  0.00    -0.490 C  
ENDBRANCH   5  13
ENDBRANCH   2   3
TORSDOF 3
ENDMDL
MODEL      190
REMARK 921   NORMALIZED FREE ENERGY PREDICTED BY IDOCK:   -2.77 KCAL/MOL
REMARK 922        TOTAL FREE ENERGY PREDICTED BY IDOCK:   -3.81 KCAL/MOL
REMARK 923 INTER-LIGAND FREE ENERGY PREDICTED BY IDOCK:   -3.21 KCAL/MOL
REMARK 924 INTRA-LIGAND FREE ENERGY PREDICTED BY IDOCK:   -0.60 KCAL/MOL
REMARK 927      BINDING AFFINITY PREDICTED BY RF-SCORE:    0.00 PKD
ROOT
HETATM    1  C   UNL     1     -10.456   9.178  66.956  1.00  0.00    -0.311 C  
HETATM    2  C   UNL     1     -10.486   8.761  68.421  1.00  0.00    -0.176 C  
ENDROOT
BRANCH   2   3
HETATM    3  N   UNL     1      -9.555   9.277  69.444  1.00  0.00    -0.163 N  
HETATM    4  O   UNL     1      -8.769   9.096  71.652  1.00  0.00    -0.343 OA 
HETATM    5  C   UNL     1      -9.692   9.082  70.831  1.00  0.00    -0.264 C  
BRANCH   3   6
HETATM    6  C   UNL     1      -8.290   9.859  68.940  1.00  0.00    -0.124 A  
HETATM    7  C   UNL     1      -8.224  11.264  68.797  1.00  0.00    -0.122 A  
HETATM    8  C   UNL     1      -6.917   7.642  68.653  1.00  0.00    -0.075 C  
HETATM    9  C   UNL     1      -7.137   9.127  68.523  1.00  0.00    -0.072 A  
HETATM   10  C   UNL     1      -7.102  11.928  68.281  1.00  0.00    -0.081 A  
HETATM   11  C   UNL     1      -6.002  11.208  67.867  1.00  0.00    -0.046 A  
HETATM   12  C   UNL     1      -6.022   9.823  67.986  1.00  0.00    -0.043 A  
ENDBRANCH   3   6
BRANCH   5  13
HETATM   13  C   UNL     1     -11.057   8.881  71.382  1.00  0.00    -0.376 C  
HETATM   14  C   UNL     1     -11.917   9.911  71.463  1.00  0.00    -0.473 C  
HETATM   15  C   UNL     1     -13.305   9.806  72.009  1.00  0.00    -0.547 C  
ENDBRANCH   5  13
ENDBRANCH   2   3
TORSDOF 3
ENDMDL
MODEL      191
REMARK 921   NORMALIZED FREE ENERGY PREDICTED BY IDOCK:   -2.76 KCAL/MOL
REMARK 922        TOTAL FREE ENERGY PREDICTED BY IDOCK:   -3.80 KCAL/MOL
REMARK 923 INTER-LIGAND FREE ENERGY PREDICTED BY IDOCK:   -3.21 KCAL/MOL
REMARK 924 INTRA-LIGAND FREE ENERGY PREDICTED BY IDOCK:   -0.59 KCAL/MOL
REMARK 927      BINDING AFFINITY PREDICTED BY RF-SCORE:    0.00 PKD
ROOT
HETATM    1  C   UNL     1     -10.155   8.976  71.118  1.00  0.00    -0.365 C  
HETATM    2  C   UNL     1      -9.195   9.489  70.053  1.00  0.00    -0.234 C  
ENDROOT
BRANCH   2   3
HETATM    3  N   UNL     1      -9.597   9.822  68.671  1.00  0.00    -0.148 N  
HETATM    4  O   UNL     1     -10.716   9.114  66.730  1.00  0.00    -0.177 OA 
HETATM    5  C   UNL     1      -9.982   8.883  67.696  1.00  0.00    -0.196 C  
BRANCH   3   6
HETATM    6  C   UNL     1      -9.799  11.259  68.379  1.00  0.00    -0.199 A  
HETATM    7  C   UNL     1      -8.792  11.929  67.648  1.00  0.00    -0.169 A  
HETATM    8  C   UNL     1     -12.135  11.576  69.533  1.00  0.00    -0.351 C  
HETATM    9  C   UNL     1     -10.897  12.059  68.822  1.00  0.00    -0.267 A  
HETATM   10  C   UNL     1      -8.843  13.299  67.355  1.00  0.00    -0.204 A  
HETATM   11  C   UNL     1      -9.901  14.062  67.802  1.00  0.00    -0.232 A  
HETATM   12  C   UNL     1     -10.914  13.448  68.527  1.00  0.00    -0.292 A  
ENDBRANCH   3   6
BRANCH   5  13
HETATM   13  C   UNL     1      -9.440   7.504  67.794  1.00  0.00    -0.157 C  
HETATM   14  C   UNL     1      -8.324   7.163  67.126  1.00  0.00    -0.118 C  
HETATM   15  C   UNL     1      -7.710   5.800  67.157  1.00  0.00    -0.101 C  
ENDBRANCH   5  13
ENDBRANCH   2   3
TORSDOF 3
ENDMDL
MODEL      192
REMARK 921   NORMALIZED FREE ENERGY PREDICTED BY IDOCK:   -2.75 KCAL/MOL
REMARK 922        TOTAL FREE ENERGY PREDICTED BY IDOCK:   -3.78 KCAL/MOL
REMARK 923 INTER-LIGAND FREE ENERGY PREDICTED BY IDOCK:   -3.35 KCAL/MOL
REMARK 924 INTRA-LIGAND FREE ENERGY PREDICTED BY IDOCK:   -0.43 KCAL/MOL
REMARK 927      BINDING AFFINITY PREDICTED BY RF-SCORE:    0.00 PKD
ROOT
HETATM    1  C   UNL     1     -10.891   9.599  69.026  1.00  0.00    -0.206 C  
HETATM    2  C   UNL     1     -10.373   9.616  70.458  1.00  0.00    -0.295 C  
ENDROOT
BRANCH   2   3
HETATM    3  N   UNL     1      -9.371   8.668  70.985  1.00  0.00    -0.183 N  
HETATM    4  O   UNL     1      -7.163   8.358  71.726  1.00  0.00    -0.080 OA 
HETATM    5  C   UNL     1      -7.978   8.864  70.949  1.00  0.00    -0.148 C  
BRANCH   3   6
HETATM    6  C   UNL     1      -9.899   7.538  71.783  1.00  0.00    -0.164 A  
HETATM    7  C   UNL     1      -9.938   7.688  73.188  1.00  0.00    -0.363 A  
HETATM    8  C   UNL     1     -10.462   5.891  69.820  1.00  0.00    -0.340 C  
HETATM    9  C   UNL     1     -10.322   6.274  71.270  1.00  0.00    -0.255 A  
HETATM   10  C   UNL     1     -10.367   6.672  74.054  1.00  0.00    -0.377 A  
HETATM   11  C   UNL     1     -10.757   5.451  73.547  1.00  0.00    -0.331 A  
HETATM   12  C   UNL     1     -10.733   5.255  72.171  1.00  0.00    -0.271 A  
ENDBRANCH   3   6
BRANCH   5  13
HETATM   13  C   UNL     1      -7.415   9.716  69.870  1.00  0.00    -0.127 C  
HETATM   14  C   UNL     1      -6.657  10.785  70.172  1.00  0.00    -0.144 C  
HETATM   15  C   UNL     1      -6.056  11.702  69.156  1.00  0.00    -0.067 C  
ENDBRANCH   5  13
ENDBRANCH   2   3
TORSDOF 3
ENDMDL
MODEL      193
REMARK 921   NORMALIZED FREE ENERGY PREDICTED BY IDOCK:   -2.69 KCAL/MOL
REMARK 922        TOTAL FREE ENERGY PREDICTED BY IDOCK:   -3.71 KCAL/MOL
REMARK 923 INTER-LIGAND FREE ENERGY PREDICTED BY IDOCK:   -3.01 KCAL/MOL
REMARK 924 INTRA-LIGAND FREE ENERGY PREDICTED BY IDOCK:   -0.70 KCAL/MOL
REMARK 927      BINDING AFFINITY PREDICTED BY RF-SCORE:    0.00 PKD
ROOT
HETATM    1  C   UNL     1      -8.316   8.991  67.678  1.00  0.00    -0.117 C  
HETATM    2  C   UNL     1      -8.023   8.792  69.159  1.00  0.00    -0.109 C  
ENDROOT
BRANCH   2   3
HETATM    3  N   UNL     1      -8.411   7.589  69.922  1.00  0.00    -0.131 N  
HETATM    4  O   UNL     1      -7.686   5.785  71.243  1.00  0.00    -0.104 OA 
HETATM    5  C   UNL     1      -7.537   6.546  70.281  1.00  0.00    -0.096 C  
BRANCH   3   6
HETATM    6  C   UNL     1      -9.767   7.602  70.515  1.00  0.00    -0.182 A  
HETATM    7  C   UNL     1      -9.953   8.325  71.715  1.00  0.00    -0.284 A  
HETATM    8  C   UNL     1     -11.000   6.135  68.723  1.00  0.00    -0.421 C  
HETATM    9  C   UNL     1     -10.907   6.898  70.018  1.00  0.00    -0.299 A  
HETATM   10  C   UNL     1     -11.175   8.369  72.400  1.00  0.00    -0.438 A  
HETATM   11  C   UNL     1     -12.263   7.672  71.918  1.00  0.00    -0.336 A  
HETATM   12  C   UNL     1     -12.128   6.945  70.742  1.00  0.00    -0.400 A  
ENDBRANCH   3   6
BRANCH   5  13
HETATM   13  C   UNL     1      -6.352   6.293  69.422  1.00  0.00    -0.035 C  
HETATM   14  C   UNL     1      -6.463   5.541  68.314  1.00  0.00    -0.043 C  
HETATM   15  C   UNL     1      -5.326   5.227  67.394  1.00  0.00    -0.012 C  
ENDBRANCH   5  13
ENDBRANCH   2   3
TORSDOF 3
ENDMDL
MODEL      194
REMARK 921   NORMALIZED FREE ENERGY PREDICTED BY IDOCK:   -2.68 KCAL/MOL
REMARK 922        TOTAL FREE ENERGY PREDICTED BY IDOCK:   -3.71 KCAL/MOL
REMARK 923 INTER-LIGAND FREE ENERGY PREDICTED BY IDOCK:   -3.20 KCAL/MOL
REMARK 924 INTRA-LIGAND FREE ENERGY PREDICTED BY IDOCK:   -0.50 KCAL/MOL
REMARK 927      BINDING AFFINITY PREDICTED BY RF-SCORE:    0.00 PKD
ROOT
HETATM    1  C   UNL     1     -12.044  14.094  68.204  1.00  0.00    -0.297 C  
HETATM    2  C   UNL     1     -10.559  14.110  68.544  1.00  0.00    -0.252 C  
ENDROOT
BRANCH   2   3
HETATM    3  N   UNL     1      -9.484  14.231  67.539  1.00  0.00    -0.204 N  
HETATM    4  O   UNL     1      -7.719  15.537  66.701  1.00  0.00    -0.160 OA 
HETATM    5  C   UNL     1      -8.857  15.436  67.170  1.00  0.00    -0.213 C  
BRANCH   3   6
HETATM    6  C   UNL     1      -8.902  12.960  67.051  1.00  0.00    -0.208 A  
HETATM    7  C   UNL     1      -9.520  12.337  65.943  1.00  0.00    -0.160 A  
HETATM    8  C   UNL     1      -6.920  12.749  68.757  1.00  0.00    -0.096 C  
HETATM    9  C   UNL     1      -7.801  12.263  67.635  1.00  0.00    -0.156 A  
HETATM   10  C   UNL     1      -9.095  11.106  65.423  1.00  0.00    -0.193 A  
HETATM   11  C   UNL     1      -8.041  10.436  66.006  1.00  0.00    -0.143 A  
HETATM   12  C   UNL     1      -7.404  11.009  67.100  1.00  0.00    -0.116 A  
ENDBRANCH   3   6
BRANCH   5  13
HETATM   13  C   UNL     1      -9.626  16.700  67.308  1.00  0.00    -0.243 C  
HETATM   14  C   UNL     1      -9.475  17.689  66.409  1.00  0.00    -0.274 C  
HETATM   15  C   UNL     1     -10.198  18.996  66.470  1.00  0.00    -0.487 C  
ENDBRANCH   5  13
ENDBRANCH   2   3
TORSDOF 3
ENDMDL
MODEL      195
REMARK 921   NORMALIZED FREE ENERGY PREDICTED BY IDOCK:   -2.67 KCAL/MOL
REMARK 922        TOTAL FREE ENERGY PREDICTED BY IDOCK:   -3.69 KCAL/MOL
REMARK 923 INTER-LIGAND FREE ENERGY PREDICTED BY IDOCK:   -3.12 KCAL/MOL
REMARK 924 INTRA-LIGAND FREE ENERGY PREDICTED BY IDOCK:   -0.57 KCAL/MOL
REMARK 927      BINDING AFFINITY PREDICTED BY RF-SCORE:    0.00 PKD
ROOT
HETATM    1  C   UNL     1      -8.160   8.327  70.955  1.00  0.00    -0.118 C  
HETATM    2  C   UNL     1      -8.412   9.312  69.822  1.00  0.00    -0.149 C  
ENDROOT
BRANCH   2   3
HETATM    3  N   UNL     1      -9.527   9.196  68.860  1.00  0.00    -0.150 N  
HETATM    4  O   UNL     1     -11.416  10.224  67.913  1.00  0.00    -0.346 OA 
HETATM    5  C   UNL     1     -10.699   9.974  68.888  1.00  0.00    -0.219 C  
BRANCH   3   6
HETATM    6  C   UNL     1      -9.280   8.341  67.677  1.00  0.00    -0.137 A  
HETATM    7  C   UNL     1      -8.590   8.914  66.585  1.00  0.00    -0.130 A  
HETATM    8  C   UNL     1     -10.402   6.132  68.542  1.00  0.00    -0.248 C  
HETATM    9  C   UNL     1      -9.729   6.996  67.506  1.00  0.00    -0.167 A  
HETATM   10  C   UNL     1      -8.343   8.223  65.389  1.00  0.00    -0.170 A  
HETATM   11  C   UNL     1      -8.796   6.931  65.232  1.00  0.00     0.156 A  
HETATM   12  C   UNL     1      -9.482   6.326  66.278  1.00  0.00    -0.135 A  
ENDBRANCH   3   6
BRANCH   5  13
HETATM   13  C   UNL     1     -11.155  10.515  70.194  1.00  0.00    -0.369 C  
HETATM   14  C   UNL     1     -12.410  10.973  70.340  1.00  0.00    -0.442 C  
HETATM   15  C   UNL     1     -12.954  11.541  71.612  1.00  0.00    -0.499 C  
ENDBRANCH   5  13
ENDBRANCH   2   3
TORSDOF 3
ENDMDL
MODEL      196
REMARK 921   NORMALIZED FREE ENERGY PREDICTED BY IDOCK:   -2.66 KCAL/MOL
REMARK 922        TOTAL FREE ENERGY PREDICTED BY IDOCK:   -3.68 KCAL/MOL
REMARK 923 INTER-LIGAND FREE ENERGY PREDICTED BY IDOCK:   -3.08 KCAL/MOL
REMARK 924 INTRA-LIGAND FREE ENERGY PREDICTED BY IDOCK:   -0.60 KCAL/MOL
REMARK 927      BINDING AFFINITY PREDICTED BY RF-SCORE:    0.00 PKD
ROOT
HETATM    1  C   UNL     1     -10.682   7.797  66.978  1.00  0.00    -0.316 C  
HETATM    2  C   UNL     1     -10.617   7.713  68.498  1.00  0.00    -0.124 C  
ENDROOT
BRANCH   2   3
HETATM    3  N   UNL     1      -9.525   8.288  69.309  1.00  0.00    -0.155 N  
HETATM    4  O   UNL     1      -8.897   9.221  71.372  1.00  0.00    -0.313 OA 
HETATM    5  C   UNL     1      -9.706   9.094  70.448  1.00  0.00    -0.221 C  
BRANCH   3   6
HETATM    6  C   UNL     1      -8.161   7.799  69.007  1.00  0.00    -0.125 A  
HETATM    7  C   UNL     1      -7.328   8.623  68.215  1.00  0.00    -0.087 A  
HETATM    8  C   UNL     1      -8.258   5.518  70.301  1.00  0.00    -0.103 C  
HETATM    9  C   UNL     1      -7.618   6.535  69.390  1.00  0.00    -0.096 A  
HETATM   10  C   UNL     1      -6.037   8.248  67.817  1.00  0.00    -0.048 A  
HETATM   11  C   UNL     1      -5.532   7.018  68.181  1.00  0.00    -0.020 A  
HETATM   12  C   UNL     1      -6.315   6.172  68.957  1.00  0.00    -0.041 A  
ENDBRANCH   3   6
BRANCH   5  13
HETATM   13  C   UNL     1     -10.950   9.901  70.548  1.00  0.00    -0.391 C  
HETATM   14  C   UNL     1     -11.869   9.622  71.489  1.00  0.00    -0.483 C  
HETATM   15  C   UNL     1     -13.150  10.372  71.660  1.00  0.00    -0.553 C  
ENDBRANCH   5  13
ENDBRANCH   2   3
TORSDOF 3
ENDMDL
MODEL      197
REMARK 921   NORMALIZED FREE ENERGY PREDICTED BY IDOCK:   -2.66 KCAL/MOL
REMARK 922        TOTAL FREE ENERGY PREDICTED BY IDOCK:   -3.68 KCAL/MOL
REMARK 923 INTER-LIGAND FREE ENERGY PREDICTED BY IDOCK:   -3.50 KCAL/MOL
REMARK 924 INTRA-LIGAND FREE ENERGY PREDICTED BY IDOCK:   -0.18 KCAL/MOL
REMARK 927      BINDING AFFINITY PREDICTED BY RF-SCORE:    0.00 PKD
ROOT
HETATM    1  C   UNL     1     -11.627  12.921  69.510  1.00  0.00    -0.348 C  
HETATM    2  C   UNL     1     -11.645  11.940  68.345  1.00  0.00    -0.317 C  
ENDROOT
BRANCH   2   3
HETATM    3  N   UNL     1     -10.431  11.435  67.674  1.00  0.00    -0.188 N  
HETATM    4  O   UNL     1      -9.121  11.441  65.723  1.00  0.00    -0.211 OA 
HETATM    5  C   UNL     1     -10.222  11.429  66.282  1.00  0.00    -0.233 C  
BRANCH   3   6
HETATM    6  C   UNL     1      -9.287  11.107  68.555  1.00  0.00    -0.190 A  
HETATM    7  C   UNL     1      -8.148  11.941  68.491  1.00  0.00    -0.130 A  
HETATM    8  C   UNL     1     -10.295   9.000  69.750  1.00  0.00    -0.219 C  
HETATM    9  C   UNL     1      -9.198   9.983  69.432  1.00  0.00    -0.229 A  
HETATM   10  C   UNL     1      -6.983  11.705  69.236  1.00  0.00    -0.083 A  
HETATM   11  C   UNL     1      -6.906  10.607  70.066  1.00  0.00    -0.150 A  
HETATM   12  C   UNL     1      -8.000   9.756  70.160  1.00  0.00    -0.201 A  
ENDBRANCH   3   6
BRANCH   5  13
HETATM   13  C   UNL     1     -11.409  11.363  65.392  1.00  0.00    -0.067 C  
HETATM   14  C   UNL     1     -11.459  12.096  64.267  1.00  0.00    -0.437 C  
HETATM   15  C   UNL     1     -12.613  12.100  63.316  1.00  0.00    -0.492 C  
ENDBRANCH   5  13
ENDBRANCH   2   3
TORSDOF 3
ENDMDL
MODEL      198
REMARK 921   NORMALIZED FREE ENERGY PREDICTED BY IDOCK:   -2.66 KCAL/MOL
REMARK 922        TOTAL FREE ENERGY PREDICTED BY IDOCK:   -3.68 KCAL/MOL
REMARK 923 INTER-LIGAND FREE ENERGY PREDICTED BY IDOCK:   -3.14 KCAL/MOL
REMARK 924 INTRA-LIGAND FREE ENERGY PREDICTED BY IDOCK:   -0.54 KCAL/MOL
REMARK 927      BINDING AFFINITY PREDICTED BY RF-SCORE:    0.00 PKD
ROOT
HETATM    1  C   UNL     1      -6.982   9.281  68.393  1.00  0.00    -0.067 C  
HETATM    2  C   UNL     1      -7.396   8.148  67.465  1.00  0.00    -0.093 C  
ENDROOT
BRANCH   2   3
HETATM    3  N   UNL     1      -8.777   7.938  66.984  1.00  0.00    -0.126 N  
HETATM    4  O   UNL     1     -10.722   6.626  67.114  1.00  0.00    -0.282 OA 
HETATM    5  C   UNL     1      -9.492   6.730  67.086  1.00  0.00    -0.142 C  
BRANCH   3   6
HETATM    6  C   UNL     1      -9.509   9.152  66.555  1.00  0.00    -0.208 A  
HETATM    7  C   UNL     1      -9.342   9.583  65.220  1.00  0.00    -0.317 A  
HETATM    8  C   UNL     1     -10.739   9.691  68.810  1.00  0.00    -0.234 C  
HETATM    9  C   UNL     1     -10.330   9.973  67.387  1.00  0.00    -0.292 A  
HETATM   10  C   UNL     1      -9.939  10.746  64.711  1.00  0.00    -0.382 A  
HETATM   11  C   UNL     1     -10.717  11.537  65.529  1.00  0.00    -0.328 A  
HETATM   12  C   UNL     1     -10.908  11.155  66.851  1.00  0.00    -0.333 A  
ENDBRANCH   3   6
BRANCH   5  13
HETATM   13  C   UNL     1      -8.724   5.459  67.124  1.00  0.00    -0.107 C  
HETATM   14  C   UNL     1      -9.090   4.420  66.353  1.00  0.00    -0.126 C  
HETATM   15  C   UNL     1      -8.384   3.102  66.329  1.00  0.00    -0.101 C  
ENDBRANCH   5  13
ENDBRANCH   2   3
TORSDOF 3
ENDMDL
MODEL      199
REMARK 921   NORMALIZED FREE ENERGY PREDICTED BY IDOCK:   -2.63 KCAL/MOL
REMARK 922        TOTAL FREE ENERGY PREDICTED BY IDOCK:   -3.64 KCAL/MOL
REMARK 923 INTER-LIGAND FREE ENERGY PREDICTED BY IDOCK:   -3.07 KCAL/MOL
REMARK 924 INTRA-LIGAND FREE ENERGY PREDICTED BY IDOCK:   -0.57 KCAL/MOL
REMARK 927      BINDING AFFINITY PREDICTED BY RF-SCORE:    0.00 PKD
ROOT
HETATM    1  C   UNL     1      -7.135   8.822  71.373  1.00  0.00    -0.099 C  
HETATM    2  C   UNL     1      -7.594   8.970  69.929  1.00  0.00    -0.067 C  
ENDROOT
BRANCH   2   3
HETATM    3  N   UNL     1      -8.904   8.507  69.428  1.00  0.00    -0.140 N  
HETATM    4  O   UNL     1     -10.487   6.771  69.390  1.00  0.00    -0.196 OA 
HETATM    5  C   UNL     1      -9.316   7.163  69.373  1.00  0.00    -0.147 C  
BRANCH   3   6
HETATM    6  C   UNL     1      -9.911   9.561  69.166  1.00  0.00    -0.183 A  
HETATM    7  C   UNL     1     -10.614  10.088  70.274  1.00  0.00    -0.354 A  
HETATM    8  C   UNL     1      -9.640   9.732  66.562  1.00  0.00    -0.249 C  
HETATM    9  C   UNL     1     -10.289  10.059  67.882  1.00  0.00    -0.249 A  
HETATM   10  C   UNL     1     -11.627  11.049  70.149  1.00  0.00    -0.421 A  
HETATM   11  C   UNL     1     -11.992  11.510  68.903  1.00  0.00    -0.364 A  
HETATM   12  C   UNL     1     -11.331  11.019  67.784  1.00  0.00    -0.365 A  
ENDBRANCH   3   6
BRANCH   5  13
HETATM   13  C   UNL     1      -8.274   6.112  69.239  1.00  0.00    -0.116 C  
HETATM   14  C   UNL     1      -7.989   5.302  70.273  1.00  0.00    -0.084 C  
HETATM   15  C   UNL     1      -6.954   4.224  70.235  1.00  0.00    -0.038 C  
ENDBRANCH   5  13
ENDBRANCH   2   3
TORSDOF 3
ENDMDL
MODEL      200
REMARK 921   NORMALIZED FREE ENERGY PREDICTED BY IDOCK:   -2.62 KCAL/MOL
REMARK 922        TOTAL FREE ENERGY PREDICTED BY IDOCK:   -3.63 KCAL/MOL
REMARK 923 INTER-LIGAND FREE ENERGY PREDICTED BY IDOCK:   -3.04 KCAL/MOL
REMARK 924 INTRA-LIGAND FREE ENERGY PREDICTED BY IDOCK:   -0.60 KCAL/MOL
REMARK 927      BINDING AFFINITY PREDICTED BY RF-SCORE:    0.00 PKD
ROOT
HETATM    1  C   UNL     1      -7.156  12.274  67.480  1.00  0.00    -0.142 C  
HETATM    2  C   UNL     1      -7.435  10.891  66.909  1.00  0.00    -0.128 C  
ENDROOT
BRANCH   2   3
HETATM    3  N   UNL     1      -8.606  10.069  67.275  1.00  0.00    -0.125 N  
HETATM    4  O   UNL     1     -10.526   8.943  66.519  1.00  0.00    -0.238 OA 
HETATM    5  C   UNL     1      -9.759   9.910  66.483  1.00  0.00    -0.204 C  
BRANCH   3   6
HETATM    6  C   UNL     1      -8.447   9.199  68.463  1.00  0.00    -0.128 A  
HETATM    7  C   UNL     1      -8.939   9.679  69.698  1.00  0.00    -0.215 A  
HETATM    8  C   UNL     1      -7.254   7.166  67.311  1.00  0.00    -0.086 C  
HETATM    9  C   UNL     1      -7.784   7.935  68.494  1.00  0.00    -0.114 A  
HETATM   10  C   UNL     1      -8.801   8.973  70.902  1.00  0.00    -0.294 A  
HETATM   11  C   UNL     1      -8.145   7.760  70.920  1.00  0.00    -0.102 A  
HETATM   12  C   UNL     1      -7.642   7.250  69.730  1.00  0.00    -0.098 A  
ENDBRANCH   3   6
BRANCH   5  13
HETATM   13  C   UNL     1     -10.125  11.004  65.547  1.00  0.00    -0.316 C  
HETATM   14  C   UNL     1     -10.231  10.765  64.228  1.00  0.00    -0.422 C  
HETATM   15  C   UNL     1     -10.587  11.802  63.212  1.00  0.00    -0.427 C  
ENDBRANCH   5  13
ENDBRANCH   2   3
TORSDOF 3
ENDMDL
MODEL      201
REMARK 921   NORMALIZED FREE ENERGY PREDICTED BY IDOCK:   -2.61 KCAL/MOL
REMARK 922        TOTAL FREE ENERGY PREDICTED BY IDOCK:   -3.62 KCAL/MOL
REMARK 923 INTER-LIGAND FREE ENERGY PREDICTED BY IDOCK:   -3.03 KCAL/MOL
REMARK 924 INTRA-LIGAND FREE ENERGY PREDICTED BY IDOCK:   -0.60 KCAL/MOL
REMARK 927      BINDING AFFINITY PREDICTED BY RF-SCORE:    0.00 PKD
ROOT
HETATM    1  C   UNL     1     -11.615   6.573  70.405  1.00  0.00    -0.470 C  
HETATM    2  C   UNL     1     -10.369   6.738  69.544  1.00  0.00    -0.202 C  
ENDROOT
BRANCH   2   3
HETATM    3  N   UNL     1      -9.565   7.975  69.485  1.00  0.00    -0.163 N  
HETATM    4  O   UNL     1      -7.443   8.950  69.743  1.00  0.00    -0.054 OA 
HETATM    5  C   UNL     1      -8.315   8.155  70.106  1.00  0.00    -0.125 C  
BRANCH   3   6
HETATM    6  C   UNL     1     -10.030   9.009  68.532  1.00  0.00    -0.176 A  
HETATM    7  C   UNL     1     -10.791  10.082  69.048  1.00  0.00    -0.253 A  
HETATM    8  C   UNL     1      -8.990   8.022  66.335  1.00  0.00    -0.204 C  
HETATM    9  C   UNL     1      -9.833   8.996  67.118  1.00  0.00    -0.262 A  
HETATM   10  C   UNL     1     -11.332  11.094  68.240  1.00  0.00    -0.365 A  
HETATM   11  C   UNL     1     -11.147  11.060  66.875  1.00  0.00    -0.280 A  
HETATM   12  C   UNL     1     -10.408  10.022  66.322  1.00  0.00    -0.235 A  
ENDBRANCH   3   6
BRANCH   5  13
HETATM   13  C   UNL     1      -8.015   7.363  71.326  1.00  0.00    -0.096 C  
HETATM   14  C   UNL     1      -6.960   6.530  71.355  1.00  0.00    -0.075 C  
HETATM   15  C   UNL     1      -6.585   5.689  72.532  1.00  0.00    -0.066 C  
ENDBRANCH   5  13
ENDBRANCH   2   3
TORSDOF 3
ENDMDL
MODEL      202
REMARK 921   NORMALIZED FREE ENERGY PREDICTED BY IDOCK:   -2.60 KCAL/MOL
REMARK 922        TOTAL FREE ENERGY PREDICTED BY IDOCK:   -3.61 KCAL/MOL
REMARK 923 INTER-LIGAND FREE ENERGY PREDICTED BY IDOCK:   -3.39 KCAL/MOL
REMARK 924 INTRA-LIGAND FREE ENERGY PREDICTED BY IDOCK:   -0.22 KCAL/MOL
REMARK 927      BINDING AFFINITY PREDICTED BY RF-SCORE:    0.00 PKD
ROOT
HETATM    1  C   UNL     1     -10.567  16.589  69.859  1.00  0.00    -0.215 C  
HETATM    2  C   UNL     1     -10.043  15.199  69.523  1.00  0.00    -0.214 C  
ENDROOT
BRANCH   2   3
HETATM    3  N   UNL     1      -9.382  14.852  68.249  1.00  0.00    -0.189 N  
HETATM    4  O   UNL     1      -9.433  13.524  66.311  1.00  0.00    -0.255 OA 
HETATM    5  C   UNL     1      -9.598  13.664  67.527  1.00  0.00    -0.220 C  
BRANCH   3   6
HETATM    6  C   UNL     1      -8.601  15.932  67.605  1.00  0.00    -0.163 A  
HETATM    7  C   UNL     1      -9.317  16.990  67.000  1.00  0.00    -0.249 A  
HETATM    8  C   UNL     1      -6.188  15.033  68.106  1.00  0.00    -0.142 C  
HETATM    9  C   UNL     1      -7.179  15.980  67.480  1.00  0.00    -0.196 A  
HETATM   10  C   UNL     1      -8.694  18.042  66.314  1.00  0.00    -0.194 A  
HETATM   11  C   UNL     1      -7.321  18.067  66.188  1.00  0.00    -0.317 A  
HETATM   12  C   UNL     1      -6.574  17.046  66.763  1.00  0.00    -0.262 A  
ENDBRANCH   3   6
BRANCH   5  13
HETATM   13  C   UNL     1     -10.019  12.451  68.275  1.00  0.00    -0.224 C  
HETATM   14  C   UNL     1     -11.116  11.769  67.903  1.00  0.00    -0.302 C  
HETATM   15  C   UNL     1     -11.621  10.546  68.598  1.00  0.00    -0.241 C  
ENDBRANCH   5  13
ENDBRANCH   2   3
TORSDOF 3
ENDMDL
MODEL      203
REMARK 921   NORMALIZED FREE ENERGY PREDICTED BY IDOCK:   -2.57 KCAL/MOL
REMARK 922        TOTAL FREE ENERGY PREDICTED BY IDOCK:   -3.57 KCAL/MOL
REMARK 923 INTER-LIGAND FREE ENERGY PREDICTED BY IDOCK:   -3.01 KCAL/MOL
REMARK 924 INTRA-LIGAND FREE ENERGY PREDICTED BY IDOCK:   -0.57 KCAL/MOL
REMARK 927      BINDING AFFINITY PREDICTED BY RF-SCORE:    0.00 PKD
ROOT
HETATM    1  C   UNL     1     -11.931  11.395  69.529  1.00  0.00    -0.409 C  
HETATM    2  C   UNL     1     -10.644  10.678  69.914  1.00  0.00    -0.151 C  
ENDROOT
BRANCH   2   3
HETATM    3  N   UNL     1     -10.076   9.542  69.162  1.00  0.00    -0.187 N  
HETATM    4  O   UNL     1     -10.428   7.380  68.310  1.00  0.00    -0.197 OA 
HETATM    5  C   UNL     1     -10.564   8.223  69.203  1.00  0.00    -0.165 C  
BRANCH   3   6
HETATM    6  C   UNL     1      -9.054   9.880  68.145  1.00  0.00    -0.121 A  
HETATM    7  C   UNL     1      -7.698   9.659  68.478  1.00  0.00    -0.081 A  
HETATM    8  C   UNL     1     -10.650  10.724  66.241  1.00  0.00    -0.257 C  
HETATM    9  C   UNL     1      -9.303  10.471  66.869  1.00  0.00    -0.181 A  
HETATM   10  C   UNL     1      -6.637   9.987  67.622  1.00  0.00    -0.067 A  
HETATM   11  C   UNL     1      -6.891  10.572  66.399  1.00  0.00    -0.119 A  
HETATM   12  C   UNL     1      -8.209  10.811  66.029  1.00  0.00    -0.164 A  
ENDBRANCH   3   6
BRANCH   5  13
HETATM   13  C   UNL     1     -11.270   7.771  70.429  1.00  0.00    -0.246 C  
HETATM   14  C   UNL     1     -10.995   6.571  70.969  1.00  0.00    -0.314 C  
HETATM   15  C   UNL     1     -11.659   6.030  72.195  1.00  0.00    -0.348 C  
ENDBRANCH   5  13
ENDBRANCH   2   3
TORSDOF 3
ENDMDL
MODEL      204
REMARK 921   NORMALIZED FREE ENERGY PREDICTED BY IDOCK:   -2.55 KCAL/MOL
REMARK 922        TOTAL FREE ENERGY PREDICTED BY IDOCK:   -3.55 KCAL/MOL
REMARK 923 INTER-LIGAND FREE ENERGY PREDICTED BY IDOCK:   -3.01 KCAL/MOL
REMARK 924 INTRA-LIGAND FREE ENERGY PREDICTED BY IDOCK:   -0.54 KCAL/MOL
REMARK 927      BINDING AFFINITY PREDICTED BY RF-SCORE:    0.00 PKD
ROOT
HETATM    1  C   UNL     1      -7.575  11.082  67.637  1.00  0.00    -0.104 C  
HETATM    2  C   UNL     1      -8.871  10.341  67.341  1.00  0.00    -0.131 C  
ENDROOT
BRANCH   2   3
HETATM    3  N   UNL     1      -8.934   9.013  66.698  1.00  0.00    -0.130 N  
HETATM    4  O   UNL     1      -8.100   7.611  65.007  1.00  0.00    -0.129 OA 
HETATM    5  C   UNL     1      -8.467   8.721  65.403  1.00  0.00    -0.170 C  
BRANCH   3   6
HETATM    6  C   UNL     1      -9.329   7.884  67.571  1.00  0.00    -0.143 A  
HETATM    7  C   UNL     1     -10.627   7.349  67.407  1.00  0.00    -0.371 A  
HETATM    8  C   UNL     1      -7.102   7.639  68.938  1.00  0.00    -0.079 C  
HETATM    9  C   UNL     1      -8.539   7.315  68.617  1.00  0.00    -0.128 A  
HETATM   10  C   UNL     1     -11.136   6.317  68.208  1.00  0.00    -0.364 A  
HETATM   11  C   UNL     1     -10.368   5.788  69.224  1.00  0.00    -0.326 A  
HETATM   12  C   UNL     1      -9.086   6.283  69.425  1.00  0.00    -0.139 A  
ENDBRANCH   3   6
BRANCH   5  13
HETATM   13  C   UNL     1      -8.445   9.817  64.400  1.00  0.00    -0.185 C  
HETATM   14  C   UNL     1      -9.571  10.176  63.760  1.00  0.00    -0.285 C  
HETATM   15  C   UNL     1      -9.644  11.259  62.732  1.00  0.00    -0.327 C  
ENDBRANCH   5  13
ENDBRANCH   2   3
TORSDOF 3
ENDMDL
MODEL      205
REMARK 921   NORMALIZED FREE ENERGY PREDICTED BY IDOCK:   -2.53 KCAL/MOL
REMARK 922        TOTAL FREE ENERGY PREDICTED BY IDOCK:   -3.52 KCAL/MOL
REMARK 923 INTER-LIGAND FREE ENERGY PREDICTED BY IDOCK:   -3.16 KCAL/MOL
REMARK 924 INTRA-LIGAND FREE ENERGY PREDICTED BY IDOCK:   -0.36 KCAL/MOL
REMARK 927      BINDING AFFINITY PREDICTED BY RF-SCORE:    0.00 PKD
ROOT
HETATM    1  C   UNL     1     -11.872   7.631  72.431  1.00  0.00    -0.336 C  
HETATM    2  C   UNL     1     -11.549   6.993  71.087  1.00  0.00    -0.312 C  
ENDROOT
BRANCH   2   3
HETATM    3  N   UNL     1     -10.191   6.926  70.511  1.00  0.00    -0.191 N  
HETATM    4  O   UNL     1      -8.068   7.926  70.370  1.00  0.00    -0.109 OA 
HETATM    5  C   UNL     1      -9.299   8.011  70.420  1.00  0.00    -0.158 C  
BRANCH   3   6
HETATM    6  C   UNL     1      -9.678   5.571  70.205  1.00  0.00    -0.182 A  
HETATM    7  C   UNL     1      -9.491   5.231  68.845  1.00  0.00    -0.173 A  
HETATM    8  C   UNL     1      -9.443   4.670  72.658  1.00  0.00    -0.163 C  
HETATM    9  C   UNL     1      -9.409   4.541  71.157  1.00  0.00    -0.212 A  
HETATM   10  C   UNL     1      -9.062   3.963  68.426  1.00  0.00    -0.189 A  
HETATM   11  C   UNL     1      -8.821   2.974  69.355  1.00  0.00    -0.151 A  
HETATM   12  C   UNL     1      -8.995   3.260  70.703  1.00  0.00    -0.163 A  
ENDBRANCH   3   6
BRANCH   5  13
HETATM   13  C   UNL     1      -9.866   9.382  70.334  1.00  0.00    -0.313 C  
HETATM   14  C   UNL     1     -10.383   9.833  69.178  1.00  0.00    -0.225 C  
HETATM   15  C   UNL     1     -10.967  11.197  68.994  1.00  0.00    -0.286 C  
ENDBRANCH   5  13
ENDBRANCH   2   3
TORSDOF 3
ENDMDL
MODEL      206
REMARK 921   NORMALIZED FREE ENERGY PREDICTED BY IDOCK:   -2.45 KCAL/MOL
REMARK 922        TOTAL FREE ENERGY PREDICTED BY IDOCK:   -3.43 KCAL/MOL
REMARK 923 INTER-LIGAND FREE ENERGY PREDICTED BY IDOCK:   -2.96 KCAL/MOL
REMARK 924 INTRA-LIGAND FREE ENERGY PREDICTED BY IDOCK:   -0.47 KCAL/MOL
REMARK 927      BINDING AFFINITY PREDICTED BY RF-SCORE:    0.00 PKD
ROOT
HETATM    1  C   UNL     1     -10.736  10.647  67.614  1.00  0.00    -0.315 C  
HETATM    2  C   UNL     1      -9.492   9.807  67.361  1.00  0.00    -0.152 C  
ENDROOT
BRANCH   2   3
HETATM    3  N   UNL     1      -9.243   8.492  67.985  1.00  0.00    -0.137 N  
HETATM    4  O   UNL     1      -7.949   6.531  67.978  1.00  0.00    -0.107 OA 
HETATM    5  C   UNL     1      -8.544   7.432  67.379  1.00  0.00    -0.118 C  
BRANCH   3   6
HETATM    6  C   UNL     1      -9.582   8.377  69.421  1.00  0.00    -0.170 A  
HETATM    7  C   UNL     1     -10.793   7.732  69.761  1.00  0.00    -0.211 A  
HETATM    8  C   UNL     1      -7.468   9.563  70.426  1.00  0.00    -0.158 C  
HETATM    9  C   UNL     1      -8.826   8.915  70.507  1.00  0.00    -0.221 A  
HETATM   10  C   UNL     1     -11.250   7.608  71.081  1.00  0.00    -0.280 A  
HETATM   11  C   UNL     1     -10.517   8.145  72.118  1.00  0.00    -0.352 A  
HETATM   12  C   UNL     1      -9.321   8.792  71.833  1.00  0.00    -0.343 A  
ENDBRANCH   3   6
BRANCH   5  13
HETATM   13  C   UNL     1      -8.543   7.346  65.895  1.00  0.00    -0.165 C  
HETATM   14  C   UNL     1      -7.618   8.004  65.176  1.00  0.00    -0.098 C  
HETATM   15  C   UNL     1      -7.544   7.983  63.683  1.00  0.00    -0.129 C  
ENDBRANCH   5  13
ENDBRANCH   2   3
TORSDOF 3
ENDMDL
MODEL      207
REMARK 921   NORMALIZED FREE ENERGY PREDICTED BY IDOCK:   -2.44 KCAL/MOL
REMARK 922        TOTAL FREE ENERGY PREDICTED BY IDOCK:   -3.43 KCAL/MOL
REMARK 923 INTER-LIGAND FREE ENERGY PREDICTED BY IDOCK:   -3.06 KCAL/MOL
REMARK 924 INTRA-LIGAND FREE ENERGY PREDICTED BY IDOCK:   -0.37 KCAL/MOL
REMARK 927      BINDING AFFINITY PREDICTED BY RF-SCORE:    0.00 PKD
ROOT
HETATM    1  C   UNL     1      -5.568  16.222  69.380  1.00  0.00    -0.132 C  
HETATM    2  C   UNL     1      -6.546  17.373  69.183  1.00  0.00    -0.246 C  
ENDROOT
BRANCH   2   3
HETATM    3  N   UNL     1      -7.330  17.586  67.951  1.00  0.00    -0.198 N  
HETATM    4  O   UNL     1      -9.447  17.505  66.934  1.00  0.00    -0.258 OA 
HETATM    5  C   UNL     1      -8.598  17.032  67.696  1.00  0.00    -0.210 C  
BRANCH   3   6
HETATM    6  C   UNL     1      -6.819  18.622  67.024  1.00  0.00    -0.195 A  
HETATM    7  C   UNL     1      -5.742  18.274  66.179  1.00  0.00    -0.213 A  
HETATM    8  C   UNL     1      -8.456  20.571  67.663  1.00  0.00    -0.249 C  
HETATM    9  C   UNL     1      -7.275  19.973  66.943  1.00  0.00    -0.270 A  
HETATM   10  C   UNL     1      -5.137  19.181  65.297  1.00  0.00    -0.186 A  
HETATM   11  C   UNL     1      -5.576  20.486  65.240  1.00  0.00    -0.226 A  
HETATM   12  C   UNL     1      -6.632  20.876  66.055  1.00  0.00    -0.205 A  
ENDBRANCH   3   6
BRANCH   5  13
HETATM   13  C   UNL     1      -8.951  15.749  68.356  1.00  0.00    -0.187 C  
HETATM   14  C   UNL     1      -8.529  14.581  67.842  1.00  0.00    -0.161 C  
HETATM   15  C   UNL     1      -8.840  13.242  68.432  1.00  0.00    -0.124 C  
ENDBRANCH   5  13
ENDBRANCH   2   3
TORSDOF 3
ENDMDL
MODEL      208
REMARK 921   NORMALIZED FREE ENERGY PREDICTED BY IDOCK:   -2.44 KCAL/MOL
REMARK 922        TOTAL FREE ENERGY PREDICTED BY IDOCK:   -3.42 KCAL/MOL
REMARK 923 INTER-LIGAND FREE ENERGY PREDICTED BY IDOCK:   -2.86 KCAL/MOL
REMARK 924 INTRA-LIGAND FREE ENERGY PREDICTED BY IDOCK:   -0.56 KCAL/MOL
REMARK 927      BINDING AFFINITY PREDICTED BY RF-SCORE:    0.00 PKD
ROOT
HETATM    1  C   UNL     1     -10.759   4.615  65.753  1.00  0.00    -0.195 C  
HETATM    2  C   UNL     1      -9.783   4.130  66.816  1.00  0.00    -0.210 C  
ENDROOT
BRANCH   2   3
HETATM    3  N   UNL     1      -9.106   5.019  67.782  1.00  0.00    -0.111 N  
HETATM    4  O   UNL     1      -7.592   6.789  68.091  1.00  0.00    -0.102 OA 
HETATM    5  C   UNL     1      -7.931   5.748  67.520  1.00  0.00    -0.102 C  
BRANCH   3   6
HETATM    6  C   UNL     1      -9.846   5.307  69.032  1.00  0.00    -0.167 A  
HETATM    7  C   UNL     1     -10.863   6.287  68.983  1.00  0.00    -0.400 A  
HETATM    8  C   UNL     1      -8.629   3.605  70.616  1.00  0.00    -0.112 C  
HETATM    9  C   UNL     1      -9.588   4.726  70.311  1.00  0.00    -0.269 A  
HETATM   10  C   UNL     1     -11.597   6.685  70.110  1.00  0.00    -0.446 A  
HETATM   11  C   UNL     1     -11.327   6.128  71.341  1.00  0.00    -0.336 A  
HETATM   12  C   UNL     1     -10.333   5.162  71.440  1.00  0.00    -0.273 A  
ENDBRANCH   3   6
BRANCH   5  13
HETATM   13  C   UNL     1      -6.985   5.217  66.506  1.00  0.00    -0.067 C  
HETATM   14  C   UNL     1      -6.717   5.919  65.392  1.00  0.00    -0.047 C  
HETATM   15  C   UNL     1      -5.786   5.463  64.314  1.00  0.00    -0.021 C  
ENDBRANCH   5  13
ENDBRANCH   2   3
TORSDOF 3
ENDMDL
MODEL      209
REMARK 921   NORMALIZED FREE ENERGY PREDICTED BY IDOCK:   -2.41 KCAL/MOL
REMARK 922        TOTAL FREE ENERGY PREDICTED BY IDOCK:   -3.38 KCAL/MOL
REMARK 923 INTER-LIGAND FREE ENERGY PREDICTED BY IDOCK:   -2.80 KCAL/MOL
REMARK 924 INTRA-LIGAND FREE ENERGY PREDICTED BY IDOCK:   -0.58 KCAL/MOL
REMARK 927      BINDING AFFINITY PREDICTED BY RF-SCORE:    0.00 PKD
ROOT
HETATM    1  C   UNL     1     -10.446   8.666  68.335  1.00  0.00    -0.220 C  
HETATM    2  C   UNL     1     -10.428   8.415  66.833  1.00  0.00    -0.289 C  
ENDROOT
BRANCH   2   3
HETATM    3  N   UNL     1      -9.304   8.781  65.948  1.00  0.00    -0.228 N  
HETATM    4  O   UNL     1      -8.084  10.520  64.944  1.00  0.00    -0.153 OA 
HETATM    5  C   UNL     1      -9.155  10.024  65.306  1.00  0.00    -0.200 C  
BRANCH   3   6
HETATM    6  C   UNL     1      -8.166   7.835  65.916  1.00  0.00    -0.128 A  
HETATM    7  C   UNL     1      -8.100   6.922  64.838  1.00  0.00    -0.109 A  
HETATM    8  C   UNL     1      -6.940   8.611  68.102  1.00  0.00    -0.074 C  
HETATM    9  C   UNL     1      -7.148   7.712  66.911  1.00  0.00    -0.084 A  
HETATM   10  C   UNL     1      -7.102   5.944  64.724  1.00  0.00    -0.060 A  
HETATM   11  C   UNL     1      -6.135   5.827  65.700  1.00  0.00    -0.032 A  
HETATM   12  C   UNL     1      -6.160   6.700  66.780  1.00  0.00    -0.033 A  
ENDBRANCH   3   6
BRANCH   5  13
HETATM   13  C   UNL     1     -10.380  10.803  64.989  1.00  0.00    -0.357 C  
HETATM   14  C   UNL     1     -10.714  11.876  65.727  1.00  0.00    -0.327 C  
HETATM   15  C   UNL     1     -11.928  12.715  65.489  1.00  0.00    -0.509 C  
ENDBRANCH   5  13
ENDBRANCH   2   3
TORSDOF 3
ENDMDL
MODEL      210
REMARK 921   NORMALIZED FREE ENERGY PREDICTED BY IDOCK:   -2.38 KCAL/MOL
REMARK 922        TOTAL FREE ENERGY PREDICTED BY IDOCK:   -3.35 KCAL/MOL
REMARK 923 INTER-LIGAND FREE ENERGY PREDICTED BY IDOCK:   -2.72 KCAL/MOL
REMARK 924 INTRA-LIGAND FREE ENERGY PREDICTED BY IDOCK:   -0.62 KCAL/MOL
REMARK 927      BINDING AFFINITY PREDICTED BY RF-SCORE:    0.00 PKD
ROOT
HETATM    1  C   UNL     1     -10.828   5.685  66.862  1.00  0.00    -0.287 C  
HETATM    2  C   UNL     1     -10.847   7.122  67.367  1.00  0.00    -0.276 C  
ENDROOT
BRANCH   2   3
HETATM    3  N   UNL     1      -9.700   7.782  68.021  1.00  0.00    -0.150 N  
HETATM    4  O   UNL     1      -8.750   9.809  68.737  1.00  0.00    -0.121 OA 
HETATM    5  C   UNL     1      -9.385   9.149  67.909  1.00  0.00    -0.137 C  
BRANCH   3   6
HETATM    6  C   UNL     1      -8.966   6.974  69.021  1.00  0.00    -0.133 A  
HETATM    7  C   UNL     1      -7.681   6.501  68.670  1.00  0.00    -0.102 A  
HETATM    8  C   UNL     1     -10.750   7.007  70.946  1.00  0.00    -0.259 C  
HETATM    9  C   UNL     1      -9.461   6.570  70.299  1.00  0.00    -0.169 A  
HETATM   10  C   UNL     1      -6.911   5.683  69.509  1.00  0.00    -0.063 A  
HETATM   11  C   UNL     1      -7.407   5.288  70.733  1.00  0.00    -0.073 A  
HETATM   12  C   UNL     1      -8.668   5.726  71.121  1.00  0.00    -0.135 A  
ENDBRANCH   3   6
BRANCH   5  13
HETATM   13  C   UNL     1      -9.806   9.870  66.680  1.00  0.00    -0.265 C  
HETATM   14  C   UNL     1      -9.044   9.832  65.574  1.00  0.00    -0.242 C  
HETATM   15  C   UNL     1      -9.382  10.531  64.296  1.00  0.00    -0.310 C  
ENDBRANCH   5  13
ENDBRANCH   2   3
TORSDOF 3
ENDMDL
MODEL      211
REMARK 921   NORMALIZED FREE ENERGY PREDICTED BY IDOCK:   -2.32 KCAL/MOL
REMARK 922        TOTAL FREE ENERGY PREDICTED BY IDOCK:   -3.28 KCAL/MOL
REMARK 923 INTER-LIGAND FREE ENERGY PREDICTED BY IDOCK:   -2.90 KCAL/MOL
REMARK 924 INTRA-LIGAND FREE ENERGY PREDICTED BY IDOCK:   -0.38 KCAL/MOL
REMARK 927      BINDING AFFINITY PREDICTED BY RF-SCORE:    0.00 PKD
ROOT
HETATM    1  C   UNL     1     -10.930   6.298  67.049  1.00  0.00    -0.442 C  
HETATM    2  C   UNL     1     -10.905   7.799  67.307  1.00  0.00    -0.155 C  
ENDROOT
BRANCH   2   3
HETATM    3  N   UNL     1      -9.719   8.533  67.790  1.00  0.00    -0.156 N  
HETATM    4  O   UNL     1      -8.697   9.639  69.595  1.00  0.00    -0.163 OA 
HETATM    5  C   UNL     1      -9.696   9.374  68.919  1.00  0.00    -0.164 C  
BRANCH   3   6
HETATM    6  C   UNL     1      -8.430   8.184  67.150  1.00  0.00    -0.124 A  
HETATM    7  C   UNL     1      -7.624   7.211  67.785  1.00  0.00    -0.111 A  
HETATM    8  C   UNL     1      -8.576   9.772  65.067  1.00  0.00    -0.178 C  
HETATM    9  C   UNL     1      -7.888   8.784  65.973  1.00  0.00    -0.105 A  
HETATM   10  C   UNL     1      -6.361   6.834  67.306  1.00  0.00    -0.047 A  
HETATM   11  C   UNL     1      -5.843   7.433  66.177  1.00  0.00    -0.036 A  
HETATM   12  C   UNL     1      -6.598   8.397  65.521  1.00  0.00    -0.055 A  
ENDBRANCH   3   6
BRANCH   5  13
HETATM   13  C   UNL     1     -10.959  10.042  69.324  1.00  0.00    -0.264 C  
HETATM   14  C   UNL     1     -11.459   9.862  70.559  1.00  0.00    -0.391 C  
HETATM   15  C   UNL     1     -12.725  10.485  71.053  1.00  0.00    -0.504 C  
ENDBRANCH   5  13
ENDBRANCH   2   3
TORSDOF 3
ENDMDL
MODEL      212
REMARK 921   NORMALIZED FREE ENERGY PREDICTED BY IDOCK:   -2.28 KCAL/MOL
REMARK 922        TOTAL FREE ENERGY PREDICTED BY IDOCK:   -3.24 KCAL/MOL
REMARK 923 INTER-LIGAND FREE ENERGY PREDICTED BY IDOCK:   -2.67 KCAL/MOL
REMARK 924 INTRA-LIGAND FREE ENERGY PREDICTED BY IDOCK:   -0.56 KCAL/MOL
REMARK 927      BINDING AFFINITY PREDICTED BY RF-SCORE:    0.00 PKD
ROOT
HETATM    1  C   UNL     1      -9.810   9.447  70.527  1.00  0.00    -0.331 C  
HETATM    2  C   UNL     1     -10.339   9.800  69.144  1.00  0.00    -0.211 C  
ENDROOT
BRANCH   2   3
HETATM    3  N   UNL     1      -9.478  10.155  67.998  1.00  0.00    -0.144 N  
HETATM    4  O   UNL     1      -8.506  11.882  66.735  1.00  0.00    -0.179 OA 
HETATM    5  C   UNL     1      -9.460  11.410  67.362  1.00  0.00    -0.167 C  
BRANCH   3   6
HETATM    6  C   UNL     1      -8.427   9.175  67.644  1.00  0.00    -0.116 A  
HETATM    7  C   UNL     1      -8.766   8.147  66.735  1.00  0.00    -0.145 A  
HETATM    8  C   UNL     1      -6.469  10.149  69.095  1.00  0.00    -0.049 C  
HETATM    9  C   UNL     1      -7.105   9.130  68.184  1.00  0.00    -0.078 A  
HETATM   10  C   UNL     1      -7.874   7.130  66.363  1.00  0.00    -0.109 A  
HETATM   11  C   UNL     1      -6.607   7.090  66.905  1.00  0.00    -0.055 A  
HETATM   12  C   UNL     1      -6.229   8.078  67.805  1.00  0.00    -0.051 A  
ENDBRANCH   3   6
BRANCH   5  13
HETATM   13  C   UNL     1     -10.694  12.237  67.399  1.00  0.00    -0.261 C  
HETATM   14  C   UNL     1     -11.239  12.696  66.260  1.00  0.00    -0.354 C  
HETATM   15  C   UNL     1     -12.473  13.539  66.199  1.00  0.00    -0.424 C  
ENDBRANCH   5  13
ENDBRANCH   2   3
TORSDOF 3
ENDMDL
MODEL      213
REMARK 921   NORMALIZED FREE ENERGY PREDICTED BY IDOCK:   -2.27 KCAL/MOL
REMARK 922        TOTAL FREE ENERGY PREDICTED BY IDOCK:   -3.23 KCAL/MOL
REMARK 923 INTER-LIGAND FREE ENERGY PREDICTED BY IDOCK:   -2.64 KCAL/MOL
REMARK 924 INTRA-LIGAND FREE ENERGY PREDICTED BY IDOCK:   -0.59 KCAL/MOL
REMARK 927      BINDING AFFINITY PREDICTED BY RF-SCORE:    0.00 PKD
ROOT
HETATM    1  C   UNL     1     -10.606   4.642  65.721  1.00  0.00    -0.264 C  
HETATM    2  C   UNL     1      -9.483   4.212  66.655  1.00  0.00    -0.191 C  
ENDROOT
BRANCH   2   3
HETATM    3  N   UNL     1      -8.810   5.118  67.607  1.00  0.00    -0.106 N  
HETATM    4  O   UNL     1      -7.973   7.278  68.002  1.00  0.00    -0.116 OA 
HETATM    5  C   UNL     1      -8.149   6.310  67.256  1.00  0.00    -0.109 C  
BRANCH   3   6
HETATM    6  C   UNL     1      -9.036   4.839  69.044  1.00  0.00    -0.114 A  
HETATM    7  C   UNL     1      -8.132   3.969  69.695  1.00  0.00    -0.061 A  
HETATM    8  C   UNL     1     -11.169   6.325  69.407  1.00  0.00    -0.489 C  
HETATM    9  C   UNL     1     -10.126   5.322  69.830  1.00  0.00    -0.333 A  
HETATM   10  C   UNL     1      -8.271   3.587  71.037  1.00  0.00    -0.079 A  
HETATM   11  C   UNL     1      -9.337   4.048  71.780  1.00  0.00    -0.194 A  
HETATM   12  C   UNL     1     -10.253   4.904  71.182  1.00  0.00    -0.261 A  
ENDBRANCH   3   6
BRANCH   5  13
HETATM   13  C   UNL     1      -7.572   6.419  65.892  1.00  0.00    -0.084 C  
HETATM   14  C   UNL     1      -8.055   7.319  65.018  1.00  0.00    -0.120 C  
HETATM   15  C   UNL     1      -7.544   7.496  63.624  1.00  0.00    -0.118 C  
ENDBRANCH   5  13
ENDBRANCH   2   3
TORSDOF 3
ENDMDL
MODEL      214
REMARK 921   NORMALIZED FREE ENERGY PREDICTED BY IDOCK:   -2.27 KCAL/MOL
REMARK 922        TOTAL FREE ENERGY PREDICTED BY IDOCK:   -3.23 KCAL/MOL
REMARK 923 INTER-LIGAND FREE ENERGY PREDICTED BY IDOCK:   -2.59 KCAL/MOL
REMARK 924 INTRA-LIGAND FREE ENERGY PREDICTED BY IDOCK:   -0.64 KCAL/MOL
REMARK 927      BINDING AFFINITY PREDICTED BY RF-SCORE:    0.00 PKD
ROOT
HETATM    1  C   UNL     1     -10.889   5.737  67.476  1.00  0.00    -0.268 C  
HETATM    2  C   UNL     1     -10.660   6.966  68.345  1.00  0.00    -0.210 C  
ENDROOT
BRANCH   2   3
HETATM    3  N   UNL     1      -9.624   7.054  69.393  1.00  0.00    -0.155 N  
HETATM    4  O   UNL     1      -8.387   8.456  70.818  1.00  0.00    -0.113 OA 
HETATM    5  C   UNL     1      -8.906   8.219  69.722  1.00  0.00    -0.142 C  
BRANCH   3   6
HETATM    6  C   UNL     1      -9.495   5.877  70.283  1.00  0.00    -0.162 A  
HETATM    7  C   UNL     1      -8.379   5.030  70.096  1.00  0.00    -0.085 A  
HETATM    8  C   UNL     1     -11.647   6.242  71.739  1.00  0.00    -0.358 C  
HETATM    9  C   UNL     1     -10.432   5.476  71.284  1.00  0.00    -0.306 A  
HETATM   10  C   UNL     1      -8.175   3.858  70.839  1.00  0.00    -0.077 A  
HETATM   11  C   UNL     1      -9.096   3.475  71.790  1.00  0.00    -0.168 A  
HETATM   12  C   UNL     1     -10.211   4.274  72.008  1.00  0.00    -0.220 A  
ENDBRANCH   3   6
BRANCH   5  13
HETATM   13  C   UNL     1      -8.707   9.244  68.666  1.00  0.00    -0.132 C  
HETATM   14  C   UNL     1      -7.662   9.161  67.825  1.00  0.00    -0.093 C  
HETATM   15  C   UNL     1      -7.377  10.149  66.739  1.00  0.00    -0.104 C  
ENDBRANCH   5  13
ENDBRANCH   2   3
TORSDOF 3
ENDMDL
MODEL      215
REMARK 921   NORMALIZED FREE ENERGY PREDICTED BY IDOCK:   -2.25 KCAL/MOL
REMARK 922        TOTAL FREE ENERGY PREDICTED BY IDOCK:   -3.20 KCAL/MOL
REMARK 923 INTER-LIGAND FREE ENERGY PREDICTED BY IDOCK:   -3.26 KCAL/MOL
REMARK 924 INTRA-LIGAND FREE ENERGY PREDICTED BY IDOCK:    0.06 KCAL/MOL
REMARK 927      BINDING AFFINITY PREDICTED BY RF-SCORE:    0.00 PKD
ROOT
HETATM    1  C   UNL     1     -12.242  13.530  67.903  1.00  0.00    -0.168 C  
HETATM    2  C   UNL     1     -10.795  13.809  68.289  1.00  0.00    -0.250 C  
ENDROOT
BRANCH   2   3
HETATM    3  N   UNL     1      -9.819  14.476  67.404  1.00  0.00    -0.225 N  
HETATM    4  O   UNL     1      -9.427  15.463  65.308  1.00  0.00    -0.147 OA 
HETATM    5  C   UNL     1      -9.942  14.584  66.006  1.00  0.00    -0.322 C  
BRANCH   3   6
HETATM    6  C   UNL     1      -8.753  15.252  68.077  1.00  0.00    -0.160 A  
HETATM    7  C   UNL     1      -7.601  14.554  68.505  1.00  0.00    -0.123 A  
HETATM    8  C   UNL     1      -9.866  17.627  67.974  1.00  0.00    -0.310 C  
HETATM    9  C   UNL     1      -8.802  16.644  68.393  1.00  0.00    -0.226 A  
HETATM   10  C   UNL     1      -6.549  15.167  69.199  1.00  0.00    -0.128 A  
HETATM   11  C   UNL     1      -6.616  16.508  69.511  1.00  0.00    -0.217 A  
HETATM   12  C   UNL     1      -7.730  17.236  69.114  1.00  0.00    -0.079 A  
ENDBRANCH   3   6
BRANCH   5  13
HETATM   13  C   UNL     1     -10.717  13.542  65.285  1.00  0.00    -0.328 C  
HETATM   14  C   UNL     1     -10.323  13.120  64.071  1.00  0.00    -0.173 C  
HETATM   15  C   UNL     1     -11.042  12.084  63.267  1.00  0.00    -0.400 C  
ENDBRANCH   5  13
ENDBRANCH   2   3
TORSDOF 3
ENDMDL
MODEL      216
REMARK 921   NORMALIZED FREE ENERGY PREDICTED BY IDOCK:   -2.24 KCAL/MOL
REMARK 922        TOTAL FREE ENERGY PREDICTED BY IDOCK:   -3.19 KCAL/MOL
REMARK 923 INTER-LIGAND FREE ENERGY PREDICTED BY IDOCK:   -2.64 KCAL/MOL
REMARK 924 INTRA-LIGAND FREE ENERGY PREDICTED BY IDOCK:   -0.55 KCAL/MOL
REMARK 927      BINDING AFFINITY PREDICTED BY RF-SCORE:    0.00 PKD
ROOT
HETATM    1  C   UNL     1      -9.764   9.432  70.547  1.00  0.00    -0.331 C  
HETATM    2  C   UNL     1     -10.213   9.878  69.162  1.00  0.00    -0.205 C  
ENDROOT
BRANCH   2   3
HETATM    3  N   UNL     1      -9.286  10.277  68.083  1.00  0.00    -0.135 N  
HETATM    4  O   UNL     1      -8.830  10.249  65.778  1.00  0.00    -0.151 OA 
HETATM    5  C   UNL     1      -9.241   9.695  66.803  1.00  0.00    -0.149 C  
BRANCH   3   6
HETATM    6  C   UNL     1      -8.503  11.511  68.321  1.00  0.00    -0.159 A  
HETATM    7  C   UNL     1      -7.224  11.375  68.908  1.00  0.00    -0.113 A  
HETATM    8  C   UNL     1     -10.213  13.258  67.369  1.00  0.00    -0.229 C  
HETATM    9  C   UNL     1      -8.942  12.846  68.066  1.00  0.00    -0.196 A  
HETATM   10  C   UNL     1      -6.410  12.470  69.231  1.00  0.00    -0.110 A  
HETATM   11  C   UNL     1      -6.854  13.754  68.994  1.00  0.00    -0.111 A  
HETATM   12  C   UNL     1      -8.105  13.937  68.420  1.00  0.00    -0.145 A  
ENDBRANCH   3   6
BRANCH   5  13
HETATM   13  C   UNL     1      -9.681   8.284  66.655  1.00  0.00    -0.321 C  
HETATM   14  C   UNL     1      -8.875   7.377  66.076  1.00  0.00    -0.173 C  
HETATM   15  C   UNL     1      -9.235   5.940  65.877  1.00  0.00    -0.108 C  
ENDBRANCH   5  13
ENDBRANCH   2   3
TORSDOF 3
ENDMDL
MODEL      217
REMARK 921   NORMALIZED FREE ENERGY PREDICTED BY IDOCK:   -2.18 KCAL/MOL
REMARK 922        TOTAL FREE ENERGY PREDICTED BY IDOCK:   -3.12 KCAL/MOL
REMARK 923 INTER-LIGAND FREE ENERGY PREDICTED BY IDOCK:   -2.56 KCAL/MOL
REMARK 924 INTRA-LIGAND FREE ENERGY PREDICTED BY IDOCK:   -0.56 KCAL/MOL
REMARK 927      BINDING AFFINITY PREDICTED BY RF-SCORE:    0.00 PKD
ROOT
HETATM    1  C   UNL     1      -6.823   6.168  67.709  1.00  0.00    -0.063 C  
HETATM    2  C   UNL     1      -7.747   5.257  66.910  1.00  0.00    -0.096 C  
ENDROOT
BRANCH   2   3
HETATM    3  N   UNL     1      -9.114   5.629  66.494  1.00  0.00    -0.133 N  
HETATM    4  O   UNL     1     -11.157   4.898  65.592  1.00  0.00    -0.156 OA 
HETATM    5  C   UNL     1      -9.922   4.879  65.620  1.00  0.00    -0.127 C  
BRANCH   3   6
HETATM    6  C   UNL     1      -9.730   6.764  67.219  1.00  0.00    -0.140 A  
HETATM    7  C   UNL     1      -9.732   8.026  66.583  1.00  0.00    -0.313 A  
HETATM    8  C   UNL     1     -10.473   5.492  69.391  1.00  0.00    -0.360 C  
HETATM    9  C   UNL     1     -10.275   6.719  68.538  1.00  0.00    -0.186 A  
HETATM   10  C   UNL     1     -10.237   9.186  67.188  1.00  0.00    -0.329 A  
HETATM   11  C   UNL     1     -10.746   9.132  68.468  1.00  0.00    -0.160 A  
HETATM   12  C   UNL     1     -10.763   7.913  69.134  1.00  0.00    -0.130 A  
ENDBRANCH   3   6
BRANCH   5  13
HETATM   13  C   UNL     1      -9.256   4.016  64.611  1.00  0.00    -0.151 C  
HETATM   14  C   UNL     1      -9.102   2.700  64.836  1.00  0.00    -0.136 C  
HETATM   15  C   UNL     1      -8.438   1.757  63.885  1.00  0.00    -0.077 C  
ENDBRANCH   5  13
ENDBRANCH   2   3
TORSDOF 3
ENDMDL
MODEL      218
REMARK 921   NORMALIZED FREE ENERGY PREDICTED BY IDOCK:   -2.18 KCAL/MOL
REMARK 922        TOTAL FREE ENERGY PREDICTED BY IDOCK:   -3.11 KCAL/MOL
REMARK 923 INTER-LIGAND FREE ENERGY PREDICTED BY IDOCK:   -2.56 KCAL/MOL
REMARK 924 INTRA-LIGAND FREE ENERGY PREDICTED BY IDOCK:   -0.56 KCAL/MOL
REMARK 927      BINDING AFFINITY PREDICTED BY RF-SCORE:    0.00 PKD
ROOT
HETATM    1  C   UNL     1      -6.937   3.473  67.379  1.00  0.00    -0.054 C  
HETATM    2  C   UNL     1      -8.451   3.378  67.513  1.00  0.00    -0.097 C  
ENDROOT
BRANCH   2   3
HETATM    3  N   UNL     1      -9.394   4.336  66.903  1.00  0.00    -0.152 N  
HETATM    4  O   UNL     1     -11.144   4.659  65.368  1.00  0.00    -0.205 OA 
HETATM    5  C   UNL     1     -10.071   4.136  65.686  1.00  0.00    -0.176 C  
BRANCH   3   6
HETATM    6  C   UNL     1      -9.795   5.484  67.748  1.00  0.00    -0.138 A  
HETATM    7  C   UNL     1     -10.441   5.204  68.974  1.00  0.00    -0.149 A  
HETATM    8  C   UNL     1      -8.919   7.429  66.220  1.00  0.00    -0.192 C  
HETATM    9  C   UNL     1      -9.646   6.865  67.414  1.00  0.00    -0.163 A  
HETATM   10  C   UNL     1     -10.915   6.204  69.835  1.00  0.00    -0.458 A  
HETATM   11  C   UNL     1     -10.778   7.532  69.492  1.00  0.00    -0.222 A  
HETATM   12  C   UNL     1     -10.152   7.857  68.295  1.00  0.00    -0.225 A  
ENDBRANCH   3   6
BRANCH   5  13
HETATM   13  C   UNL     1      -9.441   3.260  64.665  1.00  0.00    -0.149 C  
HETATM   14  C   UNL     1      -8.923   3.787  63.542  1.00  0.00    -0.103 C  
HETATM   15  C   UNL     1      -8.278   2.986  62.458  1.00  0.00    -0.073 C  
ENDBRANCH   5  13
ENDBRANCH   2   3
TORSDOF 3
ENDMDL
MODEL      219
REMARK 921   NORMALIZED FREE ENERGY PREDICTED BY IDOCK:   -2.17 KCAL/MOL
REMARK 922        TOTAL FREE ENERGY PREDICTED BY IDOCK:   -3.11 KCAL/MOL
REMARK 923 INTER-LIGAND FREE ENERGY PREDICTED BY IDOCK:   -2.50 KCAL/MOL
REMARK 924 INTRA-LIGAND FREE ENERGY PREDICTED BY IDOCK:   -0.61 KCAL/MOL
REMARK 927      BINDING AFFINITY PREDICTED BY RF-SCORE:    0.00 PKD
ROOT
HETATM    1  C   UNL     1      -8.186   5.656  72.657  1.00  0.00    -0.113 C  
HETATM    2  C   UNL     1      -8.825   6.017  71.322  1.00  0.00    -0.136 C  
ENDROOT
BRANCH   2   3
HETATM    3  N   UNL     1      -8.683   7.333  70.669  1.00  0.00    -0.146 N  
HETATM    4  O   UNL     1      -8.978   9.657  70.855  1.00  0.00    -0.196 OA 
HETATM    5  C   UNL     1      -9.366   8.502  71.055  1.00  0.00    -0.185 C  
BRANCH   3   6
HETATM    6  C   UNL     1      -7.590   7.455  69.678  1.00  0.00    -0.095 A  
HETATM    7  C   UNL     1      -7.916   7.278  68.314  1.00  0.00    -0.124 A  
HETATM    8  C   UNL     1      -5.616   7.982  71.324  1.00  0.00    -0.034 C  
HETATM    9  C   UNL     1      -6.210   7.676  69.974  1.00  0.00    -0.027 A  
HETATM   10  C   UNL     1      -6.962   7.316  67.288  1.00  0.00    -0.079 A  
HETATM   11  C   UNL     1      -5.631   7.515  67.589  1.00  0.00    -0.034 A  
HETATM   12  C   UNL     1      -5.261   7.691  68.917  1.00  0.00    -0.019 A  
ENDBRANCH   3   6
BRANCH   5  13
HETATM   13  C   UNL     1     -10.685   8.359  71.721  1.00  0.00    -0.355 C  
HETATM   14  C   UNL     1     -11.638   9.291  71.551  1.00  0.00    -0.452 C  
HETATM   15  C   UNL     1     -12.991   9.236  72.186  1.00  0.00    -0.503 C  
ENDBRANCH   5  13
ENDBRANCH   2   3
TORSDOF 3
ENDMDL
MODEL      220
REMARK 921   NORMALIZED FREE ENERGY PREDICTED BY IDOCK:   -2.15 KCAL/MOL
REMARK 922        TOTAL FREE ENERGY PREDICTED BY IDOCK:   -3.09 KCAL/MOL
REMARK 923 INTER-LIGAND FREE ENERGY PREDICTED BY IDOCK:   -2.45 KCAL/MOL
REMARK 924 INTRA-LIGAND FREE ENERGY PREDICTED BY IDOCK:   -0.64 KCAL/MOL
REMARK 927      BINDING AFFINITY PREDICTED BY RF-SCORE:    0.00 PKD
ROOT
HETATM    1  C   UNL     1      -9.561   2.688  71.109  1.00  0.00    -0.220 C  
HETATM    2  C   UNL     1      -8.472   3.535  70.464  1.00  0.00    -0.061 C  
ENDROOT
BRANCH   2   3
HETATM    3  N   UNL     1      -8.565   4.997  70.280  1.00  0.00    -0.101 N  
HETATM    4  O   UNL     1      -7.533   7.084  70.600  1.00  0.00    -0.081 OA 
HETATM    5  C   UNL     1      -7.815   5.949  70.996  1.00  0.00    -0.110 C  
BRANCH   3   6
HETATM    6  C   UNL     1      -9.357   5.459  69.117  1.00  0.00    -0.120 A  
HETATM    7  C   UNL     1      -8.779   5.326  67.834  1.00  0.00    -0.102 A  
HETATM    8  C   UNL     1     -11.503   6.269  70.392  1.00  0.00    -0.414 C  
HETATM    9  C   UNL     1     -10.638   6.089  69.171  1.00  0.00    -0.362 A  
HETATM   10  C   UNL     1      -9.405   5.774  66.663  1.00  0.00    -0.155 A  
HETATM   11  C   UNL     1     -10.635   6.395  66.731  1.00  0.00    -0.328 A  
HETATM   12  C   UNL     1     -11.241   6.551  67.971  1.00  0.00    -0.251 A  
ENDBRANCH   3   6
BRANCH   5  13
HETATM   13  C   UNL     1      -7.347   5.595  72.361  1.00  0.00    -0.095 C  
HETATM   14  C   UNL     1      -6.033   5.496  72.625  1.00  0.00    -0.031 C  
HETATM   15  C   UNL     1      -5.470   5.138  73.964  1.00  0.00    -0.018 C  
ENDBRANCH   5  13
ENDBRANCH   2   3
TORSDOF 3
ENDMDL
MODEL      221
REMARK 921   NORMALIZED FREE ENERGY PREDICTED BY IDOCK:   -2.05 KCAL/MOL
REMARK 922        TOTAL FREE ENERGY PREDICTED BY IDOCK:   -2.97 KCAL/MOL
REMARK 923 INTER-LIGAND FREE ENERGY PREDICTED BY IDOCK:   -2.31 KCAL/MOL
REMARK 924 INTRA-LIGAND FREE ENERGY PREDICTED BY IDOCK:   -0.65 KCAL/MOL
REMARK 927      BINDING AFFINITY PREDICTED BY RF-SCORE:    0.00 PKD
ROOT
HETATM    1  C   UNL     1     -10.393   7.978  67.131  1.00  0.00    -0.395 C  
HETATM    2  C   UNL     1      -9.184   8.739  67.659  1.00  0.00    -0.134 C  
ENDROOT
BRANCH   2   3
HETATM    3  N   UNL     1      -8.241   8.198  68.658  1.00  0.00    -0.124 N  
HETATM    4  O   UNL     1      -6.009   8.072  69.382  1.00  0.00    -0.032 OA 
HETATM    5  C   UNL     1      -6.850   8.090  68.478  1.00  0.00    -0.067 C  
BRANCH   3   6
HETATM    6  C   UNL     1      -8.794   7.951  70.009  1.00  0.00    -0.141 A  
HETATM    7  C   UNL     1      -9.271   9.064  70.738  1.00  0.00    -0.299 A  
HETATM    8  C   UNL     1      -8.478   5.347  70.098  1.00  0.00    -0.119 C  
HETATM    9  C   UNL     1      -8.838   6.690  70.680  1.00  0.00    -0.148 A  
HETATM   10  C   UNL     1      -9.768   8.966  72.046  1.00  0.00    -0.304 A  
HETATM   11  C   UNL     1      -9.789   7.746  72.687  1.00  0.00    -0.284 A  
HETATM   12  C   UNL     1      -9.328   6.623  72.011  1.00  0.00    -0.142 A  
ENDBRANCH   3   6
BRANCH   5  13
HETATM   13  C   UNL     1      -6.328   7.944  67.094  1.00  0.00    -0.055 C  
HETATM   14  C   UNL     1      -6.275   6.733  66.512  1.00  0.00    -0.044 C  
HETATM   15  C   UNL     1      -5.760   6.488  65.130  1.00  0.00    -0.026 C  
ENDBRANCH   5  13
ENDBRANCH   2   3
TORSDOF 3
ENDMDL
MODEL      222
REMARK 921   NORMALIZED FREE ENERGY PREDICTED BY IDOCK:   -2.02 KCAL/MOL
REMARK 922        TOTAL FREE ENERGY PREDICTED BY IDOCK:   -2.93 KCAL/MOL
REMARK 923 INTER-LIGAND FREE ENERGY PREDICTED BY IDOCK:   -2.23 KCAL/MOL
REMARK 924 INTRA-LIGAND FREE ENERGY PREDICTED BY IDOCK:   -0.70 KCAL/MOL
REMARK 927      BINDING AFFINITY PREDICTED BY RF-SCORE:    0.00 PKD
ROOT
HETATM    1  C   UNL     1      -5.979   6.393  68.981  1.00  0.00    -0.021 C  
HETATM    2  C   UNL     1      -6.633   5.468  69.999  1.00  0.00    -0.043 C  
ENDROOT
BRANCH   2   3
HETATM    3  N   UNL     1      -7.845   4.670  69.728  1.00  0.00    -0.061 N  
HETATM    4  O   UNL     1      -8.821   2.532  69.700  1.00  0.00    -0.069 OA 
HETATM    5  C   UNL     1      -7.861   3.282  69.495  1.00  0.00    -0.049 C  
BRANCH   3   6
HETATM    6  C   UNL     1      -9.139   5.362  69.925  1.00  0.00    -0.135 A  
HETATM    7  C   UNL     1      -9.502   5.713  71.245  1.00  0.00    -0.179 A  
HETATM    8  C   UNL     1      -9.916   5.473  67.421  1.00  0.00    -0.189 C  
HETATM    9  C   UNL     1     -10.094   5.660  68.906  1.00  0.00    -0.254 A  
HETATM   10  C   UNL     1     -10.723   6.324  71.565  1.00  0.00    -0.292 A  
HETATM   11  C   UNL     1     -11.643   6.591  70.574  1.00  0.00    -0.455 A  
HETATM   12  C   UNL     1     -11.331   6.262  69.260  1.00  0.00    -0.411 A  
ENDBRANCH   3   6
BRANCH   5  13
HETATM   13  C   UNL     1      -6.647   2.652  68.915  1.00  0.00    -0.029 C  
HETATM   14  C   UNL     1      -6.415   2.712  67.592  1.00  0.00    -0.036 C  
HETATM   15  C   UNL     1      -5.228   2.102  66.919  1.00  0.00    -0.008 C  
ENDBRANCH   5  13
ENDBRANCH   2   3
TORSDOF 3
ENDMDL
MODEL      223
REMARK 921   NORMALIZED FREE ENERGY PREDICTED BY IDOCK:   -2.01 KCAL/MOL
REMARK 922        TOTAL FREE ENERGY PREDICTED BY IDOCK:   -2.91 KCAL/MOL
REMARK 923 INTER-LIGAND FREE ENERGY PREDICTED BY IDOCK:   -2.38 KCAL/MOL
REMARK 924 INTRA-LIGAND FREE ENERGY PREDICTED BY IDOCK:   -0.53 KCAL/MOL
REMARK 927      BINDING AFFINITY PREDICTED BY RF-SCORE:    0.00 PKD
ROOT
HETATM    1  C   UNL     1      -7.132  11.269  67.732  1.00  0.00    -0.087 C  
HETATM    2  C   UNL     1      -8.302  11.203  68.704  1.00  0.00    -0.154 C  
ENDROOT
BRANCH   2   3
HETATM    3  N   UNL     1      -9.152  10.010  68.891  1.00  0.00    -0.150 N  
HETATM    4  O   UNL     1     -11.286   9.061  68.631  1.00  0.00     0.118 OA 
HETATM    5  C   UNL     1     -10.559  10.018  68.914  1.00  0.00    -0.218 C  
BRANCH   3   6
HETATM    6  C   UNL     1      -8.459   8.702  68.843  1.00  0.00    -0.129 A  
HETATM    7  C   UNL     1      -7.843   8.240  70.028  1.00  0.00    -0.104 A  
HETATM    8  C   UNL     1      -8.927   8.097  66.333  1.00  0.00    -0.207 C  
HETATM    9  C   UNL     1      -8.299   7.880  67.686  1.00  0.00    -0.124 A  
HETATM   10  C   UNL     1      -7.113   7.044  70.095  1.00  0.00    -0.067 A  
HETATM   11  C   UNL     1      -6.954   6.269  68.967  1.00  0.00    -0.068 A  
HETATM   12  C   UNL     1      -7.539   6.684  67.777  1.00  0.00    -0.106 A  
ENDBRANCH   3   6
BRANCH   5  13
HETATM   13  C   UNL     1     -11.248  11.259  69.354  1.00  0.00    -0.345 C  
HETATM   14  C   UNL     1     -11.794  11.336  70.580  1.00  0.00    -0.421 C  
HETATM   15  C   UNL     1     -12.513  12.537  71.106  1.00  0.00    -0.322 C  
ENDBRANCH   5  13
ENDBRANCH   2   3
TORSDOF 3
ENDMDL
MODEL      224
REMARK 921   NORMALIZED FREE ENERGY PREDICTED BY IDOCK:   -2.01 KCAL/MOL
REMARK 922        TOTAL FREE ENERGY PREDICTED BY IDOCK:   -2.91 KCAL/MOL
REMARK 923 INTER-LIGAND FREE ENERGY PREDICTED BY IDOCK:   -2.32 KCAL/MOL
REMARK 924 INTRA-LIGAND FREE ENERGY PREDICTED BY IDOCK:   -0.59 KCAL/MOL
REMARK 927      BINDING AFFINITY PREDICTED BY RF-SCORE:    0.00 PKD
ROOT
HETATM    1  C   UNL     1     -10.728   9.178  69.045  1.00  0.00    -0.176 C  
HETATM    2  C   UNL     1     -10.335   9.106  67.575  1.00  0.00    -0.261 C  
ENDROOT
BRANCH   2   3
HETATM    3  N   UNL     1      -9.193   9.837  66.990  1.00  0.00    -0.141 N  
HETATM    4  O   UNL     1      -8.197  11.929  66.597  1.00  0.00    -0.163 OA 
HETATM    5  C   UNL     1      -9.196  11.205  66.660  1.00  0.00    -0.175 C  
BRANCH   3   6
HETATM    6  C   UNL     1      -7.905   9.108  66.949  1.00  0.00    -0.098 A  
HETATM    7  C   UNL     1      -7.192   8.965  68.161  1.00  0.00    -0.079 A  
HETATM    8  C   UNL     1      -7.859   8.524  64.391  1.00  0.00    -0.140 C  
HETATM    9  C   UNL     1      -7.276   8.582  65.780  1.00  0.00    -0.076 A  
HETATM   10  C   UNL     1      -5.938   8.343  68.242  1.00  0.00    -0.046 A  
HETATM   11  C   UNL     1      -5.335   7.853  67.103  1.00  0.00    -0.032 A  
HETATM   12  C   UNL     1      -5.997   7.974  65.887  1.00  0.00    -0.038 A  
ENDBRANCH   3   6
BRANCH   5  13
HETATM   13  C   UNL     1     -10.492  11.843  66.315  1.00  0.00    -0.274 C  
HETATM   14  C   UNL     1     -11.000  12.816  67.092  1.00  0.00    -0.295 C  
HETATM   15  C   UNL     1     -12.298  13.509  66.830  1.00  0.00    -0.326 C  
ENDBRANCH   5  13
ENDBRANCH   2   3
TORSDOF 3
ENDMDL
MODEL      225
REMARK 921   NORMALIZED FREE ENERGY PREDICTED BY IDOCK:   -2.00 KCAL/MOL
REMARK 922        TOTAL FREE ENERGY PREDICTED BY IDOCK:   -2.90 KCAL/MOL
REMARK 923 INTER-LIGAND FREE ENERGY PREDICTED BY IDOCK:   -2.24 KCAL/MOL
REMARK 924 INTRA-LIGAND FREE ENERGY PREDICTED BY IDOCK:   -0.66 KCAL/MOL
REMARK 927      BINDING AFFINITY PREDICTED BY RF-SCORE:    0.00 PKD
ROOT
HETATM    1  C   UNL     1      -8.498   8.977  67.719  1.00  0.00    -0.117 C  
HETATM    2  C   UNL     1      -8.417   8.098  68.961  1.00  0.00    -0.129 C  
ENDROOT
BRANCH   2   3
HETATM    3  N   UNL     1      -9.156   6.830  69.124  1.00  0.00    -0.139 N  
HETATM    4  O   UNL     1     -11.258   5.782  69.211  1.00  0.00    -0.300 OA 
HETATM    5  C   UNL     1     -10.513   6.729  69.483  1.00  0.00    -0.220 C  
BRANCH   3   6
HETATM    6  C   UNL     1      -8.458   5.605  68.673  1.00  0.00    -0.105 A  
HETATM    7  C   UNL     1      -7.725   4.874  69.635  1.00  0.00    -0.063 A  
HETATM    8  C   UNL     1      -9.159   5.655  66.144  1.00  0.00    -0.158 C  
HETATM    9  C   UNL     1      -8.401   5.118  67.331  1.00  0.00    -0.106 A  
HETATM   10  C   UNL     1      -6.979   3.729  69.321  1.00  0.00    -0.046 A  
HETATM   11  C   UNL     1      -6.921   3.279  68.020  1.00  0.00    -0.050 A  
HETATM   12  C   UNL     1      -7.623   3.966  67.038  1.00  0.00    -0.080 A  
ENDBRANCH   3   6
BRANCH   5  13
HETATM   13  C   UNL     1     -11.110   7.822  70.294  1.00  0.00    -0.242 C  
HETATM   14  C   UNL     1     -11.072   7.771  71.637  1.00  0.00    -0.275 C  
HETATM   15  C   UNL     1     -11.652   8.818  72.533  1.00  0.00    -0.211 C  
ENDBRANCH   5  13
ENDBRANCH   2   3
TORSDOF 3
ENDMDL
MODEL      226
REMARK 921   NORMALIZED FREE ENERGY PREDICTED BY IDOCK:   -1.98 KCAL/MOL
REMARK 922        TOTAL FREE ENERGY PREDICTED BY IDOCK:   -2.88 KCAL/MOL
REMARK 923 INTER-LIGAND FREE ENERGY PREDICTED BY IDOCK:   -2.28 KCAL/MOL
REMARK 924 INTRA-LIGAND FREE ENERGY PREDICTED BY IDOCK:   -0.60 KCAL/MOL
REMARK 927      BINDING AFFINITY PREDICTED BY RF-SCORE:    0.00 PKD
ROOT
HETATM    1  C   UNL     1     -11.126   7.742  71.404  1.00  0.00    -0.268 C  
HETATM    2  C   UNL     1     -10.193   8.933  71.231  1.00  0.00    -0.291 C  
ENDROOT
BRANCH   2   3
HETATM    3  N   UNL     1      -8.721   8.829  71.201  1.00  0.00    -0.194 N  
HETATM    4  O   UNL     1      -6.687   9.906  70.722  1.00  0.00    -0.215 OA 
HETATM    5  C   UNL     1      -7.869   9.665  70.455  1.00  0.00    -0.159 C  
BRANCH   3   6
HETATM    6  C   UNL     1      -8.112   7.911  72.190  1.00  0.00    -0.124 A  
HETATM    7  C   UNL     1      -7.892   8.404  73.496  1.00  0.00    -0.153 A  
HETATM    8  C   UNL     1      -7.859   5.792  70.663  1.00  0.00    -0.101 C  
HETATM    9  C   UNL     1      -7.664   6.579  71.934  1.00  0.00    -0.098 A  
HETATM   10  C   UNL     1      -7.275   7.650  74.505  1.00  0.00    -0.152 A  
HETATM   11  C   UNL     1      -6.834   6.371  74.239  1.00  0.00    -0.081 A  
HETATM   12  C   UNL     1      -7.026   5.844  72.968  1.00  0.00    -0.077 A  
ENDBRANCH   3   6
BRANCH   5  13
HETATM   13  C   UNL     1      -8.401  10.286  69.215  1.00  0.00    -0.167 C  
HETATM   14  C   UNL     1      -8.088  11.555  68.901  1.00  0.00    -0.035 C  
HETATM   15  C   UNL     1      -8.582  12.265  67.681  1.00  0.00    -0.169 C  
ENDBRANCH   5  13
ENDBRANCH   2   3
TORSDOF 3
ENDMDL
MODEL      227
REMARK 921   NORMALIZED FREE ENERGY PREDICTED BY IDOCK:   -1.96 KCAL/MOL
REMARK 922        TOTAL FREE ENERGY PREDICTED BY IDOCK:   -2.86 KCAL/MOL
REMARK 923 INTER-LIGAND FREE ENERGY PREDICTED BY IDOCK:   -2.45 KCAL/MOL
REMARK 924 INTRA-LIGAND FREE ENERGY PREDICTED BY IDOCK:   -0.42 KCAL/MOL
REMARK 927      BINDING AFFINITY PREDICTED BY RF-SCORE:    0.00 PKD
ROOT
HETATM    1  C   UNL     1      -9.614   2.808  71.056  1.00  0.00    -0.215 C  
HETATM    2  C   UNL     1      -8.461   3.725  70.670  1.00  0.00    -0.069 C  
ENDROOT
BRANCH   2   3
HETATM    3  N   UNL     1      -8.583   5.190  70.533  1.00  0.00    -0.116 N  
HETATM    4  O   UNL     1      -8.849   7.008  69.068  1.00  0.00    -0.134 OA 
HETATM    5  C   UNL     1      -8.356   5.910  69.346  1.00  0.00    -0.114 C  
BRANCH   3   6
HETATM    6  C   UNL     1      -9.185   5.904  71.682  1.00  0.00    -0.146 A  
HETATM    7  C   UNL     1      -8.360   6.165  72.799  1.00  0.00    -0.117 A  
HETATM    8  C   UNL     1     -11.607   6.227  70.724  1.00  0.00    -0.347 C  
HETATM    9  C   UNL     1     -10.551   6.307  71.796  1.00  0.00    -0.266 A  
HETATM   10  C   UNL     1      -8.827   6.786  73.967  1.00  0.00    -0.187 A  
HETATM   11  C   UNL     1     -10.152   7.155  74.070  1.00  0.00    -0.303 A  
HETATM   12  C   UNL     1     -11.002   6.916  72.997  1.00  0.00    -0.308 A  
ENDBRANCH   3   6
BRANCH   5  13
HETATM   13  C   UNL     1      -7.415   5.341  68.346  1.00  0.00    -0.075 C  
HETATM   14  C   UNL     1      -6.406   6.085  67.861  1.00  0.00    -0.037 C  
HETATM   15  C   UNL     1      -5.417   5.601  66.849  1.00  0.00    -0.012 C  
ENDBRANCH   5  13
ENDBRANCH   2   3
TORSDOF 3
ENDMDL
MODEL      228
REMARK 921   NORMALIZED FREE ENERGY PREDICTED BY IDOCK:   -1.95 KCAL/MOL
REMARK 922        TOTAL FREE ENERGY PREDICTED BY IDOCK:   -2.85 KCAL/MOL
REMARK 923 INTER-LIGAND FREE ENERGY PREDICTED BY IDOCK:   -2.61 KCAL/MOL
REMARK 924 INTRA-LIGAND FREE ENERGY PREDICTED BY IDOCK:   -0.24 KCAL/MOL
REMARK 927      BINDING AFFINITY PREDICTED BY RF-SCORE:    0.00 PKD
ROOT
HETATM    1  C   UNL     1     -10.909   9.938  68.070  1.00  0.00    -0.294 C  
HETATM    2  C   UNL     1      -9.953   9.570  66.943  1.00  0.00    -0.216 C  
ENDROOT
BRANCH   2   3
HETATM    3  N   UNL     1      -9.290   8.256  66.819  1.00  0.00    -0.169 N  
HETATM    4  O   UNL     1      -7.444   7.060  65.992  1.00  0.00    -0.076 OA 
HETATM    5  C   UNL     1      -8.305   7.937  65.867  1.00  0.00    -0.132 C  
BRANCH   3   6
HETATM    6  C   UNL     1      -9.548   7.291  67.912  1.00  0.00    -0.139 A  
HETATM    7  C   UNL     1      -9.071   7.615  69.202  1.00  0.00    -0.141 A  
HETATM    8  C   UNL     1     -10.858   5.477  66.540  1.00  0.00    -0.237 C  
HETATM    9  C   UNL     1     -10.187   6.020  67.775  1.00  0.00    -0.219 A  
HETATM   10  C   UNL     1      -9.206   6.760  70.305  1.00  0.00    -0.156 A  
HETATM   11  C   UNL     1      -9.810   5.531  70.156  1.00  0.00    -0.261 A  
HETATM   12  C   UNL     1     -10.293   5.166  68.905  1.00  0.00    -0.186 A  
ENDBRANCH   3   6
BRANCH   5  13
HETATM   13  C   UNL     1      -8.306   8.675  64.578  1.00  0.00    -0.157 C  
HETATM   14  C   UNL     1      -7.185   9.267  64.132  1.00  0.00    -0.098 C  
HETATM   15  C   UNL     1      -7.093  10.037  62.853  1.00  0.00    -0.127 C  
ENDBRANCH   5  13
ENDBRANCH   2   3
TORSDOF 3
ENDMDL
MODEL      229
REMARK 921   NORMALIZED FREE ENERGY PREDICTED BY IDOCK:   -1.94 KCAL/MOL
REMARK 922        TOTAL FREE ENERGY PREDICTED BY IDOCK:   -2.83 KCAL/MOL
REMARK 923 INTER-LIGAND FREE ENERGY PREDICTED BY IDOCK:   -2.18 KCAL/MOL
REMARK 924 INTRA-LIGAND FREE ENERGY PREDICTED BY IDOCK:   -0.65 KCAL/MOL
REMARK 927      BINDING AFFINITY PREDICTED BY RF-SCORE:    0.00 PKD
ROOT
HETATM    1  C   UNL     1     -10.309   9.430  66.427  1.00  0.00    -0.237 C  
HETATM    2  C   UNL     1     -10.317   8.083  67.137  1.00  0.00    -0.325 C  
ENDROOT
BRANCH   2   3
HETATM    3  N   UNL     1      -9.168   7.155  67.157  1.00  0.00    -0.130 N  
HETATM    4  O   UNL     1      -7.710   5.867  68.476  1.00  0.00    -0.091 OA 
HETATM    5  C   UNL     1      -8.358   6.900  68.279  1.00  0.00    -0.123 C  
BRANCH   3   6
HETATM    6  C   UNL     1      -9.006   6.292  65.965  1.00  0.00    -0.137 A  
HETATM    7  C   UNL     1      -9.731   5.079  65.928  1.00  0.00    -0.182 A  
HETATM    8  C   UNL     1      -7.325   7.788  64.616  1.00  0.00    -0.080 C  
HETATM    9  C   UNL     1      -8.133   6.540  64.863  1.00  0.00    -0.119 A  
HETATM   10  C   UNL     1      -9.621   4.154  64.880  1.00  0.00    -0.178 A  
HETATM   11  C   UNL     1      -8.762   4.399  63.830  1.00  0.00    -0.129 A  
HETATM   12  C   UNL     1      -8.027   5.577  63.824  1.00  0.00    -0.112 A  
ENDBRANCH   3   6
BRANCH   5  13
HETATM   13  C   UNL     1      -8.222   7.965  69.306  1.00  0.00    -0.128 C  
HETATM   14  C   UNL     1      -7.184   8.819  69.266  1.00  0.00    -0.062 C  
HETATM   15  C   UNL     1      -6.961   9.915  70.259  1.00  0.00    -0.147 C  
ENDBRANCH   5  13
ENDBRANCH   2   3
TORSDOF 3
ENDMDL
MODEL      230
REMARK 921   NORMALIZED FREE ENERGY PREDICTED BY IDOCK:   -1.93 KCAL/MOL
REMARK 922        TOTAL FREE ENERGY PREDICTED BY IDOCK:   -2.82 KCAL/MOL
REMARK 923 INTER-LIGAND FREE ENERGY PREDICTED BY IDOCK:   -2.42 KCAL/MOL
REMARK 924 INTRA-LIGAND FREE ENERGY PREDICTED BY IDOCK:   -0.40 KCAL/MOL
REMARK 927      BINDING AFFINITY PREDICTED BY RF-SCORE:    0.00 PKD
ROOT
HETATM    1  C   UNL     1     -10.675   4.684  65.483  1.00  0.00    -0.176 C  
HETATM    2  C   UNL     1      -9.633   4.493  66.577  1.00  0.00    -0.190 C  
ENDROOT
BRANCH   2   3
HETATM    3  N   UNL     1      -8.782   5.579  67.103  1.00  0.00    -0.109 N  
HETATM    4  O   UNL     1      -6.600   6.415  67.353  1.00  0.00    -0.053 OA 
HETATM    5  C   UNL     1      -7.399   5.474  67.345  1.00  0.00    -0.076 C  
BRANCH   3   6
HETATM    6  C   UNL     1      -9.407   6.919  67.179  1.00  0.00    -0.141 A  
HETATM    7  C   UNL     1      -9.169   7.816  66.113  1.00  0.00    -0.182 A  
HETATM    8  C   UNL     1     -10.656   6.646  69.471  1.00  0.00    -0.281 C  
HETATM    9  C   UNL     1     -10.186   7.420  68.266  1.00  0.00    -0.213 A  
HETATM   10  C   UNL     1      -9.662   9.129  66.094  1.00  0.00    -0.357 A  
HETATM   11  C   UNL     1     -10.399   9.605  67.157  1.00  0.00    -0.319 A  
HETATM   12  C   UNL     1     -10.656   8.760  68.230  1.00  0.00    -0.194 A  
ENDBRANCH   3   6
BRANCH   5  13
HETATM   13  C   UNL     1      -6.839   4.134  67.660  1.00  0.00    -0.051 C  
HETATM   14  C   UNL     1      -6.849   3.673  68.923  1.00  0.00    -0.046 C  
HETATM   15  C   UNL     1      -6.302   2.344  69.336  1.00  0.00    -0.029 C  
ENDBRANCH   5  13
ENDBRANCH   2   3
TORSDOF 3
ENDMDL
MODEL      231
REMARK 921   NORMALIZED FREE ENERGY PREDICTED BY IDOCK:   -1.89 KCAL/MOL
REMARK 922        TOTAL FREE ENERGY PREDICTED BY IDOCK:   -2.78 KCAL/MOL
REMARK 923 INTER-LIGAND FREE ENERGY PREDICTED BY IDOCK:   -2.09 KCAL/MOL
REMARK 924 INTRA-LIGAND FREE ENERGY PREDICTED BY IDOCK:   -0.69 KCAL/MOL
REMARK 927      BINDING AFFINITY PREDICTED BY RF-SCORE:    0.00 PKD
ROOT
HETATM    1  C   UNL     1     -10.598   8.959  68.106  1.00  0.00    -0.211 C  
HETATM    2  C   UNL     1      -9.524   8.702  67.058  1.00  0.00    -0.171 C  
ENDROOT
BRANCH   2   3
HETATM    3  N   UNL     1      -8.491   7.653  67.175  1.00  0.00    -0.120 N  
HETATM    4  O   UNL     1      -6.742   6.758  68.465  1.00  0.00    -0.059 OA 
HETATM    5  C   UNL     1      -7.360   7.726  68.010  1.00  0.00    -0.102 C  
BRANCH   3   6
HETATM    6  C   UNL     1      -8.795   6.362  66.518  1.00  0.00    -0.136 A  
HETATM    7  C   UNL     1      -8.272   6.145  65.222  1.00  0.00    -0.142 A  
HETATM    8  C   UNL     1     -10.225   5.269  68.427  1.00  0.00    -0.206 C  
HETATM    9  C   UNL     1      -9.624   5.326  67.046  1.00  0.00    -0.150 A  
HETATM   10  C   UNL     1      -8.533   4.987  64.476  1.00  0.00    -0.142 A  
HETATM   11  C   UNL     1      -9.349   4.002  64.992  1.00  0.00    -0.163 A  
HETATM   12  C   UNL     1      -9.888   4.172  66.261  1.00  0.00    -0.208 A  
ENDBRANCH   3   6
BRANCH   5  13
HETATM   13  C   UNL     1      -6.822   9.068  68.351  1.00  0.00    -0.064 C  
HETATM   14  C   UNL     1      -6.983   9.571  69.588  1.00  0.00    -0.066 C  
HETATM   15  C   UNL     1      -6.484  10.912  70.020  1.00  0.00    -0.151 C  
ENDBRANCH   5  13
ENDBRANCH   2   3
TORSDOF 3
ENDMDL
MODEL      232
REMARK 921   NORMALIZED FREE ENERGY PREDICTED BY IDOCK:   -1.87 KCAL/MOL
REMARK 922        TOTAL FREE ENERGY PREDICTED BY IDOCK:   -2.75 KCAL/MOL
REMARK 923 INTER-LIGAND FREE ENERGY PREDICTED BY IDOCK:   -2.40 KCAL/MOL
REMARK 924 INTRA-LIGAND FREE ENERGY PREDICTED BY IDOCK:   -0.35 KCAL/MOL
REMARK 927      BINDING AFFINITY PREDICTED BY RF-SCORE:    0.00 PKD
ROOT
HETATM    1  C   UNL     1      -9.640   2.688  71.057  1.00  0.00    -0.210 C  
HETATM    2  C   UNL     1      -8.719   3.810  70.595  1.00  0.00    -0.073 C  
ENDROOT
BRANCH   2   3
HETATM    3  N   UNL     1      -9.131   5.224  70.487  1.00  0.00    -0.138 N  
HETATM    4  O   UNL     1     -10.352   6.824  69.273  1.00  0.00    -0.183 OA 
HETATM    5  C   UNL     1      -9.613   5.835  69.314  1.00  0.00    -0.139 C  
BRANCH   3   6
HETATM    6  C   UNL     1      -9.231   5.973  71.760  1.00  0.00    -0.145 A  
HETATM    7  C   UNL     1     -10.400   5.801  72.534  1.00  0.00    -0.233 A  
HETATM    8  C   UNL     1      -6.917   7.209  71.676  1.00  0.00    -0.067 C  
HETATM    9  C   UNL     1      -8.275   6.911  72.258  1.00  0.00    -0.104 A  
HETATM   10  C   UNL     1     -10.635   6.494  73.730  1.00  0.00    -0.285 A  
HETATM   11  C   UNL     1      -9.711   7.408  74.191  1.00  0.00    -0.113 A  
HETATM   12  C   UNL     1      -8.547   7.613  73.462  1.00  0.00    -0.254 A  
ENDBRANCH   3   6
BRANCH   5  13
HETATM   13  C   UNL     1      -9.174   5.288  68.004  1.00  0.00    -0.125 C  
HETATM   14  C   UNL     1      -9.809   4.236  67.460  1.00  0.00    -0.162 C  
HETATM   15  C   UNL     1      -9.435   3.614  66.153  1.00  0.00    -0.171 C  
ENDBRANCH   5  13
ENDBRANCH   2   3
TORSDOF 3
ENDMDL
MODEL      233
REMARK 921   NORMALIZED FREE ENERGY PREDICTED BY IDOCK:   -1.76 KCAL/MOL
REMARK 922        TOTAL FREE ENERGY PREDICTED BY IDOCK:   -2.62 KCAL/MOL
REMARK 923 INTER-LIGAND FREE ENERGY PREDICTED BY IDOCK:   -2.18 KCAL/MOL
REMARK 924 INTRA-LIGAND FREE ENERGY PREDICTED BY IDOCK:   -0.43 KCAL/MOL
REMARK 927      BINDING AFFINITY PREDICTED BY RF-SCORE:    0.00 PKD
ROOT
HETATM    1  C   UNL     1     -10.675   4.684  65.483  1.00  0.00    -0.176 C  
HETATM    2  C   UNL     1      -9.633   4.493  66.577  1.00  0.00    -0.190 C  
ENDROOT
BRANCH   2   3
HETATM    3  N   UNL     1      -8.782   5.579  67.103  1.00  0.00    -0.109 N  
HETATM    4  O   UNL     1      -6.851   6.144  68.319  1.00  0.00    -0.068 OA 
HETATM    5  C   UNL     1      -7.850   5.438  68.149  1.00  0.00    -0.092 C  
BRANCH   3   6
HETATM    6  C   UNL     1      -8.777   6.839  66.326  1.00  0.00    -0.146 A  
HETATM    7  C   UNL     1      -7.730   7.035  65.397  1.00  0.00    -0.111 A  
HETATM    8  C   UNL     1     -10.952   7.924  67.315  1.00  0.00    -0.016 C  
HETATM    9  C   UNL     1      -9.706   7.915  66.468  1.00  0.00    -0.279 A  
HETATM   10  C   UNL     1      -7.588   8.207  64.641  1.00  0.00    -0.111 A  
HETATM   11  C   UNL     1      -8.482   9.244  64.800  1.00  0.00    -0.189 A  
HETATM   12  C   UNL     1      -9.527   9.099  65.704  1.00  0.00    -0.309 A  
ENDBRANCH   3   6
BRANCH   5  13
HETATM   13  C   UNL     1      -8.090   4.384  69.168  1.00  0.00    -0.069 C  
HETATM   14  C   UNL     1      -8.878   4.631  70.229  1.00  0.00    -0.122 C  
HETATM   15  C   UNL     1      -9.171   3.638  71.307  1.00  0.00    -0.197 C  
ENDBRANCH   5  13
ENDBRANCH   2   3
TORSDOF 3
ENDMDL
MODEL      234
REMARK 921   NORMALIZED FREE ENERGY PREDICTED BY IDOCK:   -1.72 KCAL/MOL
REMARK 922        TOTAL FREE ENERGY PREDICTED BY IDOCK:   -2.58 KCAL/MOL
REMARK 923 INTER-LIGAND FREE ENERGY PREDICTED BY IDOCK:   -2.47 KCAL/MOL
REMARK 924 INTRA-LIGAND FREE ENERGY PREDICTED BY IDOCK:   -0.11 KCAL/MOL
REMARK 927      BINDING AFFINITY PREDICTED BY RF-SCORE:    0.00 PKD
ROOT
HETATM    1  C   UNL     1      -8.728  10.165  64.288  1.00  0.00    -0.218 C  
HETATM    2  C   UNL     1      -8.233  10.546  65.677  1.00  0.00    -0.161 C  
ENDROOT
BRANCH   2   3
HETATM    3  N   UNL     1      -8.968  10.251  66.924  1.00  0.00    -0.136 N  
HETATM    4  O   UNL     1     -10.869  10.693  68.232  1.00  0.00    -0.204 OA 
HETATM    5  C   UNL     1      -9.959  11.074  67.489  1.00  0.00    -0.174 C  
BRANCH   3   6
HETATM    6  C   UNL     1      -8.777   8.896  67.488  1.00  0.00    -0.123 A  
HETATM    7  C   UNL     1      -9.668   7.880  67.073  1.00  0.00    -0.269 A  
HETATM    8  C   UNL     1      -6.692   9.385  69.004  1.00  0.00    -0.050 C  
HETATM    9  C   UNL     1      -7.806   8.523  68.467  1.00  0.00    -0.108 A  
HETATM   10  C   UNL     1      -9.623   6.571  67.574  1.00  0.00    -0.137 A  
HETATM   11  C   UNL     1      -8.691   6.230  68.531  1.00  0.00    -0.112 A  
HETATM   12  C   UNL     1      -7.795   7.196  68.972  1.00  0.00    -0.114 A  
ENDBRANCH   3   6
BRANCH   5  13
HETATM   13  C   UNL     1      -9.902  12.534  67.217  1.00  0.00    -0.204 C  
HETATM   14  C   UNL     1      -8.723  13.180  67.215  1.00  0.00    -0.210 C  
HETATM   15  C   UNL     1      -8.569  14.645  66.959  1.00  0.00    -0.249 C  
ENDBRANCH   5  13
ENDBRANCH   2   3
TORSDOF 3
ENDMDL
MODEL      235
REMARK 921   NORMALIZED FREE ENERGY PREDICTED BY IDOCK:   -1.70 KCAL/MOL
REMARK 922        TOTAL FREE ENERGY PREDICTED BY IDOCK:   -2.56 KCAL/MOL
REMARK 923 INTER-LIGAND FREE ENERGY PREDICTED BY IDOCK:   -2.07 KCAL/MOL
REMARK 924 INTRA-LIGAND FREE ENERGY PREDICTED BY IDOCK:   -0.49 KCAL/MOL
REMARK 927      BINDING AFFINITY PREDICTED BY RF-SCORE:    0.00 PKD
ROOT
HETATM    1  C   UNL     1     -10.365   9.324  66.346  1.00  0.00    -0.238 C  
HETATM    2  C   UNL     1     -10.239   8.046  67.164  1.00  0.00    -0.292 C  
ENDROOT
BRANCH   2   3
HETATM    3  N   UNL     1      -8.951   7.419  67.521  1.00  0.00    -0.126 N  
HETATM    4  O   UNL     1      -6.950   6.465  66.739  1.00  0.00    -0.064 OA 
HETATM    5  C   UNL     1      -8.171   6.629  66.655  1.00  0.00    -0.112 C  
BRANCH   3   6
HETATM    6  C   UNL     1      -8.360   7.833  68.814  1.00  0.00    -0.128 A  
HETATM    7  C   UNL     1      -7.471   8.931  68.808  1.00  0.00    -0.083 A  
HETATM    8  C   UNL     1      -9.515   6.059  70.365  1.00  0.00    -0.187 C  
HETATM    9  C   UNL     1      -8.557   7.186  70.072  1.00  0.00    -0.141 A  
HETATM   10  C   UNL     1      -6.808   9.385  69.958  1.00  0.00    -0.067 A  
HETATM   11  C   UNL     1      -6.995   8.740  71.162  1.00  0.00    -0.082 A  
HETATM   12  C   UNL     1      -7.859   7.653  71.216  1.00  0.00    -0.090 A  
ENDBRANCH   3   6
BRANCH   5  13
HETATM   13  C   UNL     1      -8.859   5.889  65.566  1.00  0.00    -0.100 C  
HETATM   14  C   UNL     1      -9.369   4.666  65.791  1.00  0.00    -0.158 C  
HETATM   15  C   UNL     1     -10.070   3.844  64.757  1.00  0.00    -0.203 C  
ENDBRANCH   5  13
ENDBRANCH   2   3
TORSDOF 3
ENDMDL
MODEL      236
REMARK 921   NORMALIZED FREE ENERGY PREDICTED BY IDOCK:   -1.69 KCAL/MOL
REMARK 922        TOTAL FREE ENERGY PREDICTED BY IDOCK:   -2.54 KCAL/MOL
REMARK 923 INTER-LIGAND FREE ENERGY PREDICTED BY IDOCK:   -1.91 KCAL/MOL
REMARK 924 INTRA-LIGAND FREE ENERGY PREDICTED BY IDOCK:   -0.63 KCAL/MOL
REMARK 927      BINDING AFFINITY PREDICTED BY RF-SCORE:    0.00 PKD
ROOT
HETATM    1  C   UNL     1     -10.783   7.475  67.126  1.00  0.00    -0.379 C  
HETATM    2  C   UNL     1      -9.502   7.740  66.346  1.00  0.00    -0.180 C  
ENDROOT
BRANCH   2   3
HETATM    3  N   UNL     1      -8.416   6.753  66.183  1.00  0.00    -0.130 N  
HETATM    4  O   UNL     1      -6.898   5.312  67.251  1.00  0.00    -0.057 OA 
HETATM    5  C   UNL     1      -7.501   6.388  67.188  1.00  0.00    -0.084 C  
BRANCH   3   6
HETATM    6  C   UNL     1      -8.441   5.957  64.935  1.00  0.00    -0.085 A  
HETATM    7  C   UNL     1      -7.805   6.500  63.795  1.00  0.00    -0.107 A  
HETATM    8  C   UNL     1      -9.774   3.876  65.817  1.00  0.00    -0.169 C  
HETATM    9  C   UNL     1      -9.105   4.705  64.751  1.00  0.00    -0.149 A  
HETATM   10  C   UNL     1      -7.806   5.868  62.544  1.00  0.00    -0.089 A  
HETATM   11  C   UNL     1      -8.464   4.668  62.377  1.00  0.00    -0.101 A  
HETATM   12  C   UNL     1      -9.106   4.096  63.468  1.00  0.00    -0.132 A  
ENDBRANCH   3   6
BRANCH   5  13
HETATM   13  C   UNL     1      -7.187   7.380  68.248  1.00  0.00    -0.090 C  
HETATM   14  C   UNL     1      -7.554   7.155  69.521  1.00  0.00    -0.101 C  
HETATM   15  C   UNL     1      -7.289   8.098  70.651  1.00  0.00    -0.053 C  
ENDBRANCH   5  13
ENDBRANCH   2   3
TORSDOF 3
ENDMDL
MODEL      237
REMARK 921   NORMALIZED FREE ENERGY PREDICTED BY IDOCK:   -1.68 KCAL/MOL
REMARK 922        TOTAL FREE ENERGY PREDICTED BY IDOCK:   -2.53 KCAL/MOL
REMARK 923 INTER-LIGAND FREE ENERGY PREDICTED BY IDOCK:   -2.03 KCAL/MOL
REMARK 924 INTRA-LIGAND FREE ENERGY PREDICTED BY IDOCK:   -0.50 KCAL/MOL
REMARK 927      BINDING AFFINITY PREDICTED BY RF-SCORE:    0.00 PKD
ROOT
HETATM    1  C   UNL     1      -8.504   3.481  69.988  1.00  0.00    -0.092 C  
HETATM    2  C   UNL     1      -7.668   4.660  70.468  1.00  0.00    -0.054 C  
ENDROOT
BRANCH   2   3
HETATM    3  N   UNL     1      -8.128   6.063  70.442  1.00  0.00    -0.110 N  
HETATM    4  O   UNL     1      -8.584   8.001  71.690  1.00  0.00    -0.112 OA 
HETATM    5  C   UNL     1      -8.610   6.774  71.557  1.00  0.00    -0.120 C  
BRANCH   3   6
HETATM    6  C   UNL     1      -7.863   6.813  69.194  1.00  0.00    -0.111 A  
HETATM    7  C   UNL     1      -6.527   6.876  68.736  1.00  0.00    -0.036 A  
HETATM    8  C   UNL     1     -10.318   7.560  68.647  1.00  0.00    -0.218 C  
HETATM    9  C   UNL     1      -8.827   7.538  68.429  1.00  0.00    -0.126 A  
HETATM   10  C   UNL     1      -6.141   7.598  67.598  1.00  0.00    -0.048 A  
HETATM   11  C   UNL     1      -7.079   8.307  66.879  1.00  0.00    -0.078 A  
HETATM   12  C   UNL     1      -8.406   8.277  67.292  1.00  0.00    -0.124 A  
ENDBRANCH   3   6
BRANCH   5  13
HETATM   13  C   UNL     1      -9.244   6.008  72.660  1.00  0.00    -0.143 C  
HETATM   14  C   UNL     1     -10.467   5.471  72.501  1.00  0.00    -0.260 C  
HETATM   15  C   UNL     1     -11.186   4.693  73.555  1.00  0.00    -0.400 C  
ENDBRANCH   5  13
ENDBRANCH   2   3
TORSDOF 3
ENDMDL
MODEL      238
REMARK 921   NORMALIZED FREE ENERGY PREDICTED BY IDOCK:   -1.58 KCAL/MOL
REMARK 922        TOTAL FREE ENERGY PREDICTED BY IDOCK:   -2.41 KCAL/MOL
REMARK 923 INTER-LIGAND FREE ENERGY PREDICTED BY IDOCK:   -2.06 KCAL/MOL
REMARK 924 INTRA-LIGAND FREE ENERGY PREDICTED BY IDOCK:   -0.35 KCAL/MOL
REMARK 927      BINDING AFFINITY PREDICTED BY RF-SCORE:    0.00 PKD
ROOT
HETATM    1  C   UNL     1      -9.989   9.670  65.705  1.00  0.00    -0.342 C  
HETATM    2  C   UNL     1      -9.592   8.590  66.704  1.00  0.00    -0.227 C  
ENDROOT
BRANCH   2   3
HETATM    3  N   UNL     1      -8.253   8.488  67.318  1.00  0.00    -0.108 N  
HETATM    4  O   UNL     1      -6.222   7.309  67.411  1.00  0.00    -0.046 OA 
HETATM    5  C   UNL     1      -7.454   7.330  67.320  1.00  0.00    -0.099 C  
BRANCH   3   6
HETATM    6  C   UNL     1      -7.647   9.759  67.776  1.00  0.00    -0.090 A  
HETATM    7  C   UNL     1      -7.024  10.577  66.806  1.00  0.00    -0.104 A  
HETATM    8  C   UNL     1      -8.233   9.583  70.328  1.00  0.00    -0.209 C  
HETATM    9  C   UNL     1      -7.577  10.216  69.127  1.00  0.00    -0.103 A  
HETATM   10  C   UNL     1      -6.370  11.776  67.122  1.00  0.00    -0.145 A  
HETATM   11  C   UNL     1      -6.296  12.197  68.433  1.00  0.00    -0.054 A  
HETATM   12  C   UNL     1      -6.892  11.425  69.422  1.00  0.00    -0.112 A  
ENDBRANCH   3   6
BRANCH   5  13
HETATM   13  C   UNL     1      -8.129   6.008  67.250  1.00  0.00    -0.106 C  
HETATM   14  C   UNL     1      -8.730   5.492  68.337  1.00  0.00    -0.105 C  
HETATM   15  C   UNL     1      -9.426   4.169  68.363  1.00  0.00    -0.212 C  
ENDBRANCH   5  13
ENDBRANCH   2   3
TORSDOF 3
ENDMDL
MODEL      239
REMARK 921   NORMALIZED FREE ENERGY PREDICTED BY IDOCK:   -1.54 KCAL/MOL
REMARK 922        TOTAL FREE ENERGY PREDICTED BY IDOCK:   -2.36 KCAL/MOL
REMARK 923 INTER-LIGAND FREE ENERGY PREDICTED BY IDOCK:   -2.39 KCAL/MOL
REMARK 924 INTRA-LIGAND FREE ENERGY PREDICTED BY IDOCK:    0.03 KCAL/MOL
REMARK 927      BINDING AFFINITY PREDICTED BY RF-SCORE:    0.00 PKD
ROOT
HETATM    1  C   UNL     1      -7.149  12.432  67.497  1.00  0.00    -0.145 C  
HETATM    2  C   UNL     1      -7.329  11.099  66.783  1.00  0.00    -0.146 C  
ENDROOT
BRANCH   2   3
HETATM    3  N   UNL     1      -8.502  10.220  66.959  1.00  0.00    -0.129 N  
HETATM    4  O   UNL     1     -10.835  10.003  66.784  1.00  0.00    -0.140 OA 
HETATM    5  C   UNL     1      -9.832  10.664  67.072  1.00  0.00    -0.185 C  
BRANCH   3   6
HETATM    6  C   UNL     1      -8.258   8.768  66.797  1.00  0.00    -0.108 A  
HETATM    7  C   UNL     1      -8.156   7.984  67.969  1.00  0.00    -0.129 A  
HETATM    8  C   UNL     1      -8.198   8.665  64.176  1.00  0.00    -0.156 C  
HETATM    9  C   UNL     1      -8.055   8.085  65.559  1.00  0.00    -0.128 A  
HETATM   10  C   UNL     1      -7.875   6.610  67.947  1.00  0.00    -0.112 A  
HETATM   11  C   UNL     1      -7.665   5.967  66.746  1.00  0.00    -0.100 A  
HETATM   12  C   UNL     1      -7.753   6.697  65.568  1.00  0.00    -0.097 A  
ENDBRANCH   3   6
BRANCH   5  13
HETATM   13  C   UNL     1     -10.077  12.023  67.620  1.00  0.00    -0.205 C  
HETATM   14  C   UNL     1     -10.867  12.889  66.963  1.00  0.00    -0.282 C  
HETATM   15  C   UNL     1     -11.164  14.277  67.432  1.00  0.00    -0.330 C  
ENDBRANCH   5  13
ENDBRANCH   2   3
TORSDOF 3
ENDMDL
MODEL      240
REMARK 921   NORMALIZED FREE ENERGY PREDICTED BY IDOCK:   -1.53 KCAL/MOL
REMARK 922        TOTAL FREE ENERGY PREDICTED BY IDOCK:   -2.35 KCAL/MOL
REMARK 923 INTER-LIGAND FREE ENERGY PREDICTED BY IDOCK:   -2.51 KCAL/MOL
REMARK 924 INTRA-LIGAND FREE ENERGY PREDICTED BY IDOCK:    0.16 KCAL/MOL
REMARK 927      BINDING AFFINITY PREDICTED BY RF-SCORE:    0.00 PKD
ROOT
HETATM    1  C   UNL     1     -10.183  11.614  68.002  1.00  0.00    -0.202 C  
HETATM    2  C   UNL     1      -9.720  11.144  66.629  1.00  0.00    -0.196 C  
ENDROOT
BRANCH   2   3
HETATM    3  N   UNL     1      -9.313   9.757  66.326  1.00  0.00    -0.169 N  
HETATM    4  O   UNL     1      -9.887   7.480  66.418  1.00  0.00    -0.176 OA 
HETATM    5  C   UNL     1      -9.863   8.608  66.922  1.00  0.00    -0.238 C  
BRANCH   3   6
HETATM    6  C   UNL     1      -8.412   9.581  65.165  1.00  0.00    -0.149 A  
HETATM    7  C   UNL     1      -8.979   9.671  63.873  1.00  0.00    -0.254 A  
HETATM    8  C   UNL     1      -6.162   9.203  66.461  1.00  0.00    -0.065 C  
HETATM    9  C   UNL     1      -7.020   9.267  65.223  1.00  0.00    -0.089 A  
HETATM   10  C   UNL     1      -8.240   9.471  62.698  1.00  0.00    -0.150 A  
HETATM   11  C   UNL     1      -6.901   9.152  62.770  1.00  0.00    -0.092 A  
HETATM   12  C   UNL     1      -6.300   9.050  64.018  1.00  0.00    -0.083 A  
ENDBRANCH   3   6
BRANCH   5  13
HETATM   13  C   UNL     1     -10.431   8.727  68.290  1.00  0.00    -0.236 C  
HETATM   14  C   UNL     1      -9.659   8.510  69.369  1.00  0.00    -0.170 C  
HETATM   15  C   UNL     1     -10.143   8.599  70.780  1.00  0.00    -0.244 C  
ENDBRANCH   5  13
ENDBRANCH   2   3
TORSDOF 3
ENDMDL
MODEL      241
REMARK 921   NORMALIZED FREE ENERGY PREDICTED BY IDOCK:   -1.51 KCAL/MOL
REMARK 922        TOTAL FREE ENERGY PREDICTED BY IDOCK:   -2.33 KCAL/MOL
REMARK 923 INTER-LIGAND FREE ENERGY PREDICTED BY IDOCK:   -1.62 KCAL/MOL
REMARK 924 INTRA-LIGAND FREE ENERGY PREDICTED BY IDOCK:   -0.71 KCAL/MOL
REMARK 927      BINDING AFFINITY PREDICTED BY RF-SCORE:    0.00 PKD
ROOT
HETATM    1  C   UNL     1     -10.733   4.698  65.814  1.00  0.00    -0.195 C  
HETATM    2  C   UNL     1      -9.344   4.591  66.428  1.00  0.00    -0.151 C  
ENDROOT
BRANCH   2   3
HETATM    3  N   UNL     1      -8.169   5.343  65.944  1.00  0.00    -0.115 N  
HETATM    4  O   UNL     1      -6.529   6.952  66.440  1.00  0.00    -0.047 OA 
HETATM    5  C   UNL     1      -7.692   6.542  66.505  1.00  0.00    -0.099 C  
BRANCH   3   6
HETATM    6  C   UNL     1      -7.331   4.662  64.931  1.00  0.00    -0.071 A  
HETATM    7  C   UNL     1      -6.487   3.617  65.370  1.00  0.00    -0.032 A  
HETATM    8  C   UNL     1      -8.095   6.008  62.812  1.00  0.00    -0.097 C  
HETATM    9  C   UNL     1      -7.246   5.002  63.546  1.00  0.00    -0.049 A  
HETATM   10  C   UNL     1      -5.610   2.932  64.517  1.00  0.00    -0.010 A  
HETATM   11  C   UNL     1      -5.527   3.282  63.186  1.00  0.00    -0.009 A  
HETATM   12  C   UNL     1      -6.335   4.306  62.708  1.00  0.00    -0.022 A  
ENDBRANCH   3   6
BRANCH   5  13
HETATM   13  C   UNL     1      -8.661   7.426  67.204  1.00  0.00    -0.118 C  
HETATM   14  C   UNL     1      -9.422   8.287  66.506  1.00  0.00    -0.284 C  
HETATM   15  C   UNL     1     -10.416   9.219  67.122  1.00  0.00    -0.319 C  
ENDBRANCH   5  13
ENDBRANCH   2   3
TORSDOF 3
ENDMDL
MODEL      242
REMARK 921   NORMALIZED FREE ENERGY PREDICTED BY IDOCK:   -0.41 KCAL/MOL
REMARK 922        TOTAL FREE ENERGY PREDICTED BY IDOCK:   -1.03 KCAL/MOL
REMARK 923 INTER-LIGAND FREE ENERGY PREDICTED BY IDOCK:   -1.40 KCAL/MOL
REMARK 924 INTRA-LIGAND FREE ENERGY PREDICTED BY IDOCK:    0.37 KCAL/MOL
REMARK 927      BINDING AFFINITY PREDICTED BY RF-SCORE:    0.00 PKD
ROOT
HETATM    1  C   UNL     1      -7.746   9.890  69.408  1.00  0.00    -0.119 C  
HETATM    2  C   UNL     1      -6.934  11.178  69.393  1.00  0.00    -0.124 C  
ENDROOT
BRANCH   2   3
HETATM    3  N   UNL     1      -7.519  12.519  69.189  1.00  0.00     0.094 N  
HETATM    4  O   UNL     1      -9.483  13.800  69.035  1.00  0.00     0.017 OA 
HETATM    5  C   UNL     1      -8.848  12.767  68.798  1.00  0.00     0.184 C  
BRANCH   3   6
HETATM    6  C   UNL     1      -6.691  13.665  69.629  1.00  0.00     0.011 A  
HETATM    7  C   UNL     1      -6.112  13.600  70.917  1.00  0.00    -0.019 A  
HETATM    8  C   UNL     1      -6.895  15.154  67.479  1.00  0.00    -0.203 C  
HETATM    9  C   UNL     1      -6.469  14.870  68.896  1.00  0.00    -0.088 A  
HETATM   10  C   UNL     1      -5.353  14.643  71.467  1.00  0.00    -0.129 A  
HETATM   11  C   UNL     1      -5.159  15.807  70.755  1.00  0.00    -0.178 A  
HETATM   12  C   UNL     1      -5.712  15.918  69.485  1.00  0.00    -0.129 A  
ENDBRANCH   3   6
BRANCH   5  13
HETATM   13  C   UNL     1      -9.551  11.733  67.997  1.00  0.00    -0.187 C  
HETATM   14  C   UNL     1      -9.519  11.774  66.654  1.00  0.00    -0.215 C  
HETATM   15  C   UNL     1     -10.202  10.783  65.767  1.00  0.00    -0.319 C  
ENDBRANCH   5  13
ENDBRANCH   2   3
TORSDOF 3
ENDMDL
MODEL      243
REMARK 921   NORMALIZED FREE ENERGY PREDICTED BY IDOCK:    0.91 KCAL/MOL
REMARK 922        TOTAL FREE ENERGY PREDICTED BY IDOCK:    0.51 KCAL/MOL
REMARK 923 INTER-LIGAND FREE ENERGY PREDICTED BY IDOCK:   -1.52 KCAL/MOL
REMARK 924 INTRA-LIGAND FREE ENERGY PREDICTED BY IDOCK:    2.03 KCAL/MOL
REMARK 927      BINDING AFFINITY PREDICTED BY RF-SCORE:    0.00 PKD
ROOT
HETATM    1  C   UNL     1      -5.487  15.185  69.626  1.00  0.00    -0.094 C  
HETATM    2  C   UNL     1      -6.701  15.869  69.012  1.00  0.00    -0.151 C  
ENDROOT
BRANCH   2   3
HETATM    3  N   UNL     1      -7.650  15.200  68.099  1.00  0.00    -0.107 N  
HETATM    4  O   UNL     1      -8.444  15.002  65.896  1.00  0.00     0.410 OA 
HETATM    5  C   UNL     1      -8.035  15.689  66.837  1.00  0.00    -0.243 C  
BRANCH   3   6
HETATM    6  C   UNL     1      -8.052  13.824  68.470  1.00  0.00    -0.128 A  
HETATM    7  C   UNL     1      -7.072  12.988  69.052  1.00  0.00    -0.026 A  
HETATM    8  C   UNL     1     -10.564  13.926  67.720  1.00  0.00    -0.248 C  
HETATM    9  C   UNL     1      -9.331  13.232  68.239  1.00  0.00    -0.205 A  
HETATM   10  C   UNL     1      -7.314  11.651  69.397  1.00  0.00     0.093 A  
HETATM   11  C   UNL     1      -8.549  11.088  69.153  1.00  0.00    -0.009 A  
HETATM   12  C   UNL     1      -9.544  11.870  68.580  1.00  0.00    -0.101 A  
ENDBRANCH   3   6
BRANCH   5  13
HETATM   13  C   UNL     1      -7.993  17.157  66.608  1.00  0.00    -0.300 C  
HETATM   14  C   UNL     1      -7.004  17.900  67.135  1.00  0.00    -0.202 C  
HETATM   15  C   UNL     1      -6.884  19.380  66.965  1.00  0.00    -0.206 C  
ENDBRANCH   5  13
ENDBRANCH   2   3
TORSDOF 3
ENDMDL
MODEL      244
REMARK 921   NORMALIZED FREE ENERGY PREDICTED BY IDOCK:    7.87 KCAL/MOL
REMARK 922        TOTAL FREE ENERGY PREDICTED BY IDOCK:    8.70 KCAL/MOL
REMARK 923 INTER-LIGAND FREE ENERGY PREDICTED BY IDOCK:    4.85 KCAL/MOL
REMARK 924 INTRA-LIGAND FREE ENERGY PREDICTED BY IDOCK:    3.85 KCAL/MOL
REMARK 927      BINDING AFFINITY PREDICTED BY RF-SCORE:    0.00 PKD
ROOT
HETATM    1  C   UNL     1      -5.454  15.118  69.757  1.00  0.00    -0.105 C  
HETATM    2  C   UNL     1      -6.958  15.338  69.663  1.00  0.00    -0.188 C  
ENDROOT
BRANCH   2   3
HETATM    3  N   UNL     1      -7.928  14.276  69.326  1.00  0.00     0.044 N  
HETATM    4  O   UNL     1      -9.484  13.466  67.763  1.00  0.00    -0.196 OA 
HETATM    5  C   UNL     1      -8.961  14.400  68.378  1.00  0.00    -0.188 C  
BRANCH   3   6
HETATM    6  C   UNL     1      -7.645  12.934  69.884  1.00  0.00     1.496 A  
HETATM    7  C   UNL     1      -6.378  12.721  70.472  1.00  0.00     0.379 A  
HETATM    8  C   UNL     1      -9.941  11.786  69.343  1.00  0.00     0.456 C  
HETATM    9  C   UNL     1      -8.516  11.803  69.831  1.00  0.00     2.112 A  
HETATM   10  C   UNL     1      -5.972  11.481  70.987  1.00  0.00     0.297 A  
HETATM   11  C   UNL     1      -6.817  10.394  70.915  1.00  0.00     0.467 A  
HETATM   12  C   UNL     1      -8.073  10.555  70.343  1.00  0.00     0.975 A  
ENDBRANCH   3   6
BRANCH   5  13
HETATM   13  C   UNL     1      -9.513  15.753  68.111  1.00  0.00    -0.199 C  
HETATM   14  C   UNL     1      -8.716  16.834  68.157  1.00  0.00    -0.219 C  
HETATM   15  C   UNL     1      -9.182  18.233  67.910  1.00  0.00    -0.284 C  
ENDBRANCH   5  13
ENDBRANCH   2   3
TORSDOF 3
ENDMDL
MODEL      245
REMARK 921   NORMALIZED FREE ENERGY PREDICTED BY IDOCK:   33.29 KCAL/MOL
REMARK 922        TOTAL FREE ENERGY PREDICTED BY IDOCK:   38.58 KCAL/MOL
REMARK 923 INTER-LIGAND FREE ENERGY PREDICTED BY IDOCK:   39.18 KCAL/MOL
REMARK 924 INTRA-LIGAND FREE ENERGY PREDICTED BY IDOCK:   -0.60 KCAL/MOL
REMARK 927      BINDING AFFINITY PREDICTED BY RF-SCORE:    0.00 PKD
ROOT
HETATM    1  C   UNL     1      -9.775  20.831  69.834  1.00  0.00     1.276 C  
HETATM    2  C   UNL     1      -9.551  19.641  68.911  1.00  0.00    -0.350 C  
ENDROOT
BRANCH   2   3
HETATM    3  N   UNL     1      -8.885  18.390  69.325  1.00  0.00     0.133 N  
HETATM    4  O   UNL     1      -7.871  16.386  68.634  1.00  0.00    -0.186 OA 
HETATM    5  C   UNL     1      -8.753  17.243  68.520  1.00  0.00    -0.273 C  
BRANCH   3   6
HETATM    6  C   UNL     1      -8.135  18.442  70.600  1.00  0.00     4.125 A  
HETATM    7  C   UNL     1      -8.801  18.020  71.773  1.00  0.00    12.258 A  
HETATM    8  C   UNL     1      -5.855  19.362  69.683  1.00  0.00    -0.281 C  
HETATM    9  C   UNL     1      -6.807  18.939  70.772  1.00  0.00     1.344 A  
HETATM   10  C   UNL     1      -8.216  18.072  73.046  1.00  0.00    13.921 A  
HETATM   11  C   UNL     1      -6.939  18.569  73.200  1.00  0.00     6.486 A  
HETATM   12  C   UNL     1      -6.245  18.999  72.075  1.00  0.00     1.110 A  
ENDBRANCH   3   6
BRANCH   5  13
HETATM   13  C   UNL     1      -9.772  17.000  67.467  1.00  0.00    -0.251 C  
HETATM   14  C   UNL     1     -10.557  15.910  67.518  1.00  0.00    -0.315 C  
HETATM   15  C   UNL     1     -11.602  15.580  66.501  1.00  0.00     0.182 C  
ENDBRANCH   5  13
ENDBRANCH   2   3
TORSDOF 3
ENDMDL
