MODEL        1
REMARK 921   NORMALIZED FREE ENERGY PREDICTED BY IDOCK:   -7.05 KCAL/MOL
REMARK 922        TOTAL FREE ENERGY PREDICTED BY IDOCK:  -11.89 KCAL/MOL
REMARK 923 INTER-LIGAND FREE ENERGY PREDICTED BY IDOCK:  -10.35 KCAL/MOL
REMARK 924 INTRA-LIGAND FREE ENERGY PREDICTED BY IDOCK:   -1.55 KCAL/MOL
REMARK 927      BINDING AFFINITY PREDICTED BY RF-SCORE:    0.00 PKD
ROOT
HETATM    1  C   UNL     1     -11.696  15.967  68.952  1.00  0.00    -0.370 C  
HETATM    2  O   UNL     1     -12.367  15.930  70.209  1.00  0.00    -0.351 OA 
ENDROOT
BRANCH   2   3
HETATM    3  C   UNL     1     -12.630  14.671  70.690  1.00  0.00    -0.357 A  
HETATM    4  C   UNL     1     -12.129  13.506  70.101  1.00  0.00    -0.425 A  
HETATM    5  C   UNL     1     -12.457  12.239  70.600  1.00  0.00    -0.323 A  
HETATM    6  C   UNL     1     -13.228  12.155  71.766  1.00  0.00    -0.423 A  
HETATM    7  H   UNL     1     -14.421  15.625  73.228  1.00  0.00     0.000 HD 
HETATM    8  O   UNL     1     -13.893  15.697  72.441  1.00  0.00    -0.515 OA 
HETATM    9  C   UNL     1     -13.700  13.314  72.392  1.00  0.00    -0.678 A  
HETATM   10  C   UNL     1     -13.406  14.564  71.848  1.00  0.00    -0.365 A  
BRANCH   5  11
HETATM   11  C   UNL     1     -11.984  11.009  69.949  1.00  0.00    -0.427 C  
HETATM   12  C   UNL     1     -11.017  10.227  70.458  1.00  0.00    -0.343 C  
BRANCH  12  13
HETATM   13  C   UNL     1     -10.565   9.003  69.736  1.00  0.00    -0.228 C  
HETATM   14  O   UNL     1     -11.059   7.901  69.976  1.00  0.00    -0.241 OA 
BRANCH  13  15
HETATM   15  C   UNL     1      -9.500   9.163  68.687  1.00  0.00    -0.145 C  
BRANCH  15  16
HETATM   16  C   UNL     1     -10.061   9.341  67.304  1.00  0.00    -0.231 C  
HETATM   17  O   UNL     1     -10.644   8.420  66.733  1.00  0.00    -0.295 OA 
BRANCH  16  18
HETATM   18  C   UNL     1      -9.930  10.690  66.678  1.00  0.00    -0.259 C  
HETATM   19  C   UNL     1     -11.033  11.370  66.331  1.00  0.00    -0.315 C  
BRANCH  19  20
HETATM   20  C   UNL     1     -11.056  12.725  65.755  1.00  0.00    -0.316 A  
HETATM   21  C   UNL     1     -10.060  13.680  66.028  1.00  0.00    -0.320 A  
HETATM   22  C   UNL     1     -10.172  14.986  65.538  1.00  0.00    -0.378 A  
HETATM   23  C   UNL     1     -12.166  13.102  64.982  1.00  0.00    -0.488 A  
HETATM   24  C   UNL     1     -11.288  15.326  64.770  1.00  0.00    -0.391 A  
HETATM   25  H   UNL     1     -12.194  16.831  63.769  1.00  0.00     0.000 HD 
HETATM   26  O   UNL     1     -11.435  16.600  64.291  1.00  0.00    -1.075 OA 
HETATM   27  C   UNL     1     -12.281  14.400  64.483  1.00  0.00    -0.483 A  
BRANCH  22  28
HETATM   28  O   UNL     1      -9.281  16.004  65.753  1.00  0.00    -0.356 OA 
HETATM   29  C   UNL     1      -8.163  15.716  66.583  1.00  0.00    -0.249 C  
ENDBRANCH  22  28
ENDBRANCH  19  20
ENDBRANCH  16  18
ENDBRANCH  15  16
ENDBRANCH  13  15
ENDBRANCH  12  13
ENDBRANCH   5  11
ENDBRANCH   2   3
TORSDOF 8
ENDMDL
MODEL        2
REMARK 921   NORMALIZED FREE ENERGY PREDICTED BY IDOCK:   -6.85 KCAL/MOL
REMARK 922        TOTAL FREE ENERGY PREDICTED BY IDOCK:  -11.60 KCAL/MOL
REMARK 923 INTER-LIGAND FREE ENERGY PREDICTED BY IDOCK:   -9.90 KCAL/MOL
REMARK 924 INTRA-LIGAND FREE ENERGY PREDICTED BY IDOCK:   -1.70 KCAL/MOL
REMARK 927      BINDING AFFINITY PREDICTED BY RF-SCORE:    0.00 PKD
ROOT
HETATM    1  C   UNL     1     -11.426  11.120  69.023  1.00  0.00    -0.296 C  
HETATM    2  O   UNL     1     -11.984  11.485  70.283  1.00  0.00    -0.333 OA 
ENDROOT
BRANCH   2   3
HETATM    3  C   UNL     1     -12.231  12.826  70.442  1.00  0.00    -0.293 A  
HETATM    4  C   UNL     1     -11.681  13.809  69.614  1.00  0.00    -0.379 A  
HETATM    5  C   UNL     1     -11.927  15.170  69.838  1.00  0.00    -0.372 A  
HETATM    6  C   UNL     1     -12.816  15.534  70.858  1.00  0.00    -0.535 A  
HETATM    7  H   UNL     1     -14.258  12.519  72.964  1.00  0.00     0.000 HD 
HETATM    8  O   UNL     1     -13.662  12.258  72.271  1.00  0.00    -0.400 OA 
HETATM    9  C   UNL     1     -13.408  14.558  71.667  1.00  0.00    -0.441 A  
HETATM   10  C   UNL     1     -13.108  13.211  71.461  1.00  0.00    -0.315 A  
BRANCH   5  11
HETATM   11  C   UNL     1     -11.303  16.212  69.009  1.00  0.00    -0.340 C  
HETATM   12  C   UNL     1     -10.308  17.004  69.441  1.00  0.00    -0.230 C  
BRANCH  12  13
HETATM   13  C   UNL     1      -9.732  18.058  68.558  1.00  0.00    -0.352 C  
HETATM   14  O   UNL     1     -10.317  19.127  68.375  1.00  0.00    -0.390 OA 
BRANCH  13  15
HETATM   15  C   UNL     1      -8.402  17.782  67.914  1.00  0.00    -0.241 C  
BRANCH  15  16
HETATM   16  C   UNL     1      -8.494  17.618  66.423  1.00  0.00    -0.246 C  
HETATM   17  O   UNL     1      -7.683  18.162  65.674  1.00  0.00    -0.532 OA 
BRANCH  16  18
HETATM   18  C   UNL     1      -9.571  16.729  65.896  1.00  0.00    -0.211 C  
HETATM   19  C   UNL     1      -9.423  15.397  65.963  1.00  0.00    -0.381 C  
BRANCH  19  20
HETATM   20  C   UNL     1     -10.421  14.403  65.531  1.00  0.00    -0.366 A  
HETATM   21  C   UNL     1     -10.121  13.380  64.614  1.00  0.00    -0.256 A  
HETATM   22  C   UNL     1     -11.122  12.517  64.156  1.00  0.00    -0.376 A  
HETATM   23  C   UNL     1     -11.743  14.546  65.982  1.00  0.00    -0.347 A  
HETATM   24  C   UNL     1     -12.427  12.686  64.628  1.00  0.00    -0.466 A  
HETATM   25  H   UNL     1     -14.319  11.984  64.507  1.00  0.00     0.000 HD 
HETATM   26  O   UNL     1     -13.432  11.870  64.186  1.00  0.00    -0.591 OA 
HETATM   27  C   UNL     1     -12.746  13.685  65.537  1.00  0.00    -0.514 A  
BRANCH  22  28
HETATM   28  O   UNL     1     -10.957  11.500  63.253  1.00  0.00    -0.351 OA 
HETATM   29  C   UNL     1      -9.625  11.209  62.850  1.00  0.00    -0.348 C  
ENDBRANCH  22  28
ENDBRANCH  19  20
ENDBRANCH  16  18
ENDBRANCH  15  16
ENDBRANCH  13  15
ENDBRANCH  12  13
ENDBRANCH   5  11
ENDBRANCH   2   3
TORSDOF 8
ENDMDL
MODEL        3
REMARK 921   NORMALIZED FREE ENERGY PREDICTED BY IDOCK:   -6.81 KCAL/MOL
REMARK 922        TOTAL FREE ENERGY PREDICTED BY IDOCK:  -11.53 KCAL/MOL
REMARK 923 INTER-LIGAND FREE ENERGY PREDICTED BY IDOCK:  -10.15 KCAL/MOL
REMARK 924 INTRA-LIGAND FREE ENERGY PREDICTED BY IDOCK:   -1.39 KCAL/MOL
REMARK 927      BINDING AFFINITY PREDICTED BY RF-SCORE:    0.00 PKD
ROOT
HETATM    1  C   UNL     1     -11.962  16.039  71.709  1.00  0.00    -0.517 C  
HETATM    2  O   UNL     1     -12.979  15.334  71.002  1.00  0.00    -0.395 OA 
ENDROOT
BRANCH   2   3
HETATM    3  C   UNL     1     -12.659  14.045  70.655  1.00  0.00    -0.344 A  
HETATM    4  C   UNL     1     -11.898  13.723  69.527  1.00  0.00    -0.394 A  
HETATM    5  C   UNL     1     -11.630  12.390  69.187  1.00  0.00    -0.369 A  
HETATM    6  C   UNL     1     -12.060  11.376  70.051  1.00  0.00    -0.417 A  
HETATM    7  H   UNL     1     -14.115  12.620  73.187  1.00  0.00     0.000 HD 
HETATM    8  O   UNL     1     -13.823  13.319  72.613  1.00  0.00    -0.712 OA 
HETATM    9  C   UNL     1     -12.785  11.687  71.207  1.00  0.00    -0.444 A  
HETATM   10  C   UNL     1     -13.087  13.017  71.499  1.00  0.00    -0.310 A  
BRANCH   5  11
HETATM   11  C   UNL     1     -10.882  12.043  67.969  1.00  0.00    -0.254 C  
HETATM   12  C   UNL     1     -11.468  11.813  66.782  1.00  0.00    -0.352 C  
BRANCH  12  13
HETATM   13  C   UNL     1     -10.654  11.442  65.589  1.00  0.00    -0.258 C  
HETATM   14  O   UNL     1     -10.244  10.292  65.429  1.00  0.00    -0.297 OA 
BRANCH  13  15
HETATM   15  C   UNL     1     -10.370  12.515  64.575  1.00  0.00    -0.362 C  
BRANCH  15  16
HETATM   16  C   UNL     1     -11.540  13.431  64.347  1.00  0.00    -0.384 C  
HETATM   17  O   UNL     1     -12.438  13.129  63.562  1.00  0.00    -0.714 OA 
BRANCH  16  18
HETATM   18  C   UNL     1     -11.591  14.689  65.149  1.00  0.00    -0.371 C  
HETATM   19  C   UNL     1     -10.476  15.146  65.739  1.00  0.00    -0.355 C  
BRANCH  19  20
HETATM   20  C   UNL     1     -10.369  16.394  66.514  1.00  0.00    -0.306 A  
HETATM   21  C   UNL     1      -9.887  17.591  65.956  1.00  0.00    -0.195 A  
HETATM   22  C   UNL     1      -9.709  18.728  66.752  1.00  0.00    -0.329 A  
HETATM   23  C   UNL     1     -10.671  16.356  67.885  1.00  0.00    -0.332 A  
HETATM   24  C   UNL     1     -10.022  18.655  68.112  1.00  0.00    -0.358 A  
HETATM   25  H   UNL     1     -10.056  19.695  69.845  1.00  0.00     0.000 HD 
HETATM   26  O   UNL     1      -9.843  19.744  68.921  1.00  0.00    -0.410 OA 
HETATM   27  C   UNL     1     -10.505  17.486  68.684  1.00  0.00    -0.338 A  
BRANCH  22  28
HETATM   28  O   UNL     1      -9.230  19.939  66.329  1.00  0.00    -0.371 OA 
HETATM   29  C   UNL     1      -7.890  19.969  65.852  1.00  0.00    -0.259 C  
ENDBRANCH  22  28
ENDBRANCH  19  20
ENDBRANCH  16  18
ENDBRANCH  15  16
ENDBRANCH  13  15
ENDBRANCH  12  13
ENDBRANCH   5  11
ENDBRANCH   2   3
TORSDOF 8
ENDMDL
MODEL        4
REMARK 921   NORMALIZED FREE ENERGY PREDICTED BY IDOCK:   -6.80 KCAL/MOL
REMARK 922        TOTAL FREE ENERGY PREDICTED BY IDOCK:  -11.52 KCAL/MOL
REMARK 923 INTER-LIGAND FREE ENERGY PREDICTED BY IDOCK:   -9.94 KCAL/MOL
REMARK 924 INTRA-LIGAND FREE ENERGY PREDICTED BY IDOCK:   -1.58 KCAL/MOL
REMARK 927      BINDING AFFINITY PREDICTED BY RF-SCORE:    0.00 PKD
ROOT
HETATM    1  C   UNL     1     -12.657  12.772  63.223  1.00  0.00    -0.117 C  
HETATM    2  O   UNL     1     -12.549  14.093  63.747  1.00  0.00    -0.804 OA 
ENDROOT
BRANCH   2   3
HETATM    3  C   UNL     1     -11.552  14.270  64.675  1.00  0.00    -0.408 A  
HETATM    4  C   UNL     1     -11.057  13.234  65.473  1.00  0.00    -0.299 A  
HETATM    5  C   UNL     1     -10.068  13.468  66.438  1.00  0.00    -0.294 A  
HETATM    6  C   UNL     1      -9.509  14.749  66.530  1.00  0.00    -0.316 A  
HETATM    7  H   UNL     1     -11.071  17.429  64.086  1.00  0.00     0.000 HD 
HETATM    8  O   UNL     1     -11.455  16.564  64.007  1.00  0.00    -1.137 OA 
HETATM    9  C   UNL     1      -9.964  15.785  65.708  1.00  0.00    -0.389 A  
HETATM   10  C   UNL     1     -10.987  15.543  64.791  1.00  0.00    -0.399 A  
BRANCH   5  11
HETATM   11  C   UNL     1      -9.586  12.396  67.322  1.00  0.00    -0.199 C  
HETATM   12  C   UNL     1      -9.463  11.116  66.933  1.00  0.00    -0.203 C  
BRANCH  12  13
HETATM   13  C   UNL     1      -8.990  10.071  67.886  1.00  0.00    -0.131 C  
HETATM   14  O   UNL     1      -7.868  10.127  68.389  1.00  0.00    -0.090 OA 
BRANCH  13  15
HETATM   15  C   UNL     1      -9.940   8.957  68.230  1.00  0.00    -0.201 C  
BRANCH  15  16
HETATM   16  C   UNL     1     -10.233   8.870  69.701  1.00  0.00    -0.206 C  
HETATM   17  O   UNL     1     -10.066   7.818  70.319  1.00  0.00    -0.192 OA 
BRANCH  16  18
HETATM   18  C   UNL     1     -10.679  10.118  70.388  1.00  0.00    -0.329 C  
HETATM   19  C   UNL     1     -11.767  10.766  69.944  1.00  0.00    -0.412 C  
BRANCH  19  20
HETATM   20  C   UNL     1     -12.349  11.975  70.552  1.00  0.00    -0.369 A  
HETATM   21  C   UNL     1     -12.110  13.266  70.047  1.00  0.00    -0.385 A  
HETATM   22  C   UNL     1     -12.603  14.393  70.712  1.00  0.00    -0.357 A  
HETATM   23  C   UNL     1     -13.091  11.834  71.736  1.00  0.00    -0.480 A  
HETATM   24  C   UNL     1     -13.339  14.216  71.886  1.00  0.00    -0.393 A  
HETATM   25  H   UNL     1     -14.321  15.180  73.368  1.00  0.00     0.000 HD 
HETATM   26  O   UNL     1     -13.820  15.301  72.570  1.00  0.00    -0.476 OA 
HETATM   27  C   UNL     1     -13.592  12.953  72.401  1.00  0.00    -0.577 A  
BRANCH  22  28
HETATM   28  O   UNL     1     -12.419  15.696  70.330  1.00  0.00    -0.414 OA 
HETATM   29  C   UNL     1     -11.086  16.101  70.046  1.00  0.00    -0.363 C  
ENDBRANCH  22  28
ENDBRANCH  19  20
ENDBRANCH  16  18
ENDBRANCH  15  16
ENDBRANCH  13  15
ENDBRANCH  12  13
ENDBRANCH   5  11
ENDBRANCH   2   3
TORSDOF 8
ENDMDL
MODEL        5
REMARK 921   NORMALIZED FREE ENERGY PREDICTED BY IDOCK:   -6.79 KCAL/MOL
REMARK 922        TOTAL FREE ENERGY PREDICTED BY IDOCK:  -11.51 KCAL/MOL
REMARK 923 INTER-LIGAND FREE ENERGY PREDICTED BY IDOCK:  -10.14 KCAL/MOL
REMARK 924 INTRA-LIGAND FREE ENERGY PREDICTED BY IDOCK:   -1.38 KCAL/MOL
REMARK 927      BINDING AFFINITY PREDICTED BY RF-SCORE:    0.00 PKD
ROOT
HETATM    1  C   UNL     1      -8.917  16.442  66.170  1.00  0.00    -0.332 C  
HETATM    2  O   UNL     1     -10.141  16.417  65.440  1.00  0.00    -0.543 OA 
ENDROOT
BRANCH   2   3
HETATM    3  C   UNL     1     -10.632  15.163  65.174  1.00  0.00    -0.424 A  
HETATM    4  C   UNL     1     -10.114  14.000  65.752  1.00  0.00    -0.345 A  
HETATM    5  C   UNL     1     -10.619  12.735  65.420  1.00  0.00    -0.309 A  
HETATM    6  C   UNL     1     -11.723  12.657  64.561  1.00  0.00    -0.416 A  
HETATM    7  H   UNL     1     -12.996  16.124  63.162  1.00  0.00     0.000 HD 
HETATM    8  O   UNL     1     -12.251  16.193  63.748  1.00  0.00    -0.934 OA 
HETATM    9  C   UNL     1     -12.279  13.816  64.009  1.00  0.00    -0.429 A  
HETATM   10  C   UNL     1     -11.727  15.061  64.311  1.00  0.00    -0.233 A  
BRANCH   5  11
HETATM   11  C   UNL     1     -10.040  11.505  65.977  1.00  0.00    -0.270 C  
HETATM   12  C   UNL     1     -10.264  10.282  65.465  1.00  0.00    -0.308 C  
BRANCH  12  13
HETATM   13  C   UNL     1      -9.664   9.070  66.091  1.00  0.00    -0.283 C  
HETATM   14  O   UNL     1      -8.548   8.667  65.762  1.00  0.00    -0.143 OA 
BRANCH  13  15
HETATM   15  C   UNL     1     -10.459   8.368  67.157  1.00  0.00    -0.380 C  
BRANCH  15  16
HETATM   16  C   UNL     1      -9.897   8.569  68.536  1.00  0.00    -0.173 C  
HETATM   17  O   UNL     1      -8.792   8.122  68.842  1.00  0.00    -0.140 OA 
BRANCH  16  18
HETATM   18  C   UNL     1     -10.708   9.375  69.496  1.00  0.00    -0.238 C  
HETATM   19  C   UNL     1     -10.992  10.655  69.212  1.00  0.00    -0.294 C  
BRANCH  19  20
HETATM   20  C   UNL     1     -11.820  11.551  70.038  1.00  0.00    -0.435 A  
HETATM   21  C   UNL     1     -11.838  12.945  69.857  1.00  0.00    -0.373 A  
HETATM   22  C   UNL     1     -12.563  13.767  70.726  1.00  0.00    -0.340 A  
HETATM   23  C   UNL     1     -12.543  10.994  71.105  1.00  0.00    -0.522 A  
HETATM   24  C   UNL     1     -13.273  13.179  71.776  1.00  0.00    -0.403 A  
HETATM   25  H   UNL     1     -14.461  13.558  73.368  1.00  0.00     0.000 HD 
HETATM   26  O   UNL     1     -13.978  13.958  72.654  1.00  0.00    -0.684 OA 
HETATM   27  C   UNL     1     -13.275  11.806  71.972  1.00  0.00    -0.460 A  
BRANCH  22  28
HETATM   28  O   UNL     1     -12.640  15.134  70.664  1.00  0.00    -0.345 OA 
HETATM   29  C   UNL     1     -11.415  15.840  70.508  1.00  0.00    -0.381 C  
ENDBRANCH  22  28
ENDBRANCH  19  20
ENDBRANCH  16  18
ENDBRANCH  15  16
ENDBRANCH  13  15
ENDBRANCH  12  13
ENDBRANCH   5  11
ENDBRANCH   2   3
TORSDOF 8
ENDMDL
MODEL        6
REMARK 921   NORMALIZED FREE ENERGY PREDICTED BY IDOCK:   -6.78 KCAL/MOL
REMARK 922        TOTAL FREE ENERGY PREDICTED BY IDOCK:  -11.49 KCAL/MOL
REMARK 923 INTER-LIGAND FREE ENERGY PREDICTED BY IDOCK:   -9.88 KCAL/MOL
REMARK 924 INTRA-LIGAND FREE ENERGY PREDICTED BY IDOCK:   -1.62 KCAL/MOL
REMARK 927      BINDING AFFINITY PREDICTED BY RF-SCORE:    0.00 PKD
ROOT
HETATM    1  C   UNL     1      -9.217   9.827  69.741  1.00  0.00    -0.226 C  
HETATM    2  O   UNL     1     -10.323   9.669  68.855  1.00  0.00    -0.189 OA 
ENDROOT
BRANCH   2   3
HETATM    3  C   UNL     1     -10.195  10.308  67.647  1.00  0.00    -0.205 A  
HETATM    4  C   UNL     1     -10.072  11.695  67.524  1.00  0.00    -0.209 A  
HETATM    5  C   UNL     1      -9.986  12.309  66.267  1.00  0.00    -0.249 A  
HETATM    6  C   UNL     1      -9.932  11.500  65.126  1.00  0.00    -0.304 A  
HETATM    7  H   UNL     1     -10.226   7.622  65.817  1.00  0.00     0.000 HD 
HETATM    8  O   UNL     1     -10.257   8.159  66.601  1.00  0.00    -0.292 OA 
HETATM    9  C   UNL     1     -10.011  10.107  65.237  1.00  0.00    -0.381 A  
HETATM   10  C   UNL     1     -10.149   9.519  66.494  1.00  0.00    -0.256 A  
BRANCH   5  11
HETATM   11  C   UNL     1      -9.918  13.771  66.129  1.00  0.00    -0.318 C  
HETATM   12  C   UNL     1     -10.675  14.469  65.265  1.00  0.00    -0.390 C  
BRANCH  12  13
HETATM   13  C   UNL     1     -10.541  15.950  65.157  1.00  0.00    -0.397 C  
HETATM   14  O   UNL     1     -11.256  16.602  64.394  1.00  0.00    -1.033 OA 
BRANCH  13  15
HETATM   15  C   UNL     1      -9.519  16.625  66.028  1.00  0.00    -0.286 C  
BRANCH  15  16
HETATM   16  C   UNL     1     -10.134  17.475  67.104  1.00  0.00    -0.321 C  
HETATM   17  O   UNL     1      -9.836  18.664  67.222  1.00  0.00    -0.300 OA 
BRANCH  16  18
HETATM   18  C   UNL     1     -11.156  16.835  67.984  1.00  0.00    -0.220 C  
HETATM   19  C   UNL     1     -10.761  16.028  68.981  1.00  0.00    -0.274 C  
BRANCH  19  20
HETATM   20  C   UNL     1     -11.651  15.372  69.953  1.00  0.00    -0.342 A  
HETATM   21  C   UNL     1     -12.144  16.033  71.093  1.00  0.00    -0.406 A  
HETATM   22  C   UNL     1     -12.907  15.344  72.042  1.00  0.00    -0.388 A  
HETATM   23  C   UNL     1     -11.938  14.008  69.781  1.00  0.00    -0.393 A  
HETATM   24  C   UNL     1     -13.175  13.988  71.837  1.00  0.00    -0.395 A  
HETATM   25  H   UNL     1     -14.086  12.360  72.617  1.00  0.00     0.000 HD 
HETATM   26  O   UNL     1     -13.904  13.282  72.756  1.00  0.00    -0.690 OA 
HETATM   27  C   UNL     1     -12.705  13.316  70.718  1.00  0.00    -0.284 A  
BRANCH  22  28
HETATM   28  O   UNL     1     -13.423  15.872  73.196  1.00  0.00    -0.575 OA 
HETATM   29  C   UNL     1     -12.506  16.120  74.255  1.00  0.00    -0.555 C  
ENDBRANCH  22  28
ENDBRANCH  19  20
ENDBRANCH  16  18
ENDBRANCH  15  16
ENDBRANCH  13  15
ENDBRANCH  12  13
ENDBRANCH   5  11
ENDBRANCH   2   3
TORSDOF 8
ENDMDL
MODEL        7
REMARK 921   NORMALIZED FREE ENERGY PREDICTED BY IDOCK:   -6.76 KCAL/MOL
REMARK 922        TOTAL FREE ENERGY PREDICTED BY IDOCK:  -11.47 KCAL/MOL
REMARK 923 INTER-LIGAND FREE ENERGY PREDICTED BY IDOCK:   -9.85 KCAL/MOL
REMARK 924 INTRA-LIGAND FREE ENERGY PREDICTED BY IDOCK:   -1.62 KCAL/MOL
REMARK 927      BINDING AFFINITY PREDICTED BY RF-SCORE:    0.00 PKD
ROOT
HETATM    1  C   UNL     1     -12.335  16.180  74.345  1.00  0.00    -0.528 C  
HETATM    2  O   UNL     1     -13.252  16.029  73.265  1.00  0.00    -0.544 OA 
ENDROOT
BRANCH   2   3
HETATM    3  C   UNL     1     -12.722  15.476  72.125  1.00  0.00    -0.403 A  
HETATM    4  C   UNL     1     -11.880  16.175  71.255  1.00  0.00    -0.458 A  
HETATM    5  C   UNL     1     -11.395  15.584  70.081  1.00  0.00    -0.339 A  
HETATM    6  C   UNL     1     -11.692  14.239  69.833  1.00  0.00    -0.373 A  
HETATM    7  H   UNL     1     -14.028  12.526  72.519  1.00  0.00     0.000 HD 
HETATM    8  O   UNL     1     -13.829  13.436  72.703  1.00  0.00    -0.726 OA 
HETATM    9  C   UNL     1     -12.498  13.513  70.717  1.00  0.00    -0.428 A  
HETATM   10  C   UNL     1     -13.015  14.136  71.853  1.00  0.00    -0.360 A  
BRANCH   5  11
HETATM   11  C   UNL     1     -10.559  16.334  69.131  1.00  0.00    -0.292 C  
HETATM   12  C   UNL     1     -11.058  17.038  68.101  1.00  0.00    -0.163 C  
BRANCH  12  13
HETATM   13  C   UNL     1     -10.155  17.758  67.160  1.00  0.00    -0.338 C  
HETATM   14  O   UNL     1      -9.893  18.952  67.313  1.00  0.00    -0.303 OA 
BRANCH  13  15
HETATM   15  C   UNL     1      -9.554  16.972  66.028  1.00  0.00    -0.215 C  
BRANCH  15  16
HETATM   16  C   UNL     1     -10.587  16.387  65.106  1.00  0.00    -0.264 C  
HETATM   17  O   UNL     1     -11.222  17.102  64.331  1.00  0.00    -1.143 OA 
BRANCH  16  18
HETATM   18  C   UNL     1     -10.770  14.906  65.132  1.00  0.00    -0.429 C  
HETATM   19  C   UNL     1      -9.969  14.152  65.900  1.00  0.00    -0.331 C  
BRANCH  19  20
HETATM   20  C   UNL     1     -10.067  12.692  66.063  1.00  0.00    -0.274 A  
HETATM   21  C   UNL     1      -9.887  12.054  67.303  1.00  0.00    -0.200 A  
HETATM   22  C   UNL     1      -9.892  10.658  67.395  1.00  0.00    -0.170 A  
HETATM   23  C   UNL     1     -10.254  11.904  64.915  1.00  0.00    -0.310 A  
HETATM   24  C   UNL     1     -10.083   9.906  66.233  1.00  0.00    -0.241 A  
HETATM   25  H   UNL     1     -10.206   8.027  65.497  1.00  0.00     0.000 HD 
HETATM   26  O   UNL     1     -10.076   8.539  66.287  1.00  0.00    -0.258 OA 
HETATM   27  C   UNL     1     -10.269  10.512  64.999  1.00  0.00    -0.365 A  
BRANCH  22  28
HETATM   28  O   UNL     1      -9.707   9.927  68.539  1.00  0.00    -0.149 OA 
HETATM   29  C   UNL     1     -10.723  10.017  69.530  1.00  0.00    -0.244 C  
ENDBRANCH  22  28
ENDBRANCH  19  20
ENDBRANCH  16  18
ENDBRANCH  15  16
ENDBRANCH  13  15
ENDBRANCH  12  13
ENDBRANCH   5  11
ENDBRANCH   2   3
TORSDOF 8
ENDMDL
MODEL        8
REMARK 921   NORMALIZED FREE ENERGY PREDICTED BY IDOCK:   -6.74 KCAL/MOL
REMARK 922        TOTAL FREE ENERGY PREDICTED BY IDOCK:  -11.44 KCAL/MOL
REMARK 923 INTER-LIGAND FREE ENERGY PREDICTED BY IDOCK:   -9.98 KCAL/MOL
REMARK 924 INTRA-LIGAND FREE ENERGY PREDICTED BY IDOCK:   -1.46 KCAL/MOL
REMARK 927      BINDING AFFINITY PREDICTED BY RF-SCORE:    0.00 PKD
ROOT
HETATM    1  C   UNL     1     -11.985  16.094  71.956  1.00  0.00    -0.526 C  
HETATM    2  O   UNL     1     -13.021  15.406  71.259  1.00  0.00    -0.405 OA 
ENDROOT
BRANCH   2   3
HETATM    3  C   UNL     1     -12.686  14.152  70.811  1.00  0.00    -0.344 A  
HETATM    4  C   UNL     1     -11.937  13.929  69.653  1.00  0.00    -0.399 A  
HETATM    5  C   UNL     1     -11.653  12.630  69.209  1.00  0.00    -0.376 A  
HETATM    6  C   UNL     1     -12.057  11.546  69.999  1.00  0.00    -0.408 A  
HETATM    7  H   UNL     1     -14.087  12.517  73.245  1.00  0.00     0.000 HD 
HETATM    8  O   UNL     1     -13.813  13.262  72.723  1.00  0.00    -0.690 OA 
HETATM    9  C   UNL     1     -12.770  11.757  71.184  1.00  0.00    -0.405 A  
HETATM   10  C   UNL     1     -13.088  13.056  71.580  1.00  0.00    -0.310 A  
BRANCH   5  11
HETATM   11  C   UNL     1     -10.917  12.388  67.959  1.00  0.00    -0.262 C  
HETATM   12  C   UNL     1     -11.503  11.968  66.825  1.00  0.00    -0.410 C  
BRANCH  12  13
HETATM   13  C   UNL     1     -10.696  11.718  65.596  1.00  0.00    -0.280 C  
HETATM   14  O   UNL     1      -9.615  11.132  65.650  1.00  0.00    -0.206 OA 
BRANCH  13  15
HETATM   15  C   UNL     1     -11.259  12.188  64.283  1.00  0.00    -0.409 C  
BRANCH  15  16
HETATM   16  C   UNL     1     -11.487  13.673  64.240  1.00  0.00    -0.366 C  
HETATM   17  O   UNL     1     -12.462  14.148  63.658  1.00  0.00    -0.819 OA 
BRANCH  16  18
HETATM   18  C   UNL     1     -10.517  14.537  64.974  1.00  0.00    -0.454 C  
HETATM   19  C   UNL     1     -10.950  15.315  65.979  1.00  0.00    -0.317 C  
BRANCH  19  20
HETATM   20  C   UNL     1     -10.101  16.176  66.820  1.00  0.00    -0.275 A  
HETATM   21  C   UNL     1     -10.470  17.486  67.174  1.00  0.00    -0.312 A  
HETATM   22  C   UNL     1      -9.591  18.304  67.893  1.00  0.00    -0.289 A  
HETATM   23  C   UNL     1      -8.836  15.699  67.200  1.00  0.00    -0.228 A  
HETATM   24  C   UNL     1      -8.341  17.795  68.257  1.00  0.00    -0.276 A  
HETATM   25  H   UNL     1      -6.603  18.231  69.193  1.00  0.00     0.000 HD 
HETATM   26  O   UNL     1      -7.452  18.576  68.945  1.00  0.00    -0.291 OA 
HETATM   27  C   UNL     1      -7.958  16.504  67.924  1.00  0.00    -0.165 A  
BRANCH  22  28
HETATM   28  O   UNL     1      -9.828  19.597  68.277  1.00  0.00    -0.370 OA 
HETATM   29  C   UNL     1      -9.947  20.563  67.240  1.00  0.00    -0.387 C  
ENDBRANCH  22  28
ENDBRANCH  19  20
ENDBRANCH  16  18
ENDBRANCH  15  16
ENDBRANCH  13  15
ENDBRANCH  12  13
ENDBRANCH   5  11
ENDBRANCH   2   3
TORSDOF 8
ENDMDL
MODEL        9
REMARK 921   NORMALIZED FREE ENERGY PREDICTED BY IDOCK:   -6.74 KCAL/MOL
REMARK 922        TOTAL FREE ENERGY PREDICTED BY IDOCK:  -11.43 KCAL/MOL
REMARK 923 INTER-LIGAND FREE ENERGY PREDICTED BY IDOCK:  -10.03 KCAL/MOL
REMARK 924 INTRA-LIGAND FREE ENERGY PREDICTED BY IDOCK:   -1.40 KCAL/MOL
REMARK 927      BINDING AFFINITY PREDICTED BY RF-SCORE:    0.00 PKD
ROOT
HETATM    1  C   UNL     1      -9.349  11.271  62.725  1.00  0.00    -0.332 C  
HETATM    2  O   UNL     1     -10.590  11.188  63.421  1.00  0.00    -0.367 OA 
ENDROOT
BRANCH   2   3
HETATM    3  C   UNL     1     -10.907  12.290  64.176  1.00  0.00    -0.365 A  
HETATM    4  C   UNL     1      -9.948  13.075  64.824  1.00  0.00    -0.147 A  
HETATM    5  C   UNL     1     -10.319  14.167  65.620  1.00  0.00    -0.348 A  
HETATM    6  C   UNL     1     -11.672  14.522  65.686  1.00  0.00    -0.335 A  
HETATM    7  H   UNL     1     -14.116  12.150  63.686  1.00  0.00     0.000 HD 
HETATM    8  O   UNL     1     -13.201  11.901  63.627  1.00  0.00    -0.675 OA 
HETATM    9  C   UNL     1     -12.638  13.770  65.009  1.00  0.00    -0.427 A  
HETATM   10  C   UNL     1     -12.253  12.655  64.265  1.00  0.00    -0.445 A  
BRANCH   5  11
HETATM   11  C   UNL     1      -9.320  14.960  66.351  1.00  0.00    -0.327 C  
HETATM   12  C   UNL     1      -9.105  16.268  66.129  1.00  0.00    -0.377 C  
BRANCH  12  13
HETATM   13  C   UNL     1      -8.060  17.011  66.890  1.00  0.00    -0.219 C  
HETATM   14  O   UNL     1      -6.862  16.801  66.699  1.00  0.00    -0.215 OA 
BRANCH  13  15
HETATM   15  C   UNL     1      -8.519  18.042  67.883  1.00  0.00    -0.253 C  
BRANCH  15  16
HETATM   16  C   UNL     1     -10.002  18.007  68.123  1.00  0.00    -0.353 C  
HETATM   17  O   UNL     1     -10.770  18.698  67.454  1.00  0.00    -0.431 OA 
BRANCH  16  18
HETATM   18  C   UNL     1     -10.507  17.062  69.163  1.00  0.00    -0.323 C  
HETATM   19  C   UNL     1     -11.501  16.213  68.862  1.00  0.00    -0.331 C  
BRANCH  19  20
HETATM   20  C   UNL     1     -12.061  15.197  69.768  1.00  0.00    -0.354 A  
HETATM   21  C   UNL     1     -12.488  15.500  71.074  1.00  0.00    -0.492 A  
HETATM   22  C   UNL     1     -12.923  14.487  71.935  1.00  0.00    -0.341 A  
HETATM   23  C   UNL     1     -12.079  13.859  69.341  1.00  0.00    -0.384 A  
HETATM   24  C   UNL     1     -12.930  13.168  71.475  1.00  0.00    -0.321 A  
HETATM   25  H   UNL     1     -13.338  11.254  71.987  1.00  0.00     0.000 HD 
HETATM   26  O   UNL     1     -13.333  12.152  72.299  1.00  0.00    -0.500 OA 
HETATM   27  C   UNL     1     -12.519  12.844  70.190  1.00  0.00    -0.144 A  
BRANCH  22  28
HETATM   28  O   UNL     1     -13.342  14.656  73.228  1.00  0.00    -0.585 OA 
HETATM   29  C   UNL     1     -12.473  15.372  74.096  1.00  0.00    -0.642 C  
ENDBRANCH  22  28
ENDBRANCH  19  20
ENDBRANCH  16  18
ENDBRANCH  15  16
ENDBRANCH  13  15
ENDBRANCH  12  13
ENDBRANCH   5  11
ENDBRANCH   2   3
TORSDOF 8
ENDMDL
MODEL       10
REMARK 921   NORMALIZED FREE ENERGY PREDICTED BY IDOCK:   -6.72 KCAL/MOL
REMARK 922        TOTAL FREE ENERGY PREDICTED BY IDOCK:  -11.41 KCAL/MOL
REMARK 923 INTER-LIGAND FREE ENERGY PREDICTED BY IDOCK:   -9.64 KCAL/MOL
REMARK 924 INTRA-LIGAND FREE ENERGY PREDICTED BY IDOCK:   -1.77 KCAL/MOL
REMARK 927      BINDING AFFINITY PREDICTED BY RF-SCORE:    0.00 PKD
ROOT
HETATM    1  C   UNL     1     -10.764  15.668  69.929  1.00  0.00    -0.322 C  
HETATM    2  O   UNL     1     -12.130  15.277  69.825  1.00  0.00    -0.320 OA 
ENDROOT
BRANCH   2   3
HETATM    3  C   UNL     1     -12.462  14.136  70.512  1.00  0.00    -0.361 A  
HETATM    4  C   UNL     1     -11.916  12.882  70.221  1.00  0.00    -0.359 A  
HETATM    5  C   UNL     1     -12.314  11.735  70.921  1.00  0.00    -0.420 A  
HETATM    6  C   UNL     1     -13.209  11.876  71.989  1.00  0.00    -0.461 A  
HETATM    7  H   UNL     1     -14.506  15.556  72.601  1.00  0.00     0.000 HD 
HETATM    8  O   UNL     1     -13.894  15.477  71.878  1.00  0.00    -0.476 OA 
HETATM    9  C   UNL     1     -13.730  13.132  72.319  1.00  0.00    -0.647 A  
HETATM   10  C   UNL     1     -13.361  14.253  71.576  1.00  0.00    -0.354 A  
BRANCH   5  11
HETATM   11  C   UNL     1     -11.789  10.405  70.580  1.00  0.00    -0.430 C  
HETATM   12  C   UNL     1     -12.168   9.277  71.205  1.00  0.00    -0.410 C  
BRANCH  12  13
HETATM   13  C   UNL     1     -11.580   7.960  70.827  1.00  0.00    -0.247 C  
HETATM   14  O   UNL     1     -12.234   6.920  70.914  1.00  0.00    -0.381 OA 
BRANCH  13  15
HETATM   15  C   UNL     1     -10.167   7.947  70.314  1.00  0.00    -0.200 C  
BRANCH  15  16
HETATM   16  C   UNL     1     -10.050   7.368  68.932  1.00  0.00    -0.186 C  
HETATM   17  O   UNL     1      -9.618   6.229  68.756  1.00  0.00    -0.122 OA 
BRANCH  16  18
HETATM   18  C   UNL     1     -10.528   8.207  67.794  1.00  0.00    -0.279 C  
HETATM   19  C   UNL     1     -10.018   9.435  67.615  1.00  0.00    -0.238 C  
BRANCH  19  20
HETATM   20  C   UNL     1     -10.356  10.349  66.511  1.00  0.00    -0.287 A  
HETATM   21  C   UNL     1     -11.269  11.409  66.660  1.00  0.00    -0.298 A  
HETATM   22  C   UNL     1     -11.635  12.193  65.561  1.00  0.00    -0.343 A  
HETATM   23  C   UNL     1      -9.816  10.089  65.241  1.00  0.00    -0.388 A  
HETATM   24  C   UNL     1     -11.077  11.908  64.312  1.00  0.00    -0.356 A  
HETATM   25  H   UNL     1     -11.048  12.451  62.365  1.00  0.00     0.000 HD 
HETATM   26  O   UNL     1     -11.428  12.645  63.214  1.00  0.00    -0.483 OA 
HETATM   27  C   UNL     1     -10.170  10.871  64.142  1.00  0.00    -0.424 A  
BRANCH  22  28
HETATM   28  O   UNL     1     -12.525  13.235  65.576  1.00  0.00    -0.458 OA 
HETATM   29  C   UNL     1     -12.239  14.310  66.462  1.00  0.00    -0.391 C  
ENDBRANCH  22  28
ENDBRANCH  19  20
ENDBRANCH  16  18
ENDBRANCH  15  16
ENDBRANCH  13  15
ENDBRANCH  12  13
ENDBRANCH   5  11
ENDBRANCH   2   3
TORSDOF 8
ENDMDL
MODEL       11
REMARK 921   NORMALIZED FREE ENERGY PREDICTED BY IDOCK:   -6.69 KCAL/MOL
REMARK 922        TOTAL FREE ENERGY PREDICTED BY IDOCK:  -11.37 KCAL/MOL
REMARK 923 INTER-LIGAND FREE ENERGY PREDICTED BY IDOCK:   -9.99 KCAL/MOL
REMARK 924 INTRA-LIGAND FREE ENERGY PREDICTED BY IDOCK:   -1.38 KCAL/MOL
REMARK 927      BINDING AFFINITY PREDICTED BY RF-SCORE:    0.00 PKD
ROOT
HETATM    1  C   UNL     1      -8.740  10.402  66.130  1.00  0.00    -0.152 C  
HETATM    2  O   UNL     1     -10.130  10.336  65.822  1.00  0.00    -0.254 OA 
ENDROOT
BRANCH   2   3
HETATM    3  C   UNL     1     -10.817  11.513  65.984  1.00  0.00    -0.276 A  
HETATM    4  C   UNL     1     -11.080  12.081  67.234  1.00  0.00    -0.341 A  
HETATM    5  C   UNL     1     -11.822  13.263  67.355  1.00  0.00    -0.413 A  
HETATM    6  C   UNL     1     -12.224  13.927  66.190  1.00  0.00    -0.498 A  
HETATM    7  H   UNL     1     -11.260  12.107  62.819  1.00  0.00     0.000 HD 
HETATM    8  O   UNL     1     -10.975  11.648  63.602  1.00  0.00    -0.383 OA 
HETATM    9  C   UNL     1     -11.930  13.394  64.930  1.00  0.00    -0.414 A  
HETATM   10  C   UNL     1     -11.236  12.187  64.833  1.00  0.00    -0.323 A  
BRANCH   5  11
HETATM   11  C   UNL     1     -12.154  13.832  68.670  1.00  0.00    -0.333 C  
HETATM   12  C   UNL     1     -11.875  15.099  69.020  1.00  0.00    -0.331 C  
BRANCH  12  13
HETATM   13  C   UNL     1     -12.217  15.609  70.378  1.00  0.00    -0.395 C  
HETATM   14  O   UNL     1     -11.456  16.361  70.988  1.00  0.00    -0.388 OA 
BRANCH  13  15
HETATM   15  C   UNL     1     -13.535  15.192  70.970  1.00  0.00    -0.493 C  
BRANCH  15  16
HETATM   16  C   UNL     1     -13.398  14.591  72.340  1.00  0.00    -0.433 C  
HETATM   17  O   UNL     1     -13.285  15.304  73.337  1.00  0.00    -0.481 OA 
BRANCH  16  18
HETATM   18  C   UNL     1     -13.461  13.103  72.446  1.00  0.00    -0.643 C  
HETATM   19  C   UNL     1     -12.814  12.346  71.547  1.00  0.00    -0.377 C  
BRANCH  19  20
HETATM   20  C   UNL     1     -12.746  10.875  71.558  1.00  0.00    -0.533 A  
HETATM   21  C   UNL     1     -11.736  10.159  70.890  1.00  0.00    -0.468 A  
HETATM   22  C   UNL     1     -11.765   8.761  70.845  1.00  0.00    -0.258 A  
HETATM   23  C   UNL     1     -13.785  10.165  72.180  1.00  0.00    -0.185 A  
HETATM   24  C   UNL     1     -12.812   8.087  71.477  1.00  0.00    -0.311 A  
HETATM   25  H   UNL     1     -13.591   6.262  71.865  1.00  0.00     0.000 HD 
HETATM   26  O   UNL     1     -12.879   6.720  71.435  1.00  0.00    -0.335 OA 
HETATM   27  C   UNL     1     -13.817   8.771  72.146  1.00  0.00    -0.513 A  
BRANCH  22  28
HETATM   28  O   UNL     1     -10.853   7.959  70.212  1.00  0.00    -0.238 OA 
HETATM   29  C   UNL     1     -10.366   8.408  68.953  1.00  0.00    -0.215 C  
ENDBRANCH  22  28
ENDBRANCH  19  20
ENDBRANCH  16  18
ENDBRANCH  15  16
ENDBRANCH  13  15
ENDBRANCH  12  13
ENDBRANCH   5  11
ENDBRANCH   2   3
TORSDOF 8
ENDMDL
MODEL       12
REMARK 921   NORMALIZED FREE ENERGY PREDICTED BY IDOCK:   -6.66 KCAL/MOL
REMARK 922        TOTAL FREE ENERGY PREDICTED BY IDOCK:  -11.32 KCAL/MOL
REMARK 923 INTER-LIGAND FREE ENERGY PREDICTED BY IDOCK:   -9.84 KCAL/MOL
REMARK 924 INTRA-LIGAND FREE ENERGY PREDICTED BY IDOCK:   -1.48 KCAL/MOL
REMARK 927      BINDING AFFINITY PREDICTED BY RF-SCORE:    0.00 PKD
ROOT
HETATM    1  C   UNL     1     -12.733   9.642  71.693  1.00  0.00    -0.407 C  
HETATM    2  O   UNL     1     -13.167  10.946  72.068  1.00  0.00    -0.492 OA 
ENDROOT
BRANCH   2   3
HETATM    3  C   UNL     1     -12.780  11.954  71.220  1.00  0.00    -0.298 A  
HETATM    4  C   UNL     1     -12.088  11.726  70.027  1.00  0.00    -0.387 A  
HETATM    5  C   UNL     1     -11.675  12.787  69.211  1.00  0.00    -0.376 A  
HETATM    6  C   UNL     1     -12.048  14.090  69.563  1.00  0.00    -0.397 A  
HETATM    7  H   UNL     1     -14.061  14.389  72.948  1.00  0.00     0.000 HD 
HETATM    8  O   UNL     1     -13.821  13.499  72.718  1.00  0.00    -0.730 OA 
HETATM    9  C   UNL     1     -12.778  14.330  70.732  1.00  0.00    -0.419 A  
HETATM   10  C   UNL     1     -13.133  13.263  71.558  1.00  0.00    -0.328 A  
BRANCH   5  11
HETATM   11  C   UNL     1     -10.894  12.558  67.986  1.00  0.00    -0.252 C  
HETATM   12  C   UNL     1     -11.421  12.058  66.855  1.00  0.00    -0.402 C  
BRANCH  12  13
HETATM   13  C   UNL     1     -10.570  11.828  65.653  1.00  0.00    -0.268 C  
HETATM   14  O   UNL     1      -9.473  11.277  65.744  1.00  0.00    -0.214 OA 
BRANCH  13  15
HETATM   15  C   UNL     1     -11.107  12.271  64.321  1.00  0.00    -0.401 C  
BRANCH  15  16
HETATM   16  C   UNL     1     -11.432  13.737  64.277  1.00  0.00    -0.340 C  
HETATM   17  O   UNL     1     -12.483  14.139  63.777  1.00  0.00    -0.791 OA 
BRANCH  16  18
HETATM   18  C   UNL     1     -10.459  14.675  64.911  1.00  0.00    -0.415 C  
HETATM   19  C   UNL     1     -10.891  15.567  65.816  1.00  0.00    -0.337 C  
BRANCH  19  20
HETATM   20  C   UNL     1     -10.040  16.514  66.556  1.00  0.00    -0.307 A  
HETATM   21  C   UNL     1      -8.707  16.778  66.191  1.00  0.00    -0.299 A  
HETATM   22  C   UNL     1      -7.905  17.610  66.979  1.00  0.00    -0.215 A  
HETATM   23  C   UNL     1     -10.555  17.101  67.723  1.00  0.00    -0.360 A  
HETATM   24  C   UNL     1      -8.450  18.179  68.132  1.00  0.00    -0.273 A  
HETATM   25  H   UNL     1      -8.056  19.371  69.718  1.00  0.00     0.000 HD 
HETATM   26  O   UNL     1      -7.685  18.984  68.933  1.00  0.00    -0.335 OA 
HETATM   27  C   UNL     1      -9.764  17.939  68.509  1.00  0.00    -0.352 A  
BRANCH  22  28
HETATM   28  O   UNL     1      -6.593  17.924  66.739  1.00  0.00    -0.162 OA 
HETATM   29  C   UNL     1      -6.300  18.555  65.499  1.00  0.00    -0.285 C  
ENDBRANCH  22  28
ENDBRANCH  19  20
ENDBRANCH  16  18
ENDBRANCH  15  16
ENDBRANCH  13  15
ENDBRANCH  12  13
ENDBRANCH   5  11
ENDBRANCH   2   3
TORSDOF 8
ENDMDL
MODEL       13
REMARK 921   NORMALIZED FREE ENERGY PREDICTED BY IDOCK:   -6.64 KCAL/MOL
REMARK 922        TOTAL FREE ENERGY PREDICTED BY IDOCK:  -11.30 KCAL/MOL
REMARK 923 INTER-LIGAND FREE ENERGY PREDICTED BY IDOCK:   -9.85 KCAL/MOL
REMARK 924 INTRA-LIGAND FREE ENERGY PREDICTED BY IDOCK:   -1.45 KCAL/MOL
REMARK 927      BINDING AFFINITY PREDICTED BY RF-SCORE:    0.00 PKD
ROOT
HETATM    1  C   UNL     1     -10.524  20.075  65.841  1.00  0.00    -0.406 C  
HETATM    2  O   UNL     1      -9.585  19.625  66.814  1.00  0.00    -0.327 OA 
ENDROOT
BRANCH   2   3
HETATM    3  C   UNL     1      -9.542  18.265  66.994  1.00  0.00    -0.291 A  
HETATM    4  C   UNL     1     -10.317  17.369  66.251  1.00  0.00    -0.330 A  
HETATM    5  C   UNL     1     -10.272  15.990  66.497  1.00  0.00    -0.301 A  
HETATM    6  C   UNL     1      -9.363  15.506  67.445  1.00  0.00    -0.211 A  
HETATM    7  H   UNL     1      -7.266  18.283  69.314  1.00  0.00     0.000 HD 
HETATM    8  O   UNL     1      -7.874  18.625  68.669  1.00  0.00    -0.314 OA 
HETATM    9  C   UNL     1      -8.549  16.387  68.165  1.00  0.00    -0.193 A  
HETATM   10  C   UNL     1      -8.647  17.760  67.943  1.00  0.00    -0.250 A  
BRANCH   5  11
HETATM   11  C   UNL     1     -11.130  15.050  65.761  1.00  0.00    -0.346 C  
HETATM   12  C   UNL     1     -10.675  14.236  64.793  1.00  0.00    -0.435 C  
BRANCH  12  13
HETATM   13  C   UNL     1     -11.602  13.320  64.068  1.00  0.00    -0.409 C  
HETATM   14  O   UNL     1     -12.514  13.758  63.367  1.00  0.00    -0.817 OA 
BRANCH  13  15
HETATM   15  C   UNL     1     -11.370  11.841  64.204  1.00  0.00    -0.430 C  
BRANCH  15  16
HETATM   16  C   UNL     1     -10.806  11.455  65.542  1.00  0.00    -0.220 C  
HETATM   17  O   UNL     1      -9.676  10.978  65.640  1.00  0.00    -0.209 OA 
BRANCH  16  18
HETATM   18  C   UNL     1     -11.649  11.723  66.745  1.00  0.00    -0.287 C  
HETATM   19  C   UNL     1     -11.080  12.214  67.857  1.00  0.00    -0.295 C  
BRANCH  19  20
HETATM   20  C   UNL     1     -11.793  12.572  69.095  1.00  0.00    -0.348 A  
HETATM   21  C   UNL     1     -12.035  13.906  69.468  1.00  0.00    -0.396 A  
HETATM   22  C   UNL     1     -12.629  14.205  70.699  1.00  0.00    -0.351 A  
HETATM   23  C   UNL     1     -12.157  11.542  69.977  1.00  0.00    -0.408 A  
HETATM   24  C   UNL     1     -12.981  13.155  71.551  1.00  0.00    -0.321 A  
HETATM   25  H   UNL     1     -13.787  12.701  73.349  1.00  0.00     0.000 HD 
HETATM   26  O   UNL     1     -13.547  13.415  72.770  1.00  0.00    -0.656 OA 
HETATM   27  C   UNL     1     -12.757  11.831  71.202  1.00  0.00    -0.405 A  
BRANCH  22  28
HETATM   28  O   UNL     1     -12.897  15.460  71.180  1.00  0.00    -0.388 OA 
HETATM   29  C   UNL     1     -11.819  16.156  71.793  1.00  0.00    -0.506 C  
ENDBRANCH  22  28
ENDBRANCH  19  20
ENDBRANCH  16  18
ENDBRANCH  15  16
ENDBRANCH  13  15
ENDBRANCH  12  13
ENDBRANCH   5  11
ENDBRANCH   2   3
TORSDOF 8
ENDMDL
MODEL       14
REMARK 921   NORMALIZED FREE ENERGY PREDICTED BY IDOCK:   -6.63 KCAL/MOL
REMARK 922        TOTAL FREE ENERGY PREDICTED BY IDOCK:  -11.28 KCAL/MOL
REMARK 923 INTER-LIGAND FREE ENERGY PREDICTED BY IDOCK:   -9.76 KCAL/MOL
REMARK 924 INTRA-LIGAND FREE ENERGY PREDICTED BY IDOCK:   -1.52 KCAL/MOL
REMARK 927      BINDING AFFINITY PREDICTED BY RF-SCORE:    0.00 PKD
ROOT
HETATM    1  C   UNL     1      -9.988   9.058  71.442  1.00  0.00    -0.318 C  
HETATM    2  O   UNL     1     -11.006   8.639  70.536  1.00  0.00    -0.231 OA 
ENDROOT
BRANCH   2   3
HETATM    3  C   UNL     1     -10.769   8.938  69.218  1.00  0.00    -0.162 A  
HETATM    4  C   UNL     1     -10.874  10.231  68.696  1.00  0.00    -0.272 A  
HETATM    5  C   UNL     1     -10.664  10.485  67.334  1.00  0.00    -0.334 A  
HETATM    6  C   UNL     1     -10.253   9.431  66.509  1.00  0.00    -0.308 A  
HETATM    7  H   UNL     1      -9.975   5.923  68.302  1.00  0.00     0.000 HD 
HETATM    8  O   UNL     1     -10.249   6.630  68.875  1.00  0.00    -0.161 OA 
HETATM    9  C   UNL     1     -10.101   8.140  67.026  1.00  0.00    -0.350 A  
HETATM   10  C   UNL     1     -10.367   7.898  68.374  1.00  0.00    -0.199 A  
BRANCH   5  11
HETATM   11  C   UNL     1     -10.833  11.831  66.767  1.00  0.00    -0.312 C  
HETATM   12  C   UNL     1     -11.624  12.097  65.713  1.00  0.00    -0.414 C  
BRANCH  12  13
HETATM   13  C   UNL     1     -11.734  13.482  65.172  1.00  0.00    -0.322 C  
HETATM   14  O   UNL     1     -12.821  13.950  64.832  1.00  0.00    -0.687 OA 
BRANCH  13  15
HETATM   15  C   UNL     1     -10.475  14.298  65.077  1.00  0.00    -0.458 C  
BRANCH  15  16
HETATM   16  C   UNL     1     -10.557  15.594  65.833  1.00  0.00    -0.343 C  
HETATM   17  O   UNL     1     -10.641  16.670  65.240  1.00  0.00    -0.596 OA 
BRANCH  16  18
HETATM   18  C   UNL     1     -10.586  15.518  67.323  1.00  0.00    -0.299 C  
HETATM   19  C   UNL     1     -11.721  15.169  67.947  1.00  0.00    -0.275 C  
BRANCH  19  20
HETATM   20  C   UNL     1     -11.882  15.005  69.402  1.00  0.00    -0.358 A  
HETATM   21  C   UNL     1     -12.508  13.882  69.972  1.00  0.00    -0.325 A  
HETATM   22  C   UNL     1     -12.726  13.812  71.352  1.00  0.00    -0.367 A  
HETATM   23  C   UNL     1     -11.477  16.057  70.240  1.00  0.00    -0.369 A  
HETATM   24  C   UNL     1     -12.308  14.876  72.156  1.00  0.00    -0.351 A  
HETATM   25  H   UNL     1     -12.239  15.568  74.055  1.00  0.00     0.000 HD 
HETATM   26  O   UNL     1     -12.523  14.845  73.508  1.00  0.00    -0.456 OA 
HETATM   27  C   UNL     1     -11.683  15.991  71.618  1.00  0.00    -0.583 A  
BRANCH  22  28
HETATM   28  O   UNL     1     -13.341  12.785  72.018  1.00  0.00    -0.488 OA 
HETATM   29  C   UNL     1     -12.964  11.464  71.650  1.00  0.00    -0.418 C  
ENDBRANCH  22  28
ENDBRANCH  19  20
ENDBRANCH  16  18
ENDBRANCH  15  16
ENDBRANCH  13  15
ENDBRANCH  12  13
ENDBRANCH   5  11
ENDBRANCH   2   3
TORSDOF 8
ENDMDL
MODEL       15
REMARK 921   NORMALIZED FREE ENERGY PREDICTED BY IDOCK:   -6.63 KCAL/MOL
REMARK 922        TOTAL FREE ENERGY PREDICTED BY IDOCK:  -11.28 KCAL/MOL
REMARK 923 INTER-LIGAND FREE ENERGY PREDICTED BY IDOCK:  -10.11 KCAL/MOL
REMARK 924 INTRA-LIGAND FREE ENERGY PREDICTED BY IDOCK:   -1.17 KCAL/MOL
REMARK 927      BINDING AFFINITY PREDICTED BY RF-SCORE:    0.00 PKD
ROOT
HETATM    1  C   UNL     1     -13.049  10.972  71.719  1.00  0.00    -0.449 C  
HETATM    2  O   UNL     1     -13.465  12.249  72.196  1.00  0.00    -0.509 OA 
ENDROOT
BRANCH   2   3
HETATM    3  C   UNL     1     -12.953  13.321  71.507  1.00  0.00    -0.337 A  
HETATM    4  C   UNL     1     -12.390  13.213  70.231  1.00  0.00    -0.319 A  
HETATM    5  C   UNL     1     -11.841  14.327  69.582  1.00  0.00    -0.370 A  
HETATM    6  C   UNL     1     -11.946  15.582  70.194  1.00  0.00    -0.389 A  
HETATM    7  H   UNL     1     -13.655  15.560  73.755  1.00  0.00     0.000 HD 
HETATM    8  O   UNL     1     -13.597  14.703  73.348  1.00  0.00    -0.428 OA 
HETATM    9  C   UNL     1     -12.545  15.712  71.451  1.00  0.00    -0.519 A  
HETATM   10  C   UNL     1     -13.038  14.582  72.105  1.00  0.00    -0.356 A  
BRANCH   5  11
HETATM   11  C   UNL     1     -11.194  14.208  68.267  1.00  0.00    -0.295 C  
HETATM   12  C   UNL     1     -11.806  13.702  67.183  1.00  0.00    -0.435 C  
BRANCH  12  13
HETATM   13  C   UNL     1     -11.086  13.588  65.883  1.00  0.00    -0.284 C  
HETATM   14  O   UNL     1     -10.018  12.982  65.795  1.00  0.00    -0.279 OA 
BRANCH  13  15
HETATM   15  C   UNL     1     -11.721  14.219  64.675  1.00  0.00    -0.439 C  
BRANCH  15  16
HETATM   16  C   UNL     1     -11.406  15.682  64.543  1.00  0.00    -0.320 C  
HETATM   17  O   UNL     1     -11.992  16.386  63.721  1.00  0.00    -0.964 OA 
BRANCH  16  18
HETATM   18  C   UNL     1     -10.398  16.254  65.484  1.00  0.00    -0.363 C  
HETATM   19  C   UNL     1     -10.513  17.530  65.884  1.00  0.00    -0.251 C  
BRANCH  19  20
HETATM   20  C   UNL     1      -9.626  18.208  66.844  1.00  0.00    -0.299 A  
HETATM   21  C   UNL     1      -9.040  19.459  66.580  1.00  0.00    -0.397 A  
HETATM   22  C   UNL     1      -8.127  20.023  67.477  1.00  0.00    -0.316 A  
HETATM   23  C   UNL     1      -9.282  17.532  68.026  1.00  0.00    -0.275 A  
HETATM   24  C   UNL     1      -7.809  19.323  68.644  1.00  0.00    -0.361 A  
HETATM   25  H   UNL     1      -6.689  19.364  70.327  1.00  0.00     0.000 HD 
HETATM   26  O   UNL     1      -6.906  19.839  69.534  1.00  0.00    -0.344 OA 
HETATM   27  C   UNL     1      -8.378  18.091  68.930  1.00  0.00    -0.137 A  
BRANCH  22  28
HETATM   28  O   UNL     1      -7.479  21.219  67.320  1.00  0.00    -0.449 OA 
HETATM   29  C   UNL     1      -6.400  21.248  66.394  1.00  0.00    -0.221 C  
ENDBRANCH  22  28
ENDBRANCH  19  20
ENDBRANCH  16  18
ENDBRANCH  15  16
ENDBRANCH  13  15
ENDBRANCH  12  13
ENDBRANCH   5  11
ENDBRANCH   2   3
TORSDOF 8
ENDMDL
MODEL       16
REMARK 921   NORMALIZED FREE ENERGY PREDICTED BY IDOCK:   -6.62 KCAL/MOL
REMARK 922        TOTAL FREE ENERGY PREDICTED BY IDOCK:  -11.27 KCAL/MOL
REMARK 923 INTER-LIGAND FREE ENERGY PREDICTED BY IDOCK:  -10.01 KCAL/MOL
REMARK 924 INTRA-LIGAND FREE ENERGY PREDICTED BY IDOCK:   -1.26 KCAL/MOL
REMARK 927      BINDING AFFINITY PREDICTED BY RF-SCORE:    0.00 PKD
ROOT
HETATM    1  C   UNL     1      -8.982   8.587  70.812  1.00  0.00    -0.165 C  
HETATM    2  O   UNL     1     -10.145   8.453  69.999  1.00  0.00    -0.186 OA 
ENDROOT
BRANCH   2   3
HETATM    3  C   UNL     1     -11.331   8.725  70.633  1.00  0.00    -0.254 A  
HETATM    4  C   UNL     1     -11.768  10.022  70.917  1.00  0.00    -0.462 A  
HETATM    5  C   UNL     1     -12.967  10.253  71.604  1.00  0.00    -0.570 A  
HETATM    6  C   UNL     1     -13.779   9.158  71.925  1.00  0.00    -0.485 A  
HETATM    7  H   UNL     1     -12.300   5.636  70.919  1.00  0.00     0.000 HD 
HETATM    8  O   UNL     1     -11.742   6.370  70.689  1.00  0.00    -0.373 OA 
HETATM    9  C   UNL     1     -13.375   7.856  71.608  1.00  0.00    -0.374 A  
HETATM   10  C   UNL     1     -12.152   7.645  70.972  1.00  0.00    -0.258 A  
BRANCH   5  11
HETATM   11  C   UNL     1     -13.401  11.612  71.959  1.00  0.00    -0.405 C  
HETATM   12  C   UNL     1     -12.679  12.713  71.691  1.00  0.00    -0.292 C  
BRANCH  12  13
HETATM   13  C   UNL     1     -13.166  14.062  72.099  1.00  0.00    -0.435 C  
HETATM   14  O   UNL     1     -13.273  14.370  73.286  1.00  0.00    -0.622 OA 
BRANCH  13  15
HETATM   15  C   UNL     1     -13.499  15.044  71.010  1.00  0.00    -0.461 C  
BRANCH  15  16
HETATM   16  C   UNL     1     -12.286  15.538  70.274  1.00  0.00    -0.400 C  
HETATM   17  O   UNL     1     -11.431  16.217  70.842  1.00  0.00    -0.403 OA 
BRANCH  16  18
HETATM   18  C   UNL     1     -12.135  15.127  68.846  1.00  0.00    -0.227 C  
HETATM   19  C   UNL     1     -12.026  13.825  68.539  1.00  0.00    -0.402 C  
BRANCH  19  20
HETATM   20  C   UNL     1     -11.923  13.274  67.177  1.00  0.00    -0.400 A  
HETATM   21  C   UNL     1     -11.176  12.119  66.883  1.00  0.00    -0.375 A  
HETATM   22  C   UNL     1     -11.025  11.685  65.561  1.00  0.00    -0.270 A  
HETATM   23  C   UNL     1     -12.517  13.986  66.123  1.00  0.00    -0.467 A  
HETATM   24  C   UNL     1     -11.632  12.417  64.538  1.00  0.00    -0.348 A  
HETATM   25  H   UNL     1     -11.901  12.527  62.537  1.00  0.00     0.000 HD 
HETATM   26  O   UNL     1     -11.488  12.029  63.233  1.00  0.00    -0.383 OA 
HETATM   27  C   UNL     1     -12.378  13.556  64.804  1.00  0.00    -0.435 A  
BRANCH  22  28
HETATM   28  O   UNL     1     -10.309  10.593  65.150  1.00  0.00    -0.299 OA 
HETATM   29  C   UNL     1     -10.146   9.539  66.092  1.00  0.00    -0.256 C  
ENDBRANCH  22  28
ENDBRANCH  19  20
ENDBRANCH  16  18
ENDBRANCH  15  16
ENDBRANCH  13  15
ENDBRANCH  12  13
ENDBRANCH   5  11
ENDBRANCH   2   3
TORSDOF 8
ENDMDL
MODEL       17
REMARK 921   NORMALIZED FREE ENERGY PREDICTED BY IDOCK:   -6.60 KCAL/MOL
REMARK 922        TOTAL FREE ENERGY PREDICTED BY IDOCK:  -11.23 KCAL/MOL
REMARK 923 INTER-LIGAND FREE ENERGY PREDICTED BY IDOCK:   -9.62 KCAL/MOL
REMARK 924 INTRA-LIGAND FREE ENERGY PREDICTED BY IDOCK:   -1.61 KCAL/MOL
REMARK 927      BINDING AFFINITY PREDICTED BY RF-SCORE:    0.00 PKD
ROOT
HETATM    1  C   UNL     1     -11.033  16.069  70.039  1.00  0.00    -0.365 C  
HETATM    2  O   UNL     1     -12.328  15.515  69.818  1.00  0.00    -0.334 OA 
ENDROOT
BRANCH   2   3
HETATM    3  C   UNL     1     -12.599  14.372  70.528  1.00  0.00    -0.353 A  
HETATM    4  C   UNL     1     -12.070  13.121  70.196  1.00  0.00    -0.392 A  
HETATM    5  C   UNL     1     -12.407  11.972  70.924  1.00  0.00    -0.384 A  
HETATM    6  C   UNL     1     -13.218  12.108  72.057  1.00  0.00    -0.496 A  
HETATM    7  H   UNL     1     -14.487  15.780  72.767  1.00  0.00     0.000 HD 
HETATM    8  O   UNL     1     -13.932  15.704  72.000  1.00  0.00    -0.483 OA 
HETATM    9  C   UNL     1     -13.721  13.360  72.426  1.00  0.00    -0.698 A  
HETATM   10  C   UNL     1     -13.416  14.483  71.657  1.00  0.00    -0.373 A  
BRANCH   5  11
HETATM   11  C   UNL     1     -11.901  10.645  70.543  1.00  0.00    -0.453 C  
HETATM   12  C   UNL     1     -11.822   9.610  71.397  1.00  0.00    -0.484 C  
BRANCH  12  13
HETATM   13  C   UNL     1     -11.278   8.295  70.954  1.00  0.00    -0.265 C  
HETATM   14  O   UNL     1     -11.969   7.276  70.982  1.00  0.00    -0.311 OA 
BRANCH  13  15
HETATM   15  C   UNL     1      -9.862   8.258  70.451  1.00  0.00    -0.194 C  
BRANCH  15  16
HETATM   16  C   UNL     1      -9.750   7.715  69.054  1.00  0.00    -0.160 C  
HETATM   17  O   UNL     1      -9.178   6.648  68.832  1.00  0.00    -0.132 OA 
BRANCH  16  18
HETATM   18  C   UNL     1     -10.404   8.494  67.961  1.00  0.00    -0.272 C  
HETATM   19  C   UNL     1      -9.985   9.740  67.692  1.00  0.00    -0.217 C  
BRANCH  19  20
HETATM   20  C   UNL     1     -10.501  10.601  66.615  1.00  0.00    -0.296 A  
HETATM   21  C   UNL     1     -10.100  10.459  65.274  1.00  0.00    -0.370 A  
HETATM   22  C   UNL     1     -10.539  11.360  64.299  1.00  0.00    -0.355 A  
HETATM   23  C   UNL     1     -11.353  11.663  66.960  1.00  0.00    -0.373 A  
HETATM   24  C   UNL     1     -11.388  12.403  64.678  1.00  0.00    -0.315 A  
HETATM   25  H   UNL     1     -12.398  14.022  64.008  1.00  0.00     0.000 HD 
HETATM   26  O   UNL     1     -11.821  13.312  63.750  1.00  0.00    -0.453 OA 
HETATM   27  C   UNL     1     -11.802  12.561  65.992  1.00  0.00    -0.478 A  
BRANCH  22  28
HETATM   28  O   UNL     1     -10.202  11.336  62.971  1.00  0.00    -0.313 OA 
HETATM   29  C   UNL     1      -9.272  10.341  62.562  1.00  0.00    -0.300 C  
ENDBRANCH  22  28
ENDBRANCH  19  20
ENDBRANCH  16  18
ENDBRANCH  15  16
ENDBRANCH  13  15
ENDBRANCH  12  13
ENDBRANCH   5  11
ENDBRANCH   2   3
TORSDOF 8
ENDMDL
MODEL       18
REMARK 921   NORMALIZED FREE ENERGY PREDICTED BY IDOCK:   -6.55 KCAL/MOL
REMARK 922        TOTAL FREE ENERGY PREDICTED BY IDOCK:  -11.16 KCAL/MOL
REMARK 923 INTER-LIGAND FREE ENERGY PREDICTED BY IDOCK:   -9.91 KCAL/MOL
REMARK 924 INTRA-LIGAND FREE ENERGY PREDICTED BY IDOCK:   -1.25 KCAL/MOL
REMARK 927      BINDING AFFINITY PREDICTED BY RF-SCORE:    0.00 PKD
ROOT
HETATM    1  C   UNL     1      -6.619  18.957  68.516  1.00  0.00    -0.246 C  
HETATM    2  O   UNL     1      -7.999  18.988  68.874  1.00  0.00    -0.337 OA 
ENDROOT
BRANCH   2   3
HETATM    3  C   UNL     1      -8.870  18.704  67.852  1.00  0.00    -0.288 A  
HETATM    4  C   UNL     1      -9.199  17.401  67.465  1.00  0.00    -0.233 A  
HETATM    5  C   UNL     1     -10.061  17.157  66.388  1.00  0.00    -0.326 A  
HETATM    6  C   UNL     1     -10.670  18.248  65.754  1.00  0.00    -0.129 A  
HETATM    7  H   UNL     1      -9.592  21.789  67.131  1.00  0.00     0.000 HD 
HETATM    8  O   UNL     1      -9.177  21.059  67.575  1.00  0.00    -0.237 OA 
HETATM    9  C   UNL     1     -10.384  19.556  66.159  1.00  0.00    -0.614 A  
HETATM   10  C   UNL     1      -9.481  19.779  67.198  1.00  0.00    -0.355 A  
BRANCH   5  11
HETATM   11  C   UNL     1     -10.363  15.790  65.939  1.00  0.00    -0.372 C  
HETATM   12  C   UNL     1     -11.207  15.512  64.930  1.00  0.00    -0.396 C  
BRANCH  12  13
HETATM   13  C   UNL     1     -11.488  14.102  64.537  1.00  0.00    -0.372 C  
HETATM   14  O   UNL     1     -12.558  13.786  64.016  1.00  0.00    -0.685 OA 
BRANCH  13  15
HETATM   15  C   UNL     1     -10.411  13.081  64.778  1.00  0.00    -0.382 C  
BRANCH  15  16
HETATM   16  C   UNL     1     -10.937  11.799  65.361  1.00  0.00    -0.297 C  
HETATM   17  O   UNL     1     -10.742  10.721  64.801  1.00  0.00    -0.270 OA 
BRANCH  16  18
HETATM   18  C   UNL     1     -11.656  11.883  66.666  1.00  0.00    -0.337 C  
HETATM   19  C   UNL     1     -11.047  12.441  67.724  1.00  0.00    -0.292 C  
BRANCH  19  20
HETATM   20  C   UNL     1     -11.650  12.636  69.053  1.00  0.00    -0.367 A  
HETATM   21  C   UNL     1     -12.013  11.561  69.884  1.00  0.00    -0.426 A  
HETATM   22  C   UNL     1     -12.673  11.789  71.097  1.00  0.00    -0.305 A  
HETATM   23  C   UNL     1     -11.959  13.944  69.460  1.00  0.00    -0.396 A  
HETATM   24  C   UNL     1     -12.962  13.104  71.471  1.00  0.00    -0.321 A  
HETATM   25  H   UNL     1     -13.818  14.252  72.898  1.00  0.00     0.000 HD 
HETATM   26  O   UNL     1     -13.622  13.359  72.643  1.00  0.00    -0.635 OA 
HETATM   27  C   UNL     1     -12.609  14.181  70.671  1.00  0.00    -0.421 A  
BRANCH  22  28
HETATM   28  O   UNL     1     -13.092  10.827  71.977  1.00  0.00    -0.483 OA 
HETATM   29  C   UNL     1     -13.270   9.515  71.458  1.00  0.00    -0.390 C  
ENDBRANCH  22  28
ENDBRANCH  19  20
ENDBRANCH  16  18
ENDBRANCH  15  16
ENDBRANCH  13  15
ENDBRANCH  12  13
ENDBRANCH   5  11
ENDBRANCH   2   3
TORSDOF 8
ENDMDL
MODEL       19
REMARK 921   NORMALIZED FREE ENERGY PREDICTED BY IDOCK:   -6.47 KCAL/MOL
REMARK 922        TOTAL FREE ENERGY PREDICTED BY IDOCK:  -11.04 KCAL/MOL
REMARK 923 INTER-LIGAND FREE ENERGY PREDICTED BY IDOCK:   -9.55 KCAL/MOL
REMARK 924 INTRA-LIGAND FREE ENERGY PREDICTED BY IDOCK:   -1.49 KCAL/MOL
REMARK 927      BINDING AFFINITY PREDICTED BY RF-SCORE:    0.00 PKD
ROOT
HETATM    1  C   UNL     1     -10.091   8.252  69.352  1.00  0.00    -0.198 C  
HETATM    2  O   UNL     1     -10.798   7.629  70.421  1.00  0.00    -0.236 OA 
ENDROOT
BRANCH   2   3
HETATM    3  C   UNL     1     -11.794   8.391  70.980  1.00  0.00    -0.252 A  
HETATM    4  C   UNL     1     -11.807   9.788  70.932  1.00  0.00    -0.420 A  
HETATM    5  C   UNL     1     -12.823  10.528  71.553  1.00  0.00    -0.568 A  
HETATM    6  C   UNL     1     -13.886   9.841  72.150  1.00  0.00    -0.257 A  
HETATM    7  H   UNL     1     -13.590   5.903  72.050  1.00  0.00     0.000 HD 
HETATM    8  O   UNL     1     -12.865   6.356  71.635  1.00  0.00    -0.160 OA 
HETATM    9  C   UNL     1     -13.908   8.442  72.168  1.00  0.00    -0.399 A  
HETATM   10  C   UNL     1     -12.860   7.725  71.591  1.00  0.00    -0.340 A  
BRANCH   5  11
HETATM   11  C   UNL     1     -12.810  11.998  71.558  1.00  0.00    -0.403 C  
HETATM   12  C   UNL     1     -13.635  12.743  72.314  1.00  0.00    -0.563 C  
BRANCH  12  13
HETATM   13  C   UNL     1     -13.587  14.232  72.256  1.00  0.00    -0.478 C  
HETATM   14  O   UNL     1     -13.571  14.911  73.284  1.00  0.00    -0.513 OA 
BRANCH  13  15
HETATM   15  C   UNL     1     -13.536  14.878  70.900  1.00  0.00    -0.356 C  
BRANCH  15  16
HETATM   16  C   UNL     1     -12.151  15.312  70.508  1.00  0.00    -0.354 C  
HETATM   17  O   UNL     1     -11.632  16.307  71.012  1.00  0.00    -0.410 OA 
BRANCH  16  18
HETATM   18  C   UNL     1     -11.416  14.458  69.528  1.00  0.00    -0.333 C  
HETATM   19  C   UNL     1     -12.104  13.741  68.627  1.00  0.00    -0.333 C  
BRANCH  19  20
HETATM   20  C   UNL     1     -11.513  12.899  67.573  1.00  0.00    -0.386 A  
HETATM   21  C   UNL     1     -11.819  13.066  66.210  1.00  0.00    -0.466 A  
HETATM   22  C   UNL     1     -11.311  12.183  65.252  1.00  0.00    -0.336 A  
HETATM   23  C   UNL     1     -10.686  11.831  67.958  1.00  0.00    -0.244 A  
HETATM   24  C   UNL     1     -10.490  11.133  65.671  1.00  0.00    -0.248 A  
HETATM   25  H   UNL     1      -9.433   9.527  65.044  1.00  0.00     0.000 HD 
HETATM   26  O   UNL     1      -9.991  10.241  64.759  1.00  0.00    -0.331 OA 
HETATM   27  C   UNL     1     -10.169  10.951  67.008  1.00  0.00    -0.256 A  
BRANCH  22  28
HETATM   28  O   UNL     1     -11.553  12.231  63.905  1.00  0.00    -0.370 OA 
HETATM   29  C   UNL     1     -12.896  12.018  63.486  1.00  0.00    -0.341 C  
ENDBRANCH  22  28
ENDBRANCH  19  20
ENDBRANCH  16  18
ENDBRANCH  15  16
ENDBRANCH  13  15
ENDBRANCH  12  13
ENDBRANCH   5  11
ENDBRANCH   2   3
TORSDOF 8
ENDMDL
MODEL       20
REMARK 921   NORMALIZED FREE ENERGY PREDICTED BY IDOCK:   -6.47 KCAL/MOL
REMARK 922        TOTAL FREE ENERGY PREDICTED BY IDOCK:  -11.04 KCAL/MOL
REMARK 923 INTER-LIGAND FREE ENERGY PREDICTED BY IDOCK:   -9.71 KCAL/MOL
REMARK 924 INTRA-LIGAND FREE ENERGY PREDICTED BY IDOCK:   -1.32 KCAL/MOL
REMARK 927      BINDING AFFINITY PREDICTED BY RF-SCORE:    0.00 PKD
ROOT
HETATM    1  C   UNL     1     -14.320   8.205  71.898  1.00  0.00    -0.472 C  
HETATM    2  O   UNL     1     -13.258   8.948  72.489  1.00  0.00    -0.426 OA 
ENDROOT
BRANCH   2   3
HETATM    3  C   UNL     1     -12.248   9.302  71.629  1.00  0.00    -0.370 A  
HETATM    4  C   UNL     1     -12.413  10.227  70.594  1.00  0.00    -0.407 A  
HETATM    5  C   UNL     1     -11.365  10.527  69.713  1.00  0.00    -0.367 A  
HETATM    6  C   UNL     1     -10.109   9.951  69.940  1.00  0.00    -0.297 A  
HETATM    7  H   UNL     1      -9.954   7.444  72.988  1.00  0.00     0.000 HD 
HETATM    8  O   UNL     1     -10.810   7.832  72.850  1.00  0.00    -0.339 OA 
HETATM    9  C   UNL     1      -9.918   9.057  70.999  1.00  0.00    -0.349 A  
HETATM   10  C   UNL     1     -10.988   8.731  71.833  1.00  0.00    -0.365 A  
BRANCH   5  11
HETATM   11  C   UNL     1     -11.550  11.453  68.586  1.00  0.00    -0.384 C  
HETATM   12  C   UNL     1     -11.154  11.179  67.331  1.00  0.00    -0.370 C  
BRANCH  12  13
HETATM   13  C   UNL     1     -11.350  12.171  66.235  1.00  0.00    -0.357 C  
HETATM   14  O   UNL     1     -12.421  12.255  65.633  1.00  0.00    -0.591 OA 
BRANCH  13  15
HETATM   15  C   UNL     1     -10.202  13.083  65.904  1.00  0.00    -0.298 C  
BRANCH  15  16
HETATM   16  C   UNL     1     -10.362  14.462  66.481  1.00  0.00    -0.281 C  
HETATM   17  O   UNL     1     -10.419  15.452  65.752  1.00  0.00    -0.309 OA 
BRANCH  16  18
HETATM   18  C   UNL     1     -10.503  14.573  67.963  1.00  0.00    -0.236 C  
HETATM   19  C   UNL     1     -11.610  15.124  68.485  1.00  0.00    -0.354 C  
BRANCH  19  20
HETATM   20  C   UNL     1     -11.906  15.252  69.921  1.00  0.00    -0.363 A  
HETATM   21  C   UNL     1     -12.790  14.388  70.592  1.00  0.00    -0.390 A  
HETATM   22  C   UNL     1     -13.118  14.605  71.935  1.00  0.00    -0.333 A  
HETATM   23  C   UNL     1     -11.355  16.338  70.621  1.00  0.00    -0.321 A  
HETATM   24  C   UNL     1     -12.549  15.694  72.601  1.00  0.00    -0.433 A  
HETATM   25  H   UNL     1     -12.476  16.683  74.362  1.00  0.00     0.000 HD 
HETATM   26  O   UNL     1     -12.863  15.943  73.909  1.00  0.00    -0.538 OA 
HETATM   27  C   UNL     1     -11.670  16.557  71.962  1.00  0.00    -0.301 A  
BRANCH  22  28
HETATM   28  O   UNL     1     -13.978  13.847  72.685  1.00  0.00    -0.684 OA 
HETATM   29  C   UNL     1     -14.084  12.470  72.346  1.00  0.00     0.222 C  
ENDBRANCH  22  28
ENDBRANCH  19  20
ENDBRANCH  16  18
ENDBRANCH  15  16
ENDBRANCH  13  15
ENDBRANCH  12  13
ENDBRANCH   5  11
ENDBRANCH   2   3
TORSDOF 8
ENDMDL
MODEL       21
REMARK 921   NORMALIZED FREE ENERGY PREDICTED BY IDOCK:   -6.45 KCAL/MOL
REMARK 922        TOTAL FREE ENERGY PREDICTED BY IDOCK:  -11.01 KCAL/MOL
REMARK 923 INTER-LIGAND FREE ENERGY PREDICTED BY IDOCK:   -9.37 KCAL/MOL
REMARK 924 INTRA-LIGAND FREE ENERGY PREDICTED BY IDOCK:   -1.64 KCAL/MOL
REMARK 927      BINDING AFFINITY PREDICTED BY RF-SCORE:    0.00 PKD
ROOT
HETATM    1  C   UNL     1     -12.917   9.948  70.999  1.00  0.00    -0.331 C  
HETATM    2  O   UNL     1     -11.548  10.275  71.218  1.00  0.00    -0.344 OA 
ENDROOT
BRANCH   2   3
HETATM    3  C   UNL     1     -10.698   9.934  70.195  1.00  0.00    -0.308 A  
HETATM    4  C   UNL     1     -10.965  10.214  68.852  1.00  0.00    -0.261 A  
HETATM    5  C   UNL     1     -10.089   9.810  67.836  1.00  0.00    -0.212 A  
HETATM    6  C   UNL     1      -8.884   9.194  68.193  1.00  0.00    -0.129 A  
HETATM    7  H   UNL     1      -8.395   8.614  72.070  1.00  0.00     0.000 HD 
HETATM    8  O   UNL     1      -9.214   9.038  71.842  1.00  0.00    -0.353 OA 
HETATM    9  C   UNL     1      -8.583   8.946  69.537  1.00  0.00    -0.134 A  
HETATM   10  C   UNL     1      -9.493   9.309  70.530  1.00  0.00    -0.264 A  
BRANCH   5  11
HETATM   11  C   UNL     1     -10.394  10.049  66.417  1.00  0.00    -0.249 C  
HETATM   12  C   UNL     1      -9.834  11.034  65.696  1.00  0.00    -0.287 C  
BRANCH  12  13
HETATM   13  C   UNL     1     -10.203  11.238  64.266  1.00  0.00    -0.327 C  
HETATM   14  O   UNL     1      -9.988  10.368  63.421  1.00  0.00    -0.267 OA 
BRANCH  13  15
HETATM   15  C   UNL     1     -10.868  12.534  63.893  1.00  0.00    -0.472 C  
BRANCH  15  16
HETATM   16  C   UNL     1     -12.134  12.786  64.662  1.00  0.00    -0.423 C  
HETATM   17  O   UNL     1     -13.186  12.229  64.353  1.00  0.00    -0.806 OA 
BRANCH  16  18
HETATM   18  C   UNL     1     -12.049  13.694  65.844  1.00  0.00    -0.476 C  
HETATM   19  C   UNL     1     -12.073  13.176  67.082  1.00  0.00    -0.343 C  
BRANCH  19  20
HETATM   20  C   UNL     1     -11.947  13.944  68.332  1.00  0.00    -0.391 A  
HETATM   21  C   UNL     1     -12.283  13.406  69.588  1.00  0.00    -0.279 A  
HETATM   22  C   UNL     1     -12.241  14.200  70.738  1.00  0.00    -0.365 A  
HETATM   23  C   UNL     1     -11.566  15.293  68.251  1.00  0.00    -0.357 A  
HETATM   24  C   UNL     1     -11.855  15.538  70.621  1.00  0.00    -0.365 A  
HETATM   25  H   UNL     1     -11.558  17.255  71.646  1.00  0.00     0.000 HD 
HETATM   26  O   UNL     1     -11.820  16.346  71.725  1.00  0.00    -0.472 OA 
HETATM   27  C   UNL     1     -11.513  16.090  69.395  1.00  0.00    -0.336 A  
BRANCH  22  28
HETATM   28  O   UNL     1     -12.564  13.796  72.007  1.00  0.00    -0.252 OA 
HETATM   29  C   UNL     1     -13.944  13.598  72.286  1.00  0.00    -0.563 C  
ENDBRANCH  22  28
ENDBRANCH  19  20
ENDBRANCH  16  18
ENDBRANCH  15  16
ENDBRANCH  13  15
ENDBRANCH  12  13
ENDBRANCH   5  11
ENDBRANCH   2   3
TORSDOF 8
ENDMDL
MODEL       22
REMARK 921   NORMALIZED FREE ENERGY PREDICTED BY IDOCK:   -6.43 KCAL/MOL
REMARK 922        TOTAL FREE ENERGY PREDICTED BY IDOCK:  -10.98 KCAL/MOL
REMARK 923 INTER-LIGAND FREE ENERGY PREDICTED BY IDOCK:   -9.70 KCAL/MOL
REMARK 924 INTRA-LIGAND FREE ENERGY PREDICTED BY IDOCK:   -1.28 KCAL/MOL
REMARK 927      BINDING AFFINITY PREDICTED BY RF-SCORE:    0.00 PKD
ROOT
HETATM    1  C   UNL     1     -10.584  19.631  65.764  1.00  0.00    -0.438 C  
HETATM    2  O   UNL     1      -9.598  18.715  66.232  1.00  0.00    -0.352 OA 
ENDROOT
BRANCH   2   3
HETATM    3  C   UNL     1     -10.082  17.678  66.991  1.00  0.00    -0.330 A  
HETATM    4  C   UNL     1     -10.530  16.473  66.442  1.00  0.00    -0.275 A  
HETATM    5  C   UNL     1     -11.056  15.456  67.251  1.00  0.00    -0.302 A  
HETATM    6  C   UNL     1     -11.043  15.628  68.640  1.00  0.00    -0.317 A  
HETATM    7  H   UNL     1      -9.644  19.110  69.875  1.00  0.00     0.000 HD 
HETATM    8  O   UNL     1      -9.641  19.004  68.931  1.00  0.00    -0.376 OA 
HETATM    9  C   UNL     1     -10.557  16.812  69.206  1.00  0.00    -0.336 A  
HETATM   10  C   UNL     1     -10.087  17.833  68.380  1.00  0.00    -0.376 A  
BRANCH   5  11
HETATM   11  C   UNL     1     -11.584  14.211  66.675  1.00  0.00    -0.399 C  
HETATM   12  C   UNL     1     -11.342  13.818  65.413  1.00  0.00    -0.314 C  
BRANCH  12  13
HETATM   13  C   UNL     1     -11.927  12.554  64.881  1.00  0.00    -0.412 C  
HETATM   14  O   UNL     1     -13.139  12.437  64.702  1.00  0.00    -0.825 OA 
BRANCH  13  15
HETATM   15  C   UNL     1     -10.983  11.432  64.550  1.00  0.00    -0.346 C  
BRANCH  15  16
HETATM   16  C   UNL     1     -10.098  11.050  65.703  1.00  0.00    -0.256 C  
HETATM   17  O   UNL     1      -8.892  11.299  65.687  1.00  0.00    -0.189 OA 
BRANCH  16  18
HETATM   18  C   UNL     1     -10.748  10.408  66.884  1.00  0.00    -0.272 C  
HETATM   19  C   UNL     1     -10.700  11.017  68.079  1.00  0.00    -0.260 C  
BRANCH  19  20
HETATM   20  C   UNL     1     -11.338  10.528  69.313  1.00  0.00    -0.325 A  
HETATM   21  C   UNL     1     -12.167  11.339  70.109  1.00  0.00    -0.410 A  
HETATM   22  C   UNL     1     -12.674  10.866  71.323  1.00  0.00    -0.437 A  
HETATM   23  C   UNL     1     -11.026   9.233  69.757  1.00  0.00    -0.213 A  
HETATM   24  C   UNL     1     -12.345   9.571  71.733  1.00  0.00    -0.394 A  
HETATM   25  H   UNL     1     -12.587   8.204  73.203  1.00  0.00     0.000 HD 
HETATM   26  O   UNL     1     -12.810   9.084  72.925  1.00  0.00    -0.305 OA 
HETATM   27  C   UNL     1     -11.534   8.750  70.963  1.00  0.00    -0.337 A  
BRANCH  22  28
HETATM   28  O   UNL     1     -13.471  11.566  72.190  1.00  0.00    -0.410 OA 
HETATM   29  C   UNL     1     -13.458  12.983  72.073  1.00  0.00    -0.492 C  
ENDBRANCH  22  28
ENDBRANCH  19  20
ENDBRANCH  16  18
ENDBRANCH  15  16
ENDBRANCH  13  15
ENDBRANCH  12  13
ENDBRANCH   5  11
ENDBRANCH   2   3
TORSDOF 8
ENDMDL
MODEL       23
REMARK 921   NORMALIZED FREE ENERGY PREDICTED BY IDOCK:   -6.42 KCAL/MOL
REMARK 922        TOTAL FREE ENERGY PREDICTED BY IDOCK:  -10.97 KCAL/MOL
REMARK 923 INTER-LIGAND FREE ENERGY PREDICTED BY IDOCK:   -9.34 KCAL/MOL
REMARK 924 INTRA-LIGAND FREE ENERGY PREDICTED BY IDOCK:   -1.64 KCAL/MOL
REMARK 927      BINDING AFFINITY PREDICTED BY RF-SCORE:    0.00 PKD
ROOT
HETATM    1  C   UNL     1     -10.635  19.611  65.943  1.00  0.00    -0.466 C  
HETATM    2  O   UNL     1     -10.238  18.271  65.662  1.00  0.00    -0.573 OA 
ENDROOT
BRANCH   2   3
HETATM    3  C   UNL     1      -9.593  17.629  66.689  1.00  0.00    -0.295 A  
HETATM    4  C   UNL     1     -10.265  16.977  67.727  1.00  0.00    -0.312 A  
HETATM    5  C   UNL     1      -9.566  16.370  68.779  1.00  0.00    -0.249 A  
HETATM    6  C   UNL     1      -8.167  16.344  68.730  1.00  0.00    -0.234 A  
HETATM    7  H   UNL     1      -6.575  18.207  65.632  1.00  0.00     0.000 HD 
HETATM    8  O   UNL     1      -7.525  18.226  65.648  1.00  0.00    -0.532 OA 
HETATM    9  C   UNL     1      -7.481  16.955  67.675  1.00  0.00    -0.176 A  
HETATM   10  C   UNL     1      -8.195  17.601  66.665  1.00  0.00    -0.260 A  
BRANCH   5  11
HETATM   11  C   UNL     1     -10.268  15.735  69.904  1.00  0.00    -0.277 C  
HETATM   12  C   UNL     1     -11.335  16.281  70.514  1.00  0.00    -0.318 C  
BRANCH  12  13
HETATM   13  C   UNL     1     -11.988  15.597  71.666  1.00  0.00    -0.430 C  
HETATM   14  O   UNL     1     -11.539  15.699  72.808  1.00  0.00    -0.444 OA 
BRANCH  13  15
HETATM   15  C   UNL     1     -13.230  14.795  71.390  1.00  0.00    -0.442 C  
BRANCH  15  16
HETATM   16  C   UNL     1     -13.031  13.319  71.585  1.00  0.00    -0.349 C  
HETATM   17  O   UNL     1     -13.488  12.742  72.572  1.00  0.00    -0.518 OA 
BRANCH  16  18
HETATM   18  C   UNL     1     -12.307  12.576  70.512  1.00  0.00    -0.345 C  
HETATM   19  C   UNL     1     -12.406  12.987  69.238  1.00  0.00     0.017 C  
BRANCH  19  20
HETATM   20  C   UNL     1     -11.710  12.385  68.089  1.00  0.00    -0.408 A  
HETATM   21  C   UNL     1     -11.590  13.039  66.849  1.00  0.00    -0.419 A  
HETATM   22  C   UNL     1     -11.006  12.391  65.755  1.00  0.00    -0.298 A  
HETATM   23  C   UNL     1     -11.233  11.070  68.212  1.00  0.00    -0.340 A  
HETATM   24  C   UNL     1     -10.540  11.084  65.915  1.00  0.00    -0.206 A  
HETATM   25  H   UNL     1      -9.663   9.528  64.967  1.00  0.00     0.000 HD 
HETATM   26  O   UNL     1      -9.980  10.416  64.859  1.00  0.00    -0.306 OA 
HETATM   27  C   UNL     1     -10.642  10.420  67.129  1.00  0.00    -0.319 A  
BRANCH  22  28
HETATM   28  O   UNL     1     -10.853  12.915  64.499  1.00  0.00    -0.321 OA 
HETATM   29  C   UNL     1     -12.030  13.056  63.713  1.00  0.00    -0.518 C  
ENDBRANCH  22  28
ENDBRANCH  19  20
ENDBRANCH  16  18
ENDBRANCH  15  16
ENDBRANCH  13  15
ENDBRANCH  12  13
ENDBRANCH   5  11
ENDBRANCH   2   3
TORSDOF 8
ENDMDL
MODEL       24
REMARK 921   NORMALIZED FREE ENERGY PREDICTED BY IDOCK:   -6.42 KCAL/MOL
REMARK 922        TOTAL FREE ENERGY PREDICTED BY IDOCK:  -10.96 KCAL/MOL
REMARK 923 INTER-LIGAND FREE ENERGY PREDICTED BY IDOCK:   -9.38 KCAL/MOL
REMARK 924 INTRA-LIGAND FREE ENERGY PREDICTED BY IDOCK:   -1.58 KCAL/MOL
REMARK 927      BINDING AFFINITY PREDICTED BY RF-SCORE:    0.00 PKD
ROOT
HETATM    1  C   UNL     1      -9.368  10.420  62.657  1.00  0.00    -0.310 C  
HETATM    2  O   UNL     1     -10.096  11.577  63.061  1.00  0.00    -0.346 OA 
ENDROOT
BRANCH   2   3
HETATM    3  C   UNL     1     -10.542  11.559  64.359  1.00  0.00    -0.334 A  
HETATM    4  C   UNL     1     -10.263  10.518  65.250  1.00  0.00    -0.352 A  
HETATM    5  C   UNL     1     -10.774  10.520  66.555  1.00  0.00    -0.191 A  
HETATM    6  C   UNL     1     -11.500  11.635  66.990  1.00  0.00    -0.336 A  
HETATM    7  H   UNL     1     -12.048  14.436  64.260  1.00  0.00     0.000 HD 
HETATM    8  O   UNL     1     -11.548  13.689  63.953  1.00  0.00    -0.356 OA 
HETATM    9  C   UNL     1     -11.750  12.704  66.123  1.00  0.00    -0.461 A  
HETATM   10  C   UNL     1     -11.278  12.658  64.811  1.00  0.00    -0.302 A  
BRANCH   5  11
HETATM   11  C   UNL     1     -10.535   9.400  67.476  1.00  0.00    -0.343 C  
HETATM   12  C   UNL     1      -9.598   9.421  68.440  1.00  0.00    -0.157 C  
BRANCH  12  13
HETATM   13  C   UNL     1      -9.390   8.242  69.328  1.00  0.00    -0.155 C  
HETATM   14  O   UNL     1      -8.867   7.210  68.907  1.00  0.00    -0.131 OA 
BRANCH  13  15
HETATM   15  C   UNL     1      -9.819   8.364  70.764  1.00  0.00    -0.215 C  
BRANCH  15  16
HETATM   16  C   UNL     1     -11.312   8.401  70.929  1.00  0.00    -0.268 C  
HETATM   17  O   UNL     1     -11.998   7.401  70.716  1.00  0.00    -0.292 OA 
BRANCH  16  18
HETATM   18  C   UNL     1     -11.918   9.677  71.410  1.00  0.00    -0.480 C  
HETATM   19  C   UNL     1     -11.912  10.757  70.613  1.00  0.00    -0.466 C  
BRANCH  19  20
HETATM   20  C   UNL     1     -12.515  12.061  70.935  1.00  0.00    -0.384 A  
HETATM   21  C   UNL     1     -12.172  13.242  70.254  1.00  0.00    -0.391 A  
HETATM   22  C   UNL     1     -12.697  14.475  70.656  1.00  0.00    -0.360 A  
HETATM   23  C   UNL     1     -13.396  12.136  72.027  1.00  0.00    -0.470 A  
HETATM   24  C   UNL     1     -13.572  14.513  71.745  1.00  0.00    -0.391 A  
HETATM   25  H   UNL     1     -14.683  15.732  72.915  1.00  0.00     0.000 HD 
HETATM   26  O   UNL     1     -14.088  15.706  72.175  1.00  0.00    -0.513 OA 
HETATM   27  C   UNL     1     -13.930  13.360  72.429  1.00  0.00    -0.605 A  
BRANCH  22  28
HETATM   28  O   UNL     1     -12.422  15.690  70.087  1.00  0.00    -0.389 OA 
HETATM   29  C   UNL     1     -11.669  15.679  68.882  1.00  0.00    -0.384 C  
ENDBRANCH  22  28
ENDBRANCH  19  20
ENDBRANCH  16  18
ENDBRANCH  15  16
ENDBRANCH  13  15
ENDBRANCH  12  13
ENDBRANCH   5  11
ENDBRANCH   2   3
TORSDOF 8
ENDMDL
MODEL       25
REMARK 921   NORMALIZED FREE ENERGY PREDICTED BY IDOCK:   -6.40 KCAL/MOL
REMARK 922        TOTAL FREE ENERGY PREDICTED BY IDOCK:  -10.93 KCAL/MOL
REMARK 923 INTER-LIGAND FREE ENERGY PREDICTED BY IDOCK:   -9.38 KCAL/MOL
REMARK 924 INTRA-LIGAND FREE ENERGY PREDICTED BY IDOCK:   -1.56 KCAL/MOL
REMARK 927      BINDING AFFINITY PREDICTED BY RF-SCORE:    0.00 PKD
ROOT
HETATM    1  C   UNL     1      -9.968  18.646  68.346  1.00  0.00    -0.387 C  
HETATM    2  O   UNL     1     -10.341  17.766  69.403  1.00  0.00    -0.253 OA 
ENDROOT
BRANCH   2   3
HETATM    3  C   UNL     1     -10.828  16.547  69.000  1.00  0.00    -0.329 A  
HETATM    4  C   UNL     1     -10.765  16.097  67.678  1.00  0.00    -0.318 A  
HETATM    5  C   UNL     1     -11.313  14.863  67.302  1.00  0.00    -0.355 A  
HETATM    6  C   UNL     1     -11.848  14.035  68.297  1.00  0.00    -0.406 A  
HETATM    7  H   UNL     1     -11.806  15.563  71.939  1.00  0.00     0.000 HD 
HETATM    8  O   UNL     1     -11.434  16.133  71.276  1.00  0.00    -0.418 OA 
HETATM    9  C   UNL     1     -11.878  14.454  69.631  1.00  0.00    -0.372 A  
HETATM   10  C   UNL     1     -11.376  15.709  69.975  1.00  0.00    -0.334 A  
BRANCH   5  11
HETATM   11  C   UNL     1     -11.304  14.411  65.903  1.00  0.00    -0.332 C  
HETATM   12  C   UNL     1     -12.330  13.760  65.329  1.00  0.00    -0.491 C  
BRANCH  12  13
HETATM   13  C   UNL     1     -12.249  13.308  63.911  1.00  0.00    -0.425 C  
HETATM   14  O   UNL     1     -12.435  14.091  62.980  1.00  0.00    -0.641 OA 
BRANCH  13  15
HETATM   15  C   UNL     1     -11.911  11.865  63.656  1.00  0.00    -0.578 C  
BRANCH  15  16
HETATM   16  C   UNL     1     -10.496  11.521  64.024  1.00  0.00    -0.370 C  
HETATM   17  O   UNL     1      -9.544  12.043  63.444  1.00  0.00    -0.279 OA 
BRANCH  16  18
HETATM   18  C   UNL     1     -10.294  10.564  65.152  1.00  0.00    -0.310 C  
HETATM   19  C   UNL     1     -10.823  10.836  66.355  1.00  0.00    -0.172 C  
BRANCH  19  20
HETATM   20  C   UNL     1     -10.749   9.963  67.539  1.00  0.00    -0.333 A  
HETATM   21  C   UNL     1     -11.065  10.415  68.833  1.00  0.00    -0.296 A  
HETATM   22  C   UNL     1     -10.887   9.582  69.942  1.00  0.00    -0.246 A  
HETATM   23  C   UNL     1     -10.251   8.660  67.376  1.00  0.00    -0.329 A  
HETATM   24  C   UNL     1     -10.392   8.290  69.743  1.00  0.00    -0.216 A  
HETATM   25  H   UNL     1      -9.853   6.578  70.675  1.00  0.00     0.000 HD 
HETATM   26  O   UNL     1     -10.189   7.457  70.810  1.00  0.00    -0.197 OA 
HETATM   27  C   UNL     1     -10.078   7.820  68.476  1.00  0.00    -0.216 A  
BRANCH  22  28
HETATM   28  O   UNL     1     -11.139   9.914  71.247  1.00  0.00    -0.351 OA 
HETATM   29  C   UNL     1     -12.473  10.288  71.568  1.00  0.00    -0.422 C  
ENDBRANCH  22  28
ENDBRANCH  19  20
ENDBRANCH  16  18
ENDBRANCH  15  16
ENDBRANCH  13  15
ENDBRANCH  12  13
ENDBRANCH   5  11
ENDBRANCH   2   3
TORSDOF 8
ENDMDL
MODEL       26
REMARK 921   NORMALIZED FREE ENERGY PREDICTED BY IDOCK:   -6.38 KCAL/MOL
REMARK 922        TOTAL FREE ENERGY PREDICTED BY IDOCK:  -10.92 KCAL/MOL
REMARK 923 INTER-LIGAND FREE ENERGY PREDICTED BY IDOCK:   -9.29 KCAL/MOL
REMARK 924 INTRA-LIGAND FREE ENERGY PREDICTED BY IDOCK:   -1.62 KCAL/MOL
REMARK 927      BINDING AFFINITY PREDICTED BY RF-SCORE:    0.00 PKD
ROOT
HETATM    1  C   UNL     1     -12.730  11.149  71.250  1.00  0.00    -0.426 C  
HETATM    2  O   UNL     1     -13.296  12.369  71.722  1.00  0.00    -0.414 OA 
ENDROOT
BRANCH   2   3
HETATM    3  C   UNL     1     -12.697  13.509  71.247  1.00  0.00    -0.348 A  
HETATM    4  C   UNL     1     -12.126  13.600  69.974  1.00  0.00    -0.417 A  
HETATM    5  C   UNL     1     -11.488  14.772  69.545  1.00  0.00    -0.331 A  
HETATM    6  C   UNL     1     -11.509  15.894  70.382  1.00  0.00    -0.393 A  
HETATM    7  H   UNL     1     -13.264  15.334  73.876  1.00  0.00     0.000 HD 
HETATM    8  O   UNL     1     -13.263  14.566  73.316  1.00  0.00    -0.606 OA 
HETATM    9  C   UNL     1     -12.114  15.831  71.642  1.00  0.00    -0.522 A  
HETATM   10  C   UNL     1     -12.698  14.639  72.071  1.00  0.00    -0.334 A  
BRANCH   5  11
HETATM   11  C   UNL     1     -10.833  14.854  68.231  1.00  0.00    -0.257 C  
HETATM   12  C   UNL     1     -11.406  15.414  67.152  1.00  0.00    -0.203 C  
BRANCH  12  13
HETATM   13  C   UNL     1     -10.697  15.446  65.841  1.00  0.00    -0.336 C  
HETATM   14  O   UNL     1     -10.382  16.511  65.311  1.00  0.00    -0.596 OA 
BRANCH  13  15
HETATM   15  C   UNL     1     -10.359  14.129  65.198  1.00  0.00    -0.429 C  
BRANCH  15  16
HETATM   16  C   UNL     1     -11.559  13.246  65.004  1.00  0.00    -0.316 C  
HETATM   17  O   UNL     1     -12.575  13.667  64.452  1.00  0.00    -0.624 OA 
BRANCH  16  18
HETATM   18  C   UNL     1     -11.447  11.828  65.457  1.00  0.00    -0.241 C  
HETATM   19  C   UNL     1     -10.748  11.539  66.566  1.00  0.00    -0.318 C  
BRANCH  19  20
HETATM   20  C   UNL     1     -10.596  10.198  67.156  1.00  0.00    -0.308 A  
HETATM   21  C   UNL     1     -10.765   9.953  68.530  1.00  0.00    -0.260 A  
HETATM   22  C   UNL     1     -10.517   8.684  69.064  1.00  0.00    -0.199 A  
HETATM   23  C   UNL     1     -10.174   9.148  66.325  1.00  0.00    -0.257 A  
HETATM   24  C   UNL     1     -10.100   7.662  68.207  1.00  0.00    -0.186 A  
HETATM   25  H   UNL     1      -9.548   5.718  68.119  1.00  0.00     0.000 HD 
HETATM   26  O   UNL     1      -9.831   6.414  68.701  1.00  0.00    -0.138 OA 
HETATM   27  C   UNL     1      -9.931   7.878  66.847  1.00  0.00    -0.332 A  
BRANCH  22  28
HETATM   28  O   UNL     1     -10.627   8.330  70.383  1.00  0.00    -0.215 OA 
HETATM   29  C   UNL     1      -9.692   8.911  71.283  1.00  0.00    -0.289 C  
ENDBRANCH  22  28
ENDBRANCH  19  20
ENDBRANCH  16  18
ENDBRANCH  15  16
ENDBRANCH  13  15
ENDBRANCH  12  13
ENDBRANCH   5  11
ENDBRANCH   2   3
TORSDOF 8
ENDMDL
MODEL       27
REMARK 921   NORMALIZED FREE ENERGY PREDICTED BY IDOCK:   -6.35 KCAL/MOL
REMARK 922        TOTAL FREE ENERGY PREDICTED BY IDOCK:  -10.86 KCAL/MOL
REMARK 923 INTER-LIGAND FREE ENERGY PREDICTED BY IDOCK:   -9.14 KCAL/MOL
REMARK 924 INTRA-LIGAND FREE ENERGY PREDICTED BY IDOCK:   -1.72 KCAL/MOL
REMARK 927      BINDING AFFINITY PREDICTED BY RF-SCORE:    0.00 PKD
ROOT
HETATM    1  C   UNL     1     -10.793   6.236  67.006  1.00  0.00    -0.383 C  
HETATM    2  O   UNL     1      -9.955   6.827  67.995  1.00  0.00    -0.137 OA 
ENDROOT
BRANCH   2   3
HETATM    3  C   UNL     1     -10.238   8.138  68.287  1.00  0.00    -0.206 A  
HETATM    4  C   UNL     1     -10.576   9.084  67.314  1.00  0.00    -0.301 A  
HETATM    5  C   UNL     1     -10.817  10.422  67.652  1.00  0.00    -0.361 A  
HETATM    6  C   UNL     1     -10.804  10.787  69.005  1.00  0.00    -0.278 A  
HETATM    7  H   UNL     1      -9.890   7.870  71.507  1.00  0.00     0.000 HD 
HETATM    8  O   UNL     1      -9.902   7.607  70.594  1.00  0.00    -0.182 OA 
HETATM    9  C   UNL     1     -10.509   9.841  69.993  1.00  0.00    -0.314 A  
HETATM   10  C   UNL     1     -10.221   8.526  69.630  1.00  0.00    -0.209 A  
BRANCH   5  11
HETATM   11  C   UNL     1     -11.113  11.433  66.627  1.00  0.00    -0.333 C  
HETATM   12  C   UNL     1     -10.313  11.678  65.575  1.00  0.00    -0.309 C  
BRANCH  12  13
HETATM   13  C   UNL     1     -10.659  12.734  64.582  1.00  0.00    -0.349 C  
HETATM   14  O   UNL     1     -10.194  12.715  63.442  1.00  0.00    -0.370 OA 
BRANCH  13  15
HETATM   15  C   UNL     1     -11.615  13.812  65.012  1.00  0.00    -0.350 C  
BRANCH  15  16
HETATM   16  C   UNL     1     -10.921  15.037  65.536  1.00  0.00    -0.358 C  
HETATM   17  O   UNL     1     -10.454  15.879  64.769  1.00  0.00    -0.538 OA 
BRANCH  16  18
HETATM   18  C   UNL     1     -10.869  15.216  67.017  1.00  0.00    -0.314 C  
HETATM   19  C   UNL     1     -11.829  14.676  67.784  1.00  0.00    -0.359 C  
BRANCH  19  20
HETATM   20  C   UNL     1     -11.878  14.729  69.255  1.00  0.00    -0.352 A  
HETATM   21  C   UNL     1     -12.516  13.741  70.026  1.00  0.00    -0.301 A  
HETATM   22  C   UNL     1     -12.624  13.880  71.414  1.00  0.00    -0.361 A  
HETATM   23  C   UNL     1     -11.349  15.859  69.900  1.00  0.00    -0.348 A  
HETATM   24  C   UNL     1     -12.084  15.015  72.023  1.00  0.00    -0.379 A  
HETATM   25  H   UNL     1     -11.822  15.961  73.791  1.00  0.00     0.000 HD 
HETATM   26  O   UNL     1     -12.189  15.189  73.377  1.00  0.00    -0.416 OA 
HETATM   27  C   UNL     1     -11.445  16.001  71.284  1.00  0.00    -0.475 A  
BRANCH  22  28
HETATM   28  O   UNL     1     -13.238  12.999  72.265  1.00  0.00    -0.471 OA 
HETATM   29  C   UNL     1     -13.127  11.617  71.949  1.00  0.00    -0.385 C  
ENDBRANCH  22  28
ENDBRANCH  19  20
ENDBRANCH  16  18
ENDBRANCH  15  16
ENDBRANCH  13  15
ENDBRANCH  12  13
ENDBRANCH   5  11
ENDBRANCH   2   3
TORSDOF 8
ENDMDL
MODEL       28
REMARK 921   NORMALIZED FREE ENERGY PREDICTED BY IDOCK:   -6.33 KCAL/MOL
REMARK 922        TOTAL FREE ENERGY PREDICTED BY IDOCK:  -10.84 KCAL/MOL
REMARK 923 INTER-LIGAND FREE ENERGY PREDICTED BY IDOCK:   -9.95 KCAL/MOL
REMARK 924 INTRA-LIGAND FREE ENERGY PREDICTED BY IDOCK:   -0.89 KCAL/MOL
REMARK 927      BINDING AFFINITY PREDICTED BY RF-SCORE:    0.00 PKD
ROOT
HETATM    1  C   UNL     1      -8.717   8.755  70.096  1.00  0.00    -0.149 C  
HETATM    2  O   UNL     1      -9.759   7.845  70.438  1.00  0.00    -0.178 OA 
ENDROOT
BRANCH   2   3
HETATM    3  C   UNL     1     -10.941   8.432  70.816  1.00  0.00    -0.247 A  
HETATM    4  C   UNL     1     -11.120   9.817  70.888  1.00  0.00    -0.428 A  
HETATM    5  C   UNL     1     -12.332  10.373  71.318  1.00  0.00    -0.507 A  
HETATM    6  C   UNL     1     -13.405   9.516  71.593  1.00  0.00    -0.485 A  
HETATM    7  H   UNL     1     -12.599   5.667  71.223  1.00  0.00     0.000 HD 
HETATM    8  O   UNL     1     -11.864   6.236  71.027  1.00  0.00    -0.305 OA 
HETATM    9  C   UNL     1     -13.253   8.129  71.484  1.00  0.00    -0.310 A  
HETATM   10  C   UNL     1     -12.022   7.594  71.104  1.00  0.00    -0.297 A  
BRANCH   5  11
HETATM   11  C   UNL     1     -12.506  11.826  71.454  1.00  0.00    -0.281 C  
HETATM   12  C   UNL     1     -13.362  12.392  72.322  1.00  0.00    -0.427 C  
BRANCH  12  13
HETATM   13  C   UNL     1     -13.509  13.873  72.394  1.00  0.00    -0.560 C  
HETATM   14  O   UNL     1     -14.408  14.456  71.787  1.00  0.00    -0.474 OA 
BRANCH  13  15
HETATM   15  C   UNL     1     -12.535  14.631  73.253  1.00  0.00    -0.444 C  
BRANCH  15  16
HETATM   16  C   UNL     1     -11.947  15.827  72.558  1.00  0.00    -0.495 C  
HETATM   17  O   UNL     1     -11.970  16.940  73.083  1.00  0.00    -0.349 OA 
BRANCH  16  18
HETATM   18  C   UNL     1     -11.291  15.600  71.237  1.00  0.00    -0.451 C  
HETATM   19  C   UNL     1     -11.950  15.904  70.108  1.00  0.00    -0.306 C  
BRANCH  19  20
HETATM   20  C   UNL     1     -11.410  15.780  68.743  1.00  0.00    -0.362 A  
HETATM   21  C   UNL     1     -10.769  16.844  68.084  1.00  0.00    -0.375 A  
HETATM   22  C   UNL     1     -10.358  16.714  66.753  1.00  0.00    -0.295 A  
HETATM   23  C   UNL     1     -11.632  14.582  68.045  1.00  0.00    -0.364 A  
HETATM   24  C   UNL     1     -10.592  15.507  66.089  1.00  0.00    -0.315 A  
HETATM   25  H   UNL     1     -10.377  14.534  64.330  1.00  0.00     0.000 HD 
HETATM   26  O   UNL     1     -10.218  15.354  64.782  1.00  0.00    -0.301 OA 
HETATM   27  C   UNL     1     -11.218  14.441  66.720  1.00  0.00    -0.340 A  
BRANCH  22  28
HETATM   28  O   UNL     1      -9.744  17.682  66.003  1.00  0.00    -0.488 OA 
HETATM   29  C   UNL     1     -10.131  19.028  66.249  1.00  0.00    -0.422 C  
ENDBRANCH  22  28
ENDBRANCH  19  20
ENDBRANCH  16  18
ENDBRANCH  15  16
ENDBRANCH  13  15
ENDBRANCH  12  13
ENDBRANCH   5  11
ENDBRANCH   2   3
TORSDOF 8
ENDMDL
MODEL       29
REMARK 921   NORMALIZED FREE ENERGY PREDICTED BY IDOCK:   -6.29 KCAL/MOL
REMARK 922        TOTAL FREE ENERGY PREDICTED BY IDOCK:  -10.78 KCAL/MOL
REMARK 923 INTER-LIGAND FREE ENERGY PREDICTED BY IDOCK:   -9.36 KCAL/MOL
REMARK 924 INTRA-LIGAND FREE ENERGY PREDICTED BY IDOCK:   -1.42 KCAL/MOL
REMARK 927      BINDING AFFINITY PREDICTED BY RF-SCORE:    0.00 PKD
ROOT
HETATM    1  C   UNL     1     -12.837  11.117  71.474  1.00  0.00    -0.437 C  
HETATM    2  O   UNL     1     -13.330  12.356  71.977  1.00  0.00    -0.507 OA 
ENDROOT
BRANCH   2   3
HETATM    3  C   UNL     1     -12.774  13.476  71.410  1.00  0.00    -0.336 A  
HETATM    4  C   UNL     1     -12.217  13.488  70.128  1.00  0.00    -0.400 A  
HETATM    5  C   UNL     1     -11.623  14.644  69.604  1.00  0.00    -0.349 A  
HETATM    6  C   UNL     1     -11.675  15.826  70.354  1.00  0.00    -0.390 A  
HETATM    7  H   UNL     1     -13.382  15.475  73.899  1.00  0.00     0.000 HD 
HETATM    8  O   UNL     1     -13.359  14.668  73.399  1.00  0.00    -0.563 OA 
HETATM    9  C   UNL     1     -12.268  15.838  71.621  1.00  0.00    -0.523 A  
HETATM   10  C   UNL     1     -12.807  14.664  72.146  1.00  0.00    -0.333 A  
BRANCH   5  11
HETATM   11  C   UNL     1     -10.981  14.647  68.281  1.00  0.00    -0.261 C  
HETATM   12  C   UNL     1     -11.637  14.928  67.142  1.00  0.00    -0.327 C  
BRANCH  12  13
HETATM   13  C   UNL     1     -10.933  14.892  65.828  1.00  0.00    -0.345 C  
HETATM   14  O   UNL     1      -9.782  15.312  65.708  1.00  0.00    -0.327 OA 
BRANCH  13  15
HETATM   15  C   UNL     1     -11.670  14.304  64.657  1.00  0.00    -0.439 C  
BRANCH  15  16
HETATM   16  C   UNL     1     -12.126  12.893  64.899  1.00  0.00    -0.432 C  
HETATM   17  O   UNL     1     -13.240  12.515  64.536  1.00  0.00    -0.832 OA 
BRANCH  16  18
HETATM   18  C   UNL     1     -11.155  11.960  65.543  1.00  0.00    -0.356 C  
HETATM   19  C   UNL     1     -11.395  11.506  66.784  1.00  0.00    -0.309 C  
BRANCH  19  20
HETATM   20  C   UNL     1     -10.556  10.546  67.520  1.00  0.00    -0.306 A  
HETATM   21  C   UNL     1     -10.740   9.155  67.429  1.00  0.00    -0.247 A  
HETATM   22  C   UNL     1      -9.985   8.282  68.220  1.00  0.00    -0.191 A  
HETATM   23  C   UNL     1      -9.600  11.048  68.418  1.00  0.00    -0.181 A  
HETATM   24  C   UNL     1      -9.041   8.816  69.100  1.00  0.00    -0.141 A  
HETATM   25  H   UNL     1      -7.657   8.353  70.500  1.00  0.00     0.000 HD 
HETATM   26  O   UNL     1      -8.299   7.990  69.901  1.00  0.00    -0.118 OA 
HETATM   27  C   UNL     1      -8.837  10.185  69.204  1.00  0.00    -0.179 A  
BRANCH  22  28
HETATM   28  O   UNL     1     -10.088   6.916  68.234  1.00  0.00    -0.155 OA 
HETATM   29  C   UNL     1     -10.863   6.320  67.201  1.00  0.00    -0.381 C  
ENDBRANCH  22  28
ENDBRANCH  19  20
ENDBRANCH  16  18
ENDBRANCH  15  16
ENDBRANCH  13  15
ENDBRANCH  12  13
ENDBRANCH   5  11
ENDBRANCH   2   3
TORSDOF 8
ENDMDL
MODEL       30
REMARK 921   NORMALIZED FREE ENERGY PREDICTED BY IDOCK:   -6.29 KCAL/MOL
REMARK 922        TOTAL FREE ENERGY PREDICTED BY IDOCK:  -10.78 KCAL/MOL
REMARK 923 INTER-LIGAND FREE ENERGY PREDICTED BY IDOCK:   -9.27 KCAL/MOL
REMARK 924 INTRA-LIGAND FREE ENERGY PREDICTED BY IDOCK:   -1.51 KCAL/MOL
REMARK 927      BINDING AFFINITY PREDICTED BY RF-SCORE:    0.00 PKD
ROOT
HETATM    1  C   UNL     1     -12.247  12.505  63.734  1.00  0.00    -0.525 C  
HETATM    2  O   UNL     1     -10.993  12.436  64.406  1.00  0.00    -0.297 OA 
ENDROOT
BRANCH   2   3
HETATM    3  C   UNL     1     -11.046  11.939  65.685  1.00  0.00    -0.310 A  
HETATM    4  C   UNL     1     -11.670  12.608  66.741  1.00  0.00    -0.460 A  
HETATM    5  C   UNL     1     -11.664  12.083  68.040  1.00  0.00    -0.398 A  
HETATM    6  C   UNL     1     -11.097  10.821  68.253  1.00  0.00    -0.327 A  
HETATM    7  H   UNL     1      -9.485   9.159  65.052  1.00  0.00     0.000 HD 
HETATM    8  O   UNL     1      -9.872  10.012  64.892  1.00  0.00    -0.317 OA 
HETATM    9  C   UNL     1     -10.507  10.119  67.196  1.00  0.00    -0.305 A  
HETATM   10  C   UNL     1     -10.477  10.683  65.921  1.00  0.00    -0.174 A  
BRANCH   5  11
HETATM   11  C   UNL     1     -12.266  12.811  69.167  1.00  0.00    -0.065 C  
HETATM   12  C   UNL     1     -12.379  12.299  70.404  1.00  0.00    -0.309 C  
BRANCH  12  13
HETATM   13  C   UNL     1     -13.021  13.081  71.499  1.00  0.00    -0.305 C  
HETATM   14  O   UNL     1     -13.375  12.540  72.547  1.00  0.00    -0.413 OA 
BRANCH  13  15
HETATM   15  C   UNL     1     -13.201  14.558  71.290  1.00  0.00    -0.422 C  
BRANCH  15  16
HETATM   16  C   UNL     1     -12.008  15.362  71.723  1.00  0.00    -0.403 C  
HETATM   17  O   UNL     1     -11.580  15.293  72.875  1.00  0.00    -0.436 OA 
BRANCH  16  18
HETATM   18  C   UNL     1     -11.334  16.202  70.688  1.00  0.00    -0.394 C  
HETATM   19  C   UNL     1     -10.397  15.655  69.898  1.00  0.00    -0.322 C  
BRANCH  19  20
HETATM   20  C   UNL     1      -9.690  16.346  68.807  1.00  0.00    -0.250 A  
HETATM   21  C   UNL     1     -10.366  17.046  67.791  1.00  0.00    -0.335 A  
HETATM   22  C   UNL     1      -9.660  17.605  66.720  1.00  0.00    -0.294 A  
HETATM   23  C   UNL     1      -8.294  16.218  68.731  1.00  0.00    -0.235 A  
HETATM   24  C   UNL     1      -8.271  17.460  66.678  1.00  0.00    -0.256 A  
HETATM   25  H   UNL     1      -6.610  17.883  65.605  1.00  0.00     0.000 HD 
HETATM   26  O   UNL     1      -7.554  17.981  65.634  1.00  0.00    -0.545 OA 
HETATM   27  C   UNL     1      -7.582  16.780  67.671  1.00  0.00    -0.183 A  
BRANCH  22  28
HETATM   28  O   UNL     1     -10.207  18.288  65.666  1.00  0.00    -0.573 OA 
HETATM   29  C   UNL     1     -10.676  19.605  65.928  1.00  0.00    -0.413 C  
ENDBRANCH  22  28
ENDBRANCH  19  20
ENDBRANCH  16  18
ENDBRANCH  15  16
ENDBRANCH  13  15
ENDBRANCH  12  13
ENDBRANCH   5  11
ENDBRANCH   2   3
TORSDOF 8
ENDMDL
MODEL       31
REMARK 921   NORMALIZED FREE ENERGY PREDICTED BY IDOCK:   -6.24 KCAL/MOL
REMARK 922        TOTAL FREE ENERGY PREDICTED BY IDOCK:  -10.71 KCAL/MOL
REMARK 923 INTER-LIGAND FREE ENERGY PREDICTED BY IDOCK:   -9.27 KCAL/MOL
REMARK 924 INTRA-LIGAND FREE ENERGY PREDICTED BY IDOCK:   -1.44 KCAL/MOL
REMARK 927      BINDING AFFINITY PREDICTED BY RF-SCORE:    0.00 PKD
ROOT
HETATM    1  C   UNL     1      -5.878  15.507  70.247  1.00  0.00    -0.132 C  
HETATM    2  O   UNL     1      -5.629  16.789  69.677  1.00  0.00    -0.160 OA 
ENDROOT
BRANCH   2   3
HETATM    3  C   UNL     1      -6.656  17.299  68.923  1.00  0.00    -0.212 A  
HETATM    4  C   UNL     1      -7.419  16.525  68.044  1.00  0.00    -0.162 A  
HETATM    5  C   UNL     1      -8.432  17.095  67.262  1.00  0.00    -0.211 A  
HETATM    6  C   UNL     1      -8.736  18.451  67.441  1.00  0.00    -0.265 A  
HETATM    7  H   UNL     1      -6.451  20.340  70.051  1.00  0.00     0.000 HD 
HETATM    8  O   UNL     1      -6.238  19.420  69.945  1.00  0.00    -0.276 OA 
HETATM    9  C   UNL     1      -8.010  19.229  68.349  1.00  0.00    -0.376 A  
HETATM   10  C   UNL     1      -6.970  18.653  69.079  1.00  0.00    -0.281 A  
BRANCH   5  11
HETATM   11  C   UNL     1      -9.197  16.298  66.292  1.00  0.00    -0.363 C  
HETATM   12  C   UNL     1     -10.316  16.738  65.691  1.00  0.00    -0.284 C  
BRANCH  12  13
HETATM   13  C   UNL     1     -11.059  15.870  64.733  1.00  0.00    -0.384 C  
HETATM   14  O   UNL     1     -11.733  16.355  63.824  1.00  0.00    -1.049 OA 
BRANCH  13  15
HETATM   15  C   UNL     1     -10.938  14.381  64.900  1.00  0.00    -0.416 C  
BRANCH  15  16
HETATM   16  C   UNL     1     -12.087  13.781  65.660  1.00  0.00    -0.418 C  
HETATM   17  O   UNL     1     -13.091  13.373  65.076  1.00  0.00    -0.734 OA 
BRANCH  16  18
HETATM   18  C   UNL     1     -11.937  13.650  67.140  1.00  0.00    -0.434 C  
HETATM   19  C   UNL     1     -12.003  14.746  67.912  1.00  0.00    -0.260 C  
BRANCH  19  20
HETATM   20  C   UNL     1     -11.924  14.761  69.382  1.00  0.00    -0.339 A  
HETATM   21  C   UNL     1     -12.304  13.661  70.172  1.00  0.00    -0.372 A  
HETATM   22  C   UNL     1     -12.305  13.752  71.568  1.00  0.00    -0.194 A  
HETATM   23  C   UNL     1     -11.544  15.955  70.017  1.00  0.00    -0.346 A  
HETATM   24  C   UNL     1     -11.919  14.955  72.166  1.00  0.00    -0.331 A  
HETATM   25  H   UNL     1     -11.665  15.899  73.936  1.00  0.00     0.000 HD 
HETATM   26  O   UNL     1     -11.927  15.081  73.529  1.00  0.00    -0.387 OA 
HETATM   27  C   UNL     1     -11.535  16.052  71.408  1.00  0.00    -0.464 A  
BRANCH  22  28
HETATM   28  O   UNL     1     -12.673  12.760  72.438  1.00  0.00    -0.041 OA 
HETATM   29  C   UNL     1     -13.210  11.573  71.870  1.00  0.00    -0.374 C  
ENDBRANCH  22  28
ENDBRANCH  19  20
ENDBRANCH  16  18
ENDBRANCH  15  16
ENDBRANCH  13  15
ENDBRANCH  12  13
ENDBRANCH   5  11
ENDBRANCH   2   3
TORSDOF 8
ENDMDL
MODEL       32
REMARK 921   NORMALIZED FREE ENERGY PREDICTED BY IDOCK:   -6.24 KCAL/MOL
REMARK 922        TOTAL FREE ENERGY PREDICTED BY IDOCK:  -10.70 KCAL/MOL
REMARK 923 INTER-LIGAND FREE ENERGY PREDICTED BY IDOCK:   -9.47 KCAL/MOL
REMARK 924 INTRA-LIGAND FREE ENERGY PREDICTED BY IDOCK:   -1.24 KCAL/MOL
REMARK 927      BINDING AFFINITY PREDICTED BY RF-SCORE:    0.00 PKD
ROOT
HETATM    1  C   UNL     1     -13.395  13.078  72.010  1.00  0.00    -0.492 C  
HETATM    2  O   UNL     1     -13.589  11.667  72.037  1.00  0.00    -0.309 OA 
ENDROOT
BRANCH   2   3
HETATM    3  C   UNL     1     -12.716  10.945  71.261  1.00  0.00    -0.437 A  
HETATM    4  C   UNL     1     -12.099  11.464  70.118  1.00  0.00    -0.439 A  
HETATM    5  C   UNL     1     -11.246  10.678  69.332  1.00  0.00    -0.329 A  
HETATM    6  C   UNL     1     -10.943   9.380  69.760  1.00  0.00    -0.234 A  
HETATM    7  H   UNL     1     -12.785   8.242  73.063  1.00  0.00     0.000 HD 
HETATM    8  O   UNL     1     -12.995   9.127  72.788  1.00  0.00    -0.342 OA 
HETATM    9  C   UNL     1     -11.519   8.862  70.925  1.00  0.00    -0.339 A  
HETATM   10  C   UNL     1     -12.407   9.643  71.665  1.00  0.00    -0.404 A  
BRANCH   5  11
HETATM   11  C   UNL     1     -10.643  11.198  68.096  1.00  0.00    -0.227 C  
HETATM   12  C   UNL     1     -10.830  10.639  66.888  1.00  0.00    -0.267 C  
BRANCH  12  13
HETATM   13  C   UNL     1     -10.171  11.202  65.676  1.00  0.00    -0.256 C  
HETATM   14  O   UNL     1      -8.955  11.392  65.640  1.00  0.00    -0.198 OA 
BRANCH  13  15
HETATM   15  C   UNL     1     -11.039  11.510  64.487  1.00  0.00    -0.340 C  
BRANCH  15  16
HETATM   16  C   UNL     1     -11.919  12.709  64.699  1.00  0.00    -0.402 C  
HETATM   17  O   UNL     1     -13.145  12.618  64.623  1.00  0.00    -0.821 OA 
BRANCH  16  18
HETATM   18  C   UNL     1     -11.253  13.996  65.056  1.00  0.00    -0.352 C  
HETATM   19  C   UNL     1     -11.447  14.528  66.273  1.00  0.00    -0.358 C  
BRANCH  19  20
HETATM   20  C   UNL     1     -10.816  15.759  66.778  1.00  0.00    -0.254 A  
HETATM   21  C   UNL     1      -9.818  16.446  66.064  1.00  0.00    -0.362 A  
HETATM   22  C   UNL     1      -9.177  17.556  66.624  1.00  0.00    -0.262 A  
HETATM   23  C   UNL     1     -11.161  16.205  68.064  1.00  0.00    -0.317 A  
HETATM   24  C   UNL     1      -9.546  17.974  67.905  1.00  0.00    -0.284 A  
HETATM   25  H   UNL     1      -9.177  19.330  69.358  1.00  0.00     0.000 HD 
HETATM   26  O   UNL     1      -8.925  19.046  68.487  1.00  0.00    -0.332 OA 
HETATM   27  C   UNL     1     -10.532  17.316  68.627  1.00  0.00    -0.356 A  
BRANCH  22  28
HETATM   28  O   UNL     1      -8.181  18.291  66.036  1.00  0.00    -0.479 OA 
HETATM   29  C   UNL     1      -6.884  17.708  66.008  1.00  0.00    -0.273 C  
ENDBRANCH  22  28
ENDBRANCH  19  20
ENDBRANCH  16  18
ENDBRANCH  15  16
ENDBRANCH  13  15
ENDBRANCH  12  13
ENDBRANCH   5  11
ENDBRANCH   2   3
TORSDOF 8
ENDMDL
MODEL       33
REMARK 921   NORMALIZED FREE ENERGY PREDICTED BY IDOCK:   -6.23 KCAL/MOL
REMARK 922        TOTAL FREE ENERGY PREDICTED BY IDOCK:  -10.69 KCAL/MOL
REMARK 923 INTER-LIGAND FREE ENERGY PREDICTED BY IDOCK:   -9.24 KCAL/MOL
REMARK 924 INTRA-LIGAND FREE ENERGY PREDICTED BY IDOCK:   -1.45 KCAL/MOL
REMARK 927      BINDING AFFINITY PREDICTED BY RF-SCORE:    0.00 PKD
ROOT
HETATM    1  C   UNL     1     -10.349   8.735  71.848  1.00  0.00    -0.344 C  
HETATM    2  O   UNL     1     -11.548   8.895  71.094  1.00  0.00    -0.274 OA 
ENDROOT
BRANCH   2   3
HETATM    3  C   UNL     1     -11.568   9.985  70.260  1.00  0.00    -0.280 A  
HETATM    4  C   UNL     1     -11.004   9.981  68.981  1.00  0.00    -0.249 A  
HETATM    5  C   UNL     1     -11.010  11.130  68.178  1.00  0.00    -0.292 A  
HETATM    6  C   UNL     1     -11.678  12.270  68.642  1.00  0.00    -0.377 A  
HETATM    7  H   UNL     1     -13.233  11.934  72.258  1.00  0.00     0.000 HD 
HETATM    8  O   UNL     1     -12.789  11.151  71.953  1.00  0.00    -0.411 OA 
HETATM    9  C   UNL     1     -12.286  12.274  69.903  1.00  0.00    -0.234 A  
HETATM   10  C   UNL     1     -12.222  11.137  70.708  1.00  0.00    -0.385 A  
BRANCH   5  11
HETATM   11  C   UNL     1     -10.365  11.149  66.858  1.00  0.00    -0.272 C  
HETATM   12  C   UNL     1     -11.025  10.930  65.708  1.00  0.00    -0.045 C  
BRANCH  12  13
HETATM   13  C   UNL     1     -10.307  10.941  64.401  1.00  0.00    -0.361 C  
HETATM   14  O   UNL     1      -9.640   9.974  64.031  1.00  0.00    -0.285 OA 
BRANCH  13  15
HETATM   15  C   UNL     1     -10.444  12.164  63.539  1.00  0.00    -0.490 C  
BRANCH  15  16
HETATM   16  C   UNL     1     -11.760  12.867  63.722  1.00  0.00    -0.492 C  
HETATM   17  O   UNL     1     -12.776  12.471  63.152  1.00  0.00    -0.609 OA 
BRANCH  16  18
HETATM   18  C   UNL     1     -11.793  14.026  64.663  1.00  0.00    -0.433 C  
HETATM   19  C   UNL     1     -10.644  14.605  65.043  1.00  0.00    -0.461 C  
BRANCH  19  20
HETATM   20  C   UNL     1     -10.529  15.782  65.921  1.00  0.00    -0.366 A  
HETATM   21  C   UNL     1     -10.491  15.679  67.323  1.00  0.00    -0.292 A  
HETATM   22  C   UNL     1     -10.479  16.827  68.122  1.00  0.00    -0.332 A  
HETATM   23  C   UNL     1     -10.555  17.057  65.333  1.00  0.00    -0.147 A  
HETATM   24  C   UNL     1     -10.503  18.080  67.503  1.00  0.00    -0.396 A  
HETATM   25  H   UNL     1     -10.527  20.074  67.837  1.00  0.00     0.000 HD 
HETATM   26  O   UNL     1     -10.511  19.222  68.257  1.00  0.00    -0.390 OA 
HETATM   27  C   UNL     1     -10.535  18.207  66.122  1.00  0.00    -0.377 A  
BRANCH  22  28
HETATM   28  O   UNL     1     -10.463  16.854  69.491  1.00  0.00    -0.303 OA 
HETATM   29  C   UNL     1     -11.447  16.077  70.161  1.00  0.00    -0.344 C  
ENDBRANCH  22  28
ENDBRANCH  19  20
ENDBRANCH  16  18
ENDBRANCH  15  16
ENDBRANCH  13  15
ENDBRANCH  12  13
ENDBRANCH   5  11
ENDBRANCH   2   3
TORSDOF 8
ENDMDL
MODEL       34
REMARK 921   NORMALIZED FREE ENERGY PREDICTED BY IDOCK:   -6.21 KCAL/MOL
REMARK 922        TOTAL FREE ENERGY PREDICTED BY IDOCK:  -10.66 KCAL/MOL
REMARK 923 INTER-LIGAND FREE ENERGY PREDICTED BY IDOCK:   -8.99 KCAL/MOL
REMARK 924 INTRA-LIGAND FREE ENERGY PREDICTED BY IDOCK:   -1.67 KCAL/MOL
REMARK 927      BINDING AFFINITY PREDICTED BY RF-SCORE:    0.00 PKD
ROOT
HETATM    1  C   UNL     1     -10.572   5.747  70.205  1.00  0.00    -0.307 C  
HETATM    2  O   UNL     1      -9.930   6.882  70.780  1.00  0.00    -0.189 OA 
ENDROOT
BRANCH   2   3
HETATM    3  C   UNL     1     -10.568   8.079  70.570  1.00  0.00    -0.220 A  
HETATM    4  C   UNL     1     -10.635   8.701  69.319  1.00  0.00    -0.204 A  
HETATM    5  C   UNL     1     -11.261   9.944  69.158  1.00  0.00    -0.151 A  
HETATM    6  C   UNL     1     -11.906  10.520  70.259  1.00  0.00    -0.418 A  
HETATM    7  H   UNL     1     -11.598   8.477  73.626  1.00  0.00     0.000 HD 
HETATM    8  O   UNL     1     -11.161   8.072  72.886  1.00  0.00    -0.401 OA 
HETATM    9  C   UNL     1     -11.884   9.888  71.507  1.00  0.00    -0.445 A  
HETATM   10  C   UNL     1     -11.210   8.676  71.658  1.00  0.00    -0.309 A  
BRANCH   5  11
HETATM   11  C   UNL     1     -11.282  10.632  67.859  1.00  0.00    -0.376 C  
HETATM   12  C   UNL     1     -10.324  10.486  66.928  1.00  0.00    -0.293 C  
BRANCH  12  13
HETATM   13  C   UNL     1     -10.392  11.230  65.638  1.00  0.00    -0.256 C  
HETATM   14  O   UNL     1      -9.521  11.098  64.778  1.00  0.00    -0.220 OA 
BRANCH  13  15
HETATM   15  C   UNL     1     -11.574  12.132  65.413  1.00  0.00    -0.383 C  
BRANCH  15  16
HETATM   16  C   UNL     1     -11.203  13.588  65.379  1.00  0.00    -0.289 C  
HETATM   17  O   UNL     1     -11.079  14.186  64.310  1.00  0.00    -0.296 OA 
BRANCH  16  18
HETATM   18  C   UNL     1     -11.045  14.287  66.688  1.00  0.00    -0.321 C  
HETATM   19  C   UNL     1     -11.897  14.019  67.690  1.00  0.00    -0.430 C  
BRANCH  19  20
HETATM   20  C   UNL     1     -11.831  14.592  69.044  1.00  0.00    -0.346 A  
HETATM   21  C   UNL     1     -12.458  13.993  70.151  1.00  0.00    -0.380 A  
HETATM   22  C   UNL     1     -12.453  14.621  71.401  1.00  0.00    -0.344 A  
HETATM   23  C   UNL     1     -11.197  15.834  69.213  1.00  0.00    -0.324 A  
HETATM   24  C   UNL     1     -11.810  15.855  71.533  1.00  0.00    -0.468 A  
HETATM   25  H   UNL     1     -11.365  17.343  72.828  1.00  0.00     0.000 HD 
HETATM   26  O   UNL     1     -11.802  16.504  72.738  1.00  0.00    -0.539 OA 
HETATM   27  C   UNL     1     -11.180  16.464  70.457  1.00  0.00    -0.230 A  
BRANCH  22  28
HETATM   28  O   UNL     1     -13.043  14.147  72.542  1.00  0.00    -0.420 OA 
HETATM   29  C   UNL     1     -13.864  12.993  72.410  1.00  0.00    -0.427 C  
ENDBRANCH  22  28
ENDBRANCH  19  20
ENDBRANCH  16  18
ENDBRANCH  15  16
ENDBRANCH  13  15
ENDBRANCH  12  13
ENDBRANCH   5  11
ENDBRANCH   2   3
TORSDOF 8
ENDMDL
MODEL       35
REMARK 921   NORMALIZED FREE ENERGY PREDICTED BY IDOCK:   -6.17 KCAL/MOL
REMARK 922        TOTAL FREE ENERGY PREDICTED BY IDOCK:  -10.61 KCAL/MOL
REMARK 923 INTER-LIGAND FREE ENERGY PREDICTED BY IDOCK:   -8.85 KCAL/MOL
REMARK 924 INTRA-LIGAND FREE ENERGY PREDICTED BY IDOCK:   -1.75 KCAL/MOL
REMARK 927      BINDING AFFINITY PREDICTED BY RF-SCORE:    0.00 PKD
ROOT
HETATM    1  C   UNL     1     -11.682  15.617  64.496  1.00  0.00    -0.220 C  
HETATM    2  O   UNL     1     -10.458  16.125  65.020  1.00  0.00    -0.595 OA 
ENDROOT
BRANCH   2   3
HETATM    3  C   UNL     1     -10.485  16.442  66.356  1.00  0.00    -0.286 A  
HETATM    4  C   UNL     1     -11.160  15.677  67.311  1.00  0.00    -0.238 A  
HETATM    5  C   UNL     1     -11.197  16.061  68.658  1.00  0.00    -0.366 A  
HETATM    6  C   UNL     1     -10.464  17.185  69.057  1.00  0.00    -0.321 A  
HETATM    7  H   UNL     1      -8.606  19.085  66.134  1.00  0.00     0.000 HD 
HETATM    8  O   UNL     1      -9.094  18.320  65.850  1.00  0.00    -0.503 OA 
HETATM    9  C   UNL     1      -9.749  17.937  68.118  1.00  0.00    -0.320 A  
HETATM   10  C   UNL     1      -9.768  17.568  66.774  1.00  0.00    -0.295 A  
BRANCH   5  11
HETATM   11  C   UNL     1     -11.956  15.293  69.656  1.00  0.00    -0.364 C  
HETATM   12  C   UNL     1     -11.717  15.357  70.977  1.00  0.00    -0.408 C  
BRANCH  12  13
HETATM   13  C   UNL     1     -12.507  14.535  71.937  1.00  0.00    -0.332 C  
HETATM   14  O   UNL     1     -12.419  14.711  73.153  1.00  0.00    -0.362 OA 
BRANCH  13  15
HETATM   15  C   UNL     1     -13.434  13.496  71.369  1.00  0.00    -0.233 C  
BRANCH  15  16
HETATM   16  C   UNL     1     -12.845  12.113  71.384  1.00  0.00    -0.276 C  
HETATM   17  O   UNL     1     -13.185  11.288  72.231  1.00  0.00    -0.402 OA 
BRANCH  16  18
HETATM   18  C   UNL     1     -11.877  11.769  70.301  1.00  0.00    -0.382 C  
HETATM   19  C   UNL     1     -12.278  11.791  69.020  1.00  0.00    -0.132 C  
BRANCH  19  20
HETATM   20  C   UNL     1     -11.423  11.525  67.852  1.00  0.00    -0.372 A  
HETATM   21  C   UNL     1     -11.620  12.157  66.611  1.00  0.00    -0.416 A  
HETATM   22  C   UNL     1     -10.846  11.803  65.500  1.00  0.00    -0.297 A  
HETATM   23  C   UNL     1     -10.436  10.532  67.960  1.00  0.00    -0.232 A  
HETATM   24  C   UNL     1      -9.871  10.813  65.645  1.00  0.00    -0.245 A  
HETATM   25  H   UNL     1      -8.446   9.758  64.671  1.00  0.00     0.000 HD 
HETATM   26  O   UNL     1      -9.110  10.431  64.573  1.00  0.00    -0.194 OA 
HETATM   27  C   UNL     1      -9.654  10.179  66.860  1.00  0.00    -0.219 A  
BRANCH  22  28
HETATM   28  O   UNL     1     -10.958  12.330  64.241  1.00  0.00    -0.298 OA 
HETATM   29  C   UNL     1     -12.173  12.082  63.546  1.00  0.00    -0.547 C  
ENDBRANCH  22  28
ENDBRANCH  19  20
ENDBRANCH  16  18
ENDBRANCH  15  16
ENDBRANCH  13  15
ENDBRANCH  12  13
ENDBRANCH   5  11
ENDBRANCH   2   3
TORSDOF 8
ENDMDL
MODEL       36
REMARK 921   NORMALIZED FREE ENERGY PREDICTED BY IDOCK:   -6.17 KCAL/MOL
REMARK 922        TOTAL FREE ENERGY PREDICTED BY IDOCK:  -10.61 KCAL/MOL
REMARK 923 INTER-LIGAND FREE ENERGY PREDICTED BY IDOCK:   -8.98 KCAL/MOL
REMARK 924 INTRA-LIGAND FREE ENERGY PREDICTED BY IDOCK:   -1.63 KCAL/MOL
REMARK 927      BINDING AFFINITY PREDICTED BY RF-SCORE:    0.00 PKD
ROOT
HETATM    1  C   UNL     1     -11.802  15.991  71.497  1.00  0.00    -0.486 C  
HETATM    2  O   UNL     1     -12.901  15.281  70.932  1.00  0.00    -0.386 OA 
ENDROOT
BRANCH   2   3
HETATM    3  C   UNL     1     -12.770  13.914  70.931  1.00  0.00    -0.340 A  
HETATM    4  C   UNL     1     -11.951  13.224  70.033  1.00  0.00    -0.399 A  
HETATM    5  C   UNL     1     -11.880  11.824  70.041  1.00  0.00    -0.422 A  
HETATM    6  C   UNL     1     -12.578  11.121  71.031  1.00  0.00    -0.503 A  
HETATM    7  H   UNL     1     -14.737  13.366  73.460  1.00  0.00     0.000 HD 
HETATM    8  O   UNL     1     -14.263  13.857  72.798  1.00  0.00    -0.620 OA 
HETATM    9  C   UNL     1     -13.368  11.802  71.964  1.00  0.00    -0.417 A  
HETATM   10  C   UNL     1     -13.466  13.192  71.905  1.00  0.00    -0.424 A  
BRANCH   5  11
HETATM   11  C   UNL     1     -11.068  11.090  69.060  1.00  0.00    -0.301 C  
HETATM   12  C   UNL     1     -11.503  10.768  67.830  1.00  0.00    -0.306 C  
BRANCH  12  13
HETATM   13  C   UNL     1     -10.638  10.001  66.890  1.00  0.00    -0.192 C  
HETATM   14  O   UNL     1     -10.610   8.770  66.907  1.00  0.00    -0.276 OA 
BRANCH  13  15
HETATM   15  C   UNL     1      -9.815  10.781  65.902  1.00  0.00    -0.290 C  
BRANCH  15  16
HETATM   16  C   UNL     1      -8.573  11.370  66.509  1.00  0.00    -0.175 C  
HETATM   17  O   UNL     1      -7.551  10.697  66.643  1.00  0.00    -0.116 OA 
BRANCH  16  18
HETATM   18  C   UNL     1      -8.613  12.813  66.891  1.00  0.00    -0.140 C  
HETATM   19  C   UNL     1      -9.519  13.624  66.324  1.00  0.00    -0.209 C  
BRANCH  19  20
HETATM   20  C   UNL     1      -9.707  15.050  66.640  1.00  0.00    -0.273 A  
HETATM   21  C   UNL     1      -8.883  16.058  66.107  1.00  0.00    -0.366 A  
HETATM   22  C   UNL     1      -9.034  17.389  66.510  1.00  0.00    -0.260 A  
HETATM   23  C   UNL     1     -10.686  15.401  67.583  1.00  0.00    -0.292 A  
HETATM   24  C   UNL     1     -10.021  17.702  67.448  1.00  0.00    -0.321 A  
HETATM   25  H   UNL     1     -10.853  19.206  68.514  1.00  0.00     0.000 HD 
HETATM   26  O   UNL     1     -10.182  18.993  67.876  1.00  0.00    -0.360 OA 
HETATM   27  C   UNL     1     -10.849  16.727  67.984  1.00  0.00    -0.341 A  
BRANCH  22  28
HETATM   28  O   UNL     1      -8.282  18.450  66.079  1.00  0.00    -0.473 OA 
HETATM   29  C   UNL     1      -6.890  18.220  65.900  1.00  0.00    -0.290 C  
ENDBRANCH  22  28
ENDBRANCH  19  20
ENDBRANCH  16  18
ENDBRANCH  15  16
ENDBRANCH  13  15
ENDBRANCH  12  13
ENDBRANCH   5  11
ENDBRANCH   2   3
TORSDOF 8
ENDMDL
MODEL       37
REMARK 921   NORMALIZED FREE ENERGY PREDICTED BY IDOCK:   -6.12 KCAL/MOL
REMARK 922        TOTAL FREE ENERGY PREDICTED BY IDOCK:  -10.53 KCAL/MOL
REMARK 923 INTER-LIGAND FREE ENERGY PREDICTED BY IDOCK:   -9.80 KCAL/MOL
REMARK 924 INTRA-LIGAND FREE ENERGY PREDICTED BY IDOCK:   -0.73 KCAL/MOL
REMARK 927      BINDING AFFINITY PREDICTED BY RF-SCORE:    0.00 PKD
ROOT
HETATM    1  C   UNL     1     -14.299   8.569  71.774  1.00  0.00    -0.437 C  
HETATM    2  O   UNL     1     -13.448   9.645  72.158  1.00  0.00    -0.424 OA 
ENDROOT
BRANCH   2   3
HETATM    3  C   UNL     1     -12.390   9.879  71.314  1.00  0.00    -0.381 A  
HETATM    4  C   UNL     1     -12.467  10.732  70.209  1.00  0.00    -0.395 A  
HETATM    5  C   UNL     1     -11.375  10.910  69.350  1.00  0.00    -0.347 A  
HETATM    6  C   UNL     1     -10.162  10.285  69.666  1.00  0.00    -0.268 A  
HETATM    7  H   UNL     1     -10.253   8.006  72.891  1.00  0.00     0.000 HD 
HETATM    8  O   UNL     1     -11.081   8.429  72.692  1.00  0.00    -0.359 OA 
HETATM    9  C   UNL     1     -10.058   9.463  70.793  1.00  0.00    -0.366 A  
HETATM   10  C   UNL     1     -11.172   9.258  71.607  1.00  0.00    -0.379 A  
BRANCH   5  11
HETATM   11  C   UNL     1     -11.468  11.758  68.152  1.00  0.00    -0.382 C  
HETATM   12  C   UNL     1     -11.013  11.385  66.944  1.00  0.00    -0.355 C  
BRANCH  12  13
HETATM   13  C   UNL     1     -11.117  12.301  65.773  1.00  0.00    -0.323 C  
HETATM   14  O   UNL     1     -10.362  12.191  64.806  1.00  0.00    -0.271 OA 
BRANCH  13  15
HETATM   15  C   UNL     1     -12.190  13.353  65.802  1.00  0.00    -0.507 C  
BRANCH  15  16
HETATM   16  C   UNL     1     -12.151  14.265  64.607  1.00  0.00    -0.463 C  
HETATM   17  O   UNL     1     -12.699  13.950  63.551  1.00  0.00    -0.797 OA 
BRANCH  16  18
HETATM   18  C   UNL     1     -11.472  15.583  64.772  1.00  0.00    -0.314 C  
HETATM   19  C   UNL     1     -10.660  15.785  65.822  1.00  0.00    -0.369 C  
BRANCH  19  20
HETATM   20  C   UNL     1      -9.888  17.011  66.083  1.00  0.00    -0.297 A  
HETATM   21  C   UNL     1      -8.545  16.985  66.499  1.00  0.00    -0.305 A  
HETATM   22  C   UNL     1      -7.878  18.170  66.830  1.00  0.00    -0.235 A  
HETATM   23  C   UNL     1     -10.551  18.246  66.004  1.00  0.00    -0.318 A  
HETATM   24  C   UNL     1      -8.568  19.381  66.737  1.00  0.00    -0.311 A  
HETATM   25  H   UNL     1      -8.418  21.379  67.008  1.00  0.00     0.000 HD 
HETATM   26  O   UNL     1      -7.949  20.555  67.071  1.00  0.00    -0.323 OA 
HETATM   27  C   UNL     1      -9.892  19.433  66.324  1.00  0.00    -0.477 A  
BRANCH  22  28
HETATM   28  O   UNL     1      -6.582  18.269  67.264  1.00  0.00    -0.183 OA 
HETATM   29  C   UNL     1      -6.325  17.886  68.609  1.00  0.00    -0.209 C  
ENDBRANCH  22  28
ENDBRANCH  19  20
ENDBRANCH  16  18
ENDBRANCH  15  16
ENDBRANCH  13  15
ENDBRANCH  12  13
ENDBRANCH   5  11
ENDBRANCH   2   3
TORSDOF 8
ENDMDL
MODEL       38
REMARK 921   NORMALIZED FREE ENERGY PREDICTED BY IDOCK:   -6.12 KCAL/MOL
REMARK 922        TOTAL FREE ENERGY PREDICTED BY IDOCK:  -10.53 KCAL/MOL
REMARK 923 INTER-LIGAND FREE ENERGY PREDICTED BY IDOCK:   -8.84 KCAL/MOL
REMARK 924 INTRA-LIGAND FREE ENERGY PREDICTED BY IDOCK:   -1.69 KCAL/MOL
REMARK 927      BINDING AFFINITY PREDICTED BY RF-SCORE:    0.00 PKD
ROOT
HETATM    1  C   UNL     1     -14.377   8.520  72.042  1.00  0.00    -0.447 C  
HETATM    2  O   UNL     1     -13.437   9.483  72.513  1.00  0.00    -0.426 OA 
ENDROOT
BRANCH   2   3
HETATM    3  C   UNL     1     -12.686  10.087  71.536  1.00  0.00    -0.429 A  
HETATM    4  C   UNL     1     -11.834   9.382  70.680  1.00  0.00    -0.268 A  
HETATM    5  C   UNL     1     -11.053  10.044  69.724  1.00  0.00    -0.319 A  
HETATM    6  C   UNL     1     -11.205  11.428  69.572  1.00  0.00    -0.322 A  
HETATM    7  H   UNL     1     -13.743  13.110  72.088  1.00  0.00     0.000 HD 
HETATM    8  O   UNL     1     -13.655  12.170  72.198  1.00  0.00    -0.431 OA 
HETATM    9  C   UNL     1     -12.087  12.140  70.392  1.00  0.00    -0.395 A  
HETATM   10  C   UNL     1     -12.816  11.469  71.374  1.00  0.00    -0.384 A  
BRANCH   5  11
HETATM   11  C   UNL     1     -10.110   9.315  68.862  1.00  0.00    -0.207 C  
HETATM   12  C   UNL     1      -8.787   9.259  69.093  1.00  0.00    -0.141 C  
BRANCH  12  13
HETATM   13  C   UNL     1      -7.881   8.522  68.168  1.00  0.00    -0.103 C  
HETATM   14  O   UNL     1      -6.664   8.492  68.354  1.00  0.00    -0.062 OA 
BRANCH  13  15
HETATM   15  C   UNL     1      -8.506   7.794  67.010  1.00  0.00    -0.124 C  
BRANCH  15  16
HETATM   16  C   UNL     1      -8.197   8.429  65.683  1.00  0.00    -0.132 C  
HETATM   17  O   UNL     1      -7.585   7.812  64.812  1.00  0.00    -0.093 OA 
BRANCH  16  18
HETATM   18  C   UNL     1      -8.709   9.811  65.447  1.00  0.00    -0.176 C  
HETATM   19  C   UNL     1      -9.997   9.994  65.116  1.00  0.00    -0.350 C  
BRANCH  19  20
HETATM   20  C   UNL     1     -10.649  11.298  64.905  1.00  0.00    -0.364 A  
HETATM   21  C   UNL     1     -11.082  12.107  65.970  1.00  0.00    -0.354 A  
HETATM   22  C   UNL     1     -11.784  13.293  65.725  1.00  0.00    -0.359 A  
HETATM   23  C   UNL     1     -10.930  11.697  63.589  1.00  0.00    -0.507 A  
HETATM   24  C   UNL     1     -12.044  13.661  64.402  1.00  0.00    -0.427 A  
HETATM   25  H   UNL     1     -12.920  15.056  63.230  1.00  0.00     0.000 HD 
HETATM   26  O   UNL     1     -12.744  14.805  64.129  1.00  0.00    -0.758 OA 
HETATM   27  C   UNL     1     -11.621  12.882  63.335  1.00  0.00    -0.463 A  
BRANCH  22  28
HETATM   28  O   UNL     1     -12.273  14.150  66.675  1.00  0.00    -0.448 OA 
HETATM   29  C   UNL     1     -11.319  14.914  67.402  1.00  0.00    -0.347 C  
ENDBRANCH  22  28
ENDBRANCH  19  20
ENDBRANCH  16  18
ENDBRANCH  15  16
ENDBRANCH  13  15
ENDBRANCH  12  13
ENDBRANCH   5  11
ENDBRANCH   2   3
TORSDOF 8
ENDMDL
MODEL       39
REMARK 921   NORMALIZED FREE ENERGY PREDICTED BY IDOCK:   -6.11 KCAL/MOL
REMARK 922        TOTAL FREE ENERGY PREDICTED BY IDOCK:  -10.51 KCAL/MOL
REMARK 923 INTER-LIGAND FREE ENERGY PREDICTED BY IDOCK:   -8.87 KCAL/MOL
REMARK 924 INTRA-LIGAND FREE ENERGY PREDICTED BY IDOCK:   -1.64 KCAL/MOL
REMARK 927      BINDING AFFINITY PREDICTED BY RF-SCORE:    0.00 PKD
ROOT
HETATM    1  C   UNL     1     -10.466  14.758  69.123  1.00  0.00    -0.239 C  
HETATM    2  O   UNL     1     -11.890  14.698  69.163  1.00  0.00    -0.293 OA 
ENDROOT
BRANCH   2   3
HETATM    3  C   UNL     1     -12.410  13.926  70.173  1.00  0.00    -0.334 A  
HETATM    4  C   UNL     1     -12.215  12.545  70.259  1.00  0.00    -0.345 A  
HETATM    5  C   UNL     1     -12.799  11.789  71.284  1.00  0.00    -0.409 A  
HETATM    6  C   UNL     1     -13.516  12.456  72.285  1.00  0.00    -0.428 A  
HETATM    7  H   UNL     1     -13.821  16.363  71.795  1.00  0.00     0.000 HD 
HETATM    8  O   UNL     1     -13.326  15.925  71.112  1.00  0.00    -0.516 OA 
HETATM    9  C   UNL     1     -13.683  13.844  72.236  1.00  0.00    -0.660 A  
HETATM   10  C   UNL     1     -13.137  14.571  71.178  1.00  0.00    -0.359 A  
BRANCH   5  11
HETATM   11  C   UNL     1     -12.648  10.328  71.345  1.00  0.00    -0.539 C  
HETATM   12  C   UNL     1     -13.518   9.519  71.974  1.00  0.00    -0.522 C  
BRANCH  12  13
HETATM   13  C   UNL     1     -13.295   8.046  72.019  1.00  0.00    -0.244 C  
HETATM   14  O   UNL     1     -14.210   7.254  71.790  1.00  0.00    -0.413 OA 
BRANCH  13  15
HETATM   15  C   UNL     1     -11.908   7.559  72.333  1.00  0.00    -0.305 C  
BRANCH  15  16
HETATM   16  C   UNL     1     -11.422   6.511  71.371  1.00  0.00    -0.309 C  
HETATM   17  O   UNL     1     -11.308   5.335  71.719  1.00  0.00    -0.035 OA 
BRANCH  16  18
HETATM   18  C   UNL     1     -11.140   6.943  69.971  1.00  0.00    -0.344 C  
HETATM   19  C   UNL     1     -10.648   8.170  69.742  1.00  0.00    -0.231 C  
BRANCH  19  20
HETATM   20  C   UNL     1     -10.275   8.709  68.423  1.00  0.00    -0.232 A  
HETATM   21  C   UNL     1     -10.459  10.061  68.079  1.00  0.00    -0.260 A  
HETATM   22  C   UNL     1     -10.182  10.510  66.784  1.00  0.00    -0.234 A  
HETATM   23  C   UNL     1      -9.808   7.816  67.445  1.00  0.00    -0.230 A  
HETATM   24  C   UNL     1      -9.717   9.595  65.836  1.00  0.00    -0.275 A  
HETATM   25  H   UNL     1      -9.137   9.377  63.912  1.00  0.00     0.000 HD 
HETATM   26  O   UNL     1      -9.454  10.000  64.556  1.00  0.00    -0.272 OA 
HETATM   27  C   UNL     1      -9.522   8.258  66.153  1.00  0.00    -0.241 A  
BRANCH  22  28
HETATM   28  O   UNL     1     -10.340  11.792  66.326  1.00  0.00    -0.213 OA 
HETATM   29  C   UNL     1     -11.640  12.358  66.437  1.00  0.00    -0.384 C  
ENDBRANCH  22  28
ENDBRANCH  19  20
ENDBRANCH  16  18
ENDBRANCH  15  16
ENDBRANCH  13  15
ENDBRANCH  12  13
ENDBRANCH   5  11
ENDBRANCH   2   3
TORSDOF 8
ENDMDL
MODEL       40
REMARK 921   NORMALIZED FREE ENERGY PREDICTED BY IDOCK:   -6.10 KCAL/MOL
REMARK 922        TOTAL FREE ENERGY PREDICTED BY IDOCK:  -10.50 KCAL/MOL
REMARK 923 INTER-LIGAND FREE ENERGY PREDICTED BY IDOCK:   -9.61 KCAL/MOL
REMARK 924 INTRA-LIGAND FREE ENERGY PREDICTED BY IDOCK:   -0.89 KCAL/MOL
REMARK 927      BINDING AFFINITY PREDICTED BY RF-SCORE:    0.00 PKD
ROOT
HETATM    1  C   UNL     1     -14.203   8.619  71.926  1.00  0.00    -0.427 C  
HETATM    2  O   UNL     1     -13.242   9.613  72.271  1.00  0.00    -0.433 OA 
ENDROOT
BRANCH   2   3
HETATM    3  C   UNL     1     -12.236   9.791  71.354  1.00  0.00    -0.397 A  
HETATM    4  C   UNL     1     -12.369  10.595  70.218  1.00  0.00    -0.406 A  
HETATM    5  C   UNL     1     -11.330  10.715  69.285  1.00  0.00    -0.346 A  
HETATM    6  C   UNL     1     -10.109  10.086  69.555  1.00  0.00    -0.248 A  
HETATM    7  H   UNL     1     -10.032   7.955  72.880  1.00  0.00     0.000 HD 
HETATM    8  O   UNL     1     -10.864   8.382  72.714  1.00  0.00    -0.312 OA 
HETATM    9  C   UNL     1      -9.947   9.313  70.710  1.00  0.00    -0.357 A  
HETATM   10  C   UNL     1     -11.011   9.163  71.599  1.00  0.00    -0.374 A  
BRANCH   5  11
HETATM   11  C   UNL     1     -11.485  11.510  68.059  1.00  0.00    -0.381 C  
HETATM   12  C   UNL     1     -10.990  11.136  66.866  1.00  0.00    -0.333 C  
BRANCH  12  13
HETATM   13  C   UNL     1     -11.162  12.000  65.663  1.00  0.00    -0.327 C  
HETATM   14  O   UNL     1     -10.500  11.812  64.642  1.00  0.00    -0.269 OA 
BRANCH  13  15
HETATM   15  C   UNL     1     -12.190  13.095  65.730  1.00  0.00    -0.514 C  
BRANCH  15  16
HETATM   16  C   UNL     1     -11.927  14.207  64.754  1.00  0.00    -0.431 C  
HETATM   17  O   UNL     1     -12.636  14.359  63.759  1.00  0.00    -0.829 OA 
BRANCH  16  18
HETATM   18  C   UNL     1     -10.810  15.146  65.068  1.00  0.00    -0.457 C  
HETATM   19  C   UNL     1     -10.630  15.565  66.330  1.00  0.00    -0.312 C  
BRANCH  19  20
HETATM   20  C   UNL     1      -9.545  16.447  66.792  1.00  0.00    -0.263 A  
HETATM   21  C   UNL     1      -9.772  17.548  67.637  1.00  0.00    -0.275 A  
HETATM   22  C   UNL     1      -8.729  18.416  67.973  1.00  0.00    -0.287 A  
HETATM   23  C   UNL     1      -8.251  16.230  66.291  1.00  0.00    -0.312 A  
HETATM   24  C   UNL     1      -7.453  18.169  67.458  1.00  0.00    -0.213 A  
HETATM   25  H   UNL     1      -5.547  18.843  67.403  1.00  0.00     0.000 HD 
HETATM   26  O   UNL     1      -6.414  19.010  67.753  1.00  0.00    -0.207 OA 
HETATM   27  C   UNL     1      -7.203  17.087  66.627  1.00  0.00    -0.293 A  
BRANCH  22  28
HETATM   28  O   UNL     1      -8.831  19.528  68.766  1.00  0.00    -0.364 OA 
HETATM   29  C   UNL     1     -10.143  19.942  69.126  1.00  0.00    -0.244 C  
ENDBRANCH  22  28
ENDBRANCH  19  20
ENDBRANCH  16  18
ENDBRANCH  15  16
ENDBRANCH  13  15
ENDBRANCH  12  13
ENDBRANCH   5  11
ENDBRANCH   2   3
TORSDOF 8
ENDMDL
MODEL       41
REMARK 921   NORMALIZED FREE ENERGY PREDICTED BY IDOCK:   -6.10 KCAL/MOL
REMARK 922        TOTAL FREE ENERGY PREDICTED BY IDOCK:  -10.50 KCAL/MOL
REMARK 923 INTER-LIGAND FREE ENERGY PREDICTED BY IDOCK:   -9.55 KCAL/MOL
REMARK 924 INTRA-LIGAND FREE ENERGY PREDICTED BY IDOCK:   -0.95 KCAL/MOL
REMARK 927      BINDING AFFINITY PREDICTED BY RF-SCORE:    0.00 PKD
ROOT
HETATM    1  C   UNL     1     -13.507  12.823  72.109  1.00  0.00    -0.492 C  
HETATM    2  O   UNL     1     -13.118  11.460  71.960  1.00  0.00    -0.487 OA 
ENDROOT
BRANCH   2   3
HETATM    3  C   UNL     1     -12.398  11.183  70.825  1.00  0.00    -0.406 A  
HETATM    4  C   UNL     1     -12.341  12.044  69.725  1.00  0.00    -0.112 A  
HETATM    5  C   UNL     1     -11.627  11.702  68.569  1.00  0.00    -0.379 A  
HETATM    6  C   UNL     1     -10.888  10.513  68.563  1.00  0.00    -0.275 A  
HETATM    7  H   UNL     1     -11.199   8.341  71.847  1.00  0.00     0.000 HD 
HETATM    8  O   UNL     1     -11.700   9.148  71.868  1.00  0.00    -0.357 OA 
HETATM    9  C   UNL     1     -10.901   9.661  69.673  1.00  0.00    -0.266 A  
HETATM   10  C   UNL     1     -11.661   9.995  70.794  1.00  0.00    -0.350 A  
BRANCH   5  11
HETATM   11  C   UNL     1     -11.612  12.576  67.387  1.00  0.00    -0.434 C  
HETATM   12  C   UNL     1     -11.163  12.184  66.182  1.00  0.00    -0.386 C  
BRANCH  12  13
HETATM   13  C   UNL     1     -11.154  13.127  65.027  1.00  0.00    -0.301 C  
HETATM   14  O   UNL     1     -10.379  12.972  64.083  1.00  0.00    -0.419 OA 
BRANCH  13  15
HETATM   15  C   UNL     1     -12.139  14.263  65.044  1.00  0.00    -0.428 C  
BRANCH  15  16
HETATM   16  C   UNL     1     -11.509  15.591  64.730  1.00  0.00    -0.313 C  
HETATM   17  O   UNL     1     -11.905  16.272  63.784  1.00  0.00    -0.955 OA 
BRANCH  16  18
HETATM   18  C   UNL     1     -10.427  16.070  65.639  1.00  0.00    -0.416 C  
HETATM   19  C   UNL     1     -10.306  17.382  65.893  1.00  0.00    -0.276 C  
BRANCH  19  20
HETATM   20  C   UNL     1      -9.323  17.989  66.806  1.00  0.00    -0.287 A  
HETATM   21  C   UNL     1      -8.407  17.223  67.550  1.00  0.00    -0.204 A  
HETATM   22  C   UNL     1      -7.557  17.833  68.478  1.00  0.00    -0.276 A  
HETATM   23  C   UNL     1      -9.370  19.378  67.008  1.00  0.00    -0.393 A  
HETATM   24  C   UNL     1      -7.629  19.217  68.652  1.00  0.00    -0.350 A  
HETATM   25  H   UNL     1      -6.871  20.783  69.683  1.00  0.00     0.000 HD 
HETATM   26  O   UNL     1      -6.822  19.841  69.565  1.00  0.00    -0.344 OA 
HETATM   27  C   UNL     1      -8.520  19.995  67.926  1.00  0.00    -0.301 A  
BRANCH  22  28
HETATM   28  O   UNL     1      -6.641  17.193  69.271  1.00  0.00    -0.220 OA 
HETATM   29  C   UNL     1      -6.267  15.876  68.887  1.00  0.00    -0.120 C  
ENDBRANCH  22  28
ENDBRANCH  19  20
ENDBRANCH  16  18
ENDBRANCH  15  16
ENDBRANCH  13  15
ENDBRANCH  12  13
ENDBRANCH   5  11
ENDBRANCH   2   3
TORSDOF 8
ENDMDL
MODEL       42
REMARK 921   NORMALIZED FREE ENERGY PREDICTED BY IDOCK:   -6.09 KCAL/MOL
REMARK 922        TOTAL FREE ENERGY PREDICTED BY IDOCK:  -10.48 KCAL/MOL
REMARK 923 INTER-LIGAND FREE ENERGY PREDICTED BY IDOCK:   -9.52 KCAL/MOL
REMARK 924 INTRA-LIGAND FREE ENERGY PREDICTED BY IDOCK:   -0.96 KCAL/MOL
REMARK 927      BINDING AFFINITY PREDICTED BY RF-SCORE:    0.00 PKD
ROOT
HETATM    1  C   UNL     1     -13.382  12.840  72.188  1.00  0.00    -0.492 C  
HETATM    2  O   UNL     1     -13.187  11.450  71.944  1.00  0.00    -0.484 OA 
ENDROOT
BRANCH   2   3
HETATM    3  C   UNL     1     -12.431  11.155  70.837  1.00  0.00    -0.409 A  
HETATM    4  C   UNL     1     -12.394  11.963  69.697  1.00  0.00    -0.109 A  
HETATM    5  C   UNL     1     -11.639  11.602  68.573  1.00  0.00    -0.379 A  
HETATM    6  C   UNL     1     -10.840  10.454  68.640  1.00  0.00    -0.270 A  
HETATM    7  H   UNL     1     -11.109   8.433  72.023  1.00  0.00     0.000 HD 
HETATM    8  O   UNL     1     -11.651   9.213  71.994  1.00  0.00    -0.361 OA 
HETATM    9  C   UNL     1     -10.833   9.658  69.791  1.00  0.00    -0.274 A  
HETATM   10  C   UNL     1     -11.633  10.007  70.879  1.00  0.00    -0.378 A  
BRANCH   5  11
HETATM   11  C   UNL     1     -11.645  12.416  67.349  1.00  0.00    -0.433 C  
HETATM   12  C   UNL     1     -11.279  11.945  66.144  1.00  0.00    -0.387 C  
BRANCH  12  13
HETATM   13  C   UNL     1     -11.284  12.829  64.944  1.00  0.00    -0.297 C  
HETATM   14  O   UNL     1     -10.465  12.680  64.038  1.00  0.00    -0.384 OA 
BRANCH  13  15
HETATM   15  C   UNL     1     -12.340  13.897  64.868  1.00  0.00    -0.445 C  
BRANCH  15  16
HETATM   16  C   UNL     1     -11.771  15.271  64.650  1.00  0.00    -0.308 C  
HETATM   17  O   UNL     1     -12.165  15.981  63.725  1.00  0.00    -0.895 OA 
BRANCH  16  18
HETATM   18  C   UNL     1     -10.754  15.755  65.630  1.00  0.00    -0.360 C  
HETATM   19  C   UNL     1     -10.568  17.074  65.795  1.00  0.00    -0.218 C  
BRANCH  19  20
HETATM   20  C   UNL     1      -9.641  17.692  66.757  1.00  0.00    -0.297 A  
HETATM   21  C   UNL     1      -9.114  18.984  66.577  1.00  0.00    -0.348 A  
HETATM   22  C   UNL     1      -8.161  19.495  67.464  1.00  0.00    -0.290 A  
HETATM   23  C   UNL     1      -9.196  16.922  67.844  1.00  0.00    -0.234 A  
HETATM   24  C   UNL     1      -7.743  18.702  68.536  1.00  0.00    -0.316 A  
HETATM   25  H   UNL     1      -6.515  18.628  70.141  1.00  0.00     0.000 HD 
HETATM   26  O   UNL     1      -6.799  19.166  69.412  1.00  0.00    -0.308 OA 
HETATM   27  C   UNL     1      -8.253  17.427  68.738  1.00  0.00    -0.226 A  
BRANCH  22  28
HETATM   28  O   UNL     1      -7.563  20.725  67.382  1.00  0.00    -0.346 OA 
HETATM   29  C   UNL     1      -6.476  20.850  66.474  1.00  0.00    -0.273 C  
ENDBRANCH  22  28
ENDBRANCH  19  20
ENDBRANCH  16  18
ENDBRANCH  15  16
ENDBRANCH  13  15
ENDBRANCH  12  13
ENDBRANCH   5  11
ENDBRANCH   2   3
TORSDOF 8
ENDMDL
MODEL       43
REMARK 921   NORMALIZED FREE ENERGY PREDICTED BY IDOCK:   -6.06 KCAL/MOL
REMARK 922        TOTAL FREE ENERGY PREDICTED BY IDOCK:  -10.45 KCAL/MOL
REMARK 923 INTER-LIGAND FREE ENERGY PREDICTED BY IDOCK:   -9.74 KCAL/MOL
REMARK 924 INTRA-LIGAND FREE ENERGY PREDICTED BY IDOCK:   -0.70 KCAL/MOL
REMARK 927      BINDING AFFINITY PREDICTED BY RF-SCORE:    0.00 PKD
ROOT
HETATM    1  C   UNL     1      -7.281  19.490  68.946  1.00  0.00    -0.362 C  
HETATM    2  O   UNL     1      -7.985  19.405  67.710  1.00  0.00    -0.272 OA 
ENDROOT
BRANCH   2   3
HETATM    3  C   UNL     1      -8.690  18.242  67.523  1.00  0.00    -0.254 A  
HETATM    4  C   UNL     1      -9.653  17.777  68.424  1.00  0.00    -0.323 A  
HETATM    5  C   UNL     1     -10.319  16.562  68.214  1.00  0.00    -0.293 A  
HETATM    6  C   UNL     1     -10.072  15.855  67.031  1.00  0.00    -0.268 A  
HETATM    7  H   UNL     1      -7.355  17.471  64.662  1.00  0.00     0.000 HD 
HETATM    8  O   UNL     1      -7.518  17.965  65.458  1.00  0.00    -0.524 OA 
HETATM    9  C   UNL     1      -9.142  16.330  66.100  1.00  0.00    -0.377 A  
HETATM   10  C   UNL     1      -8.451  17.515  66.353  1.00  0.00    -0.252 A  
BRANCH   5  11
HETATM   11  C   UNL     1     -11.289  16.038  69.187  1.00  0.00    -0.352 C  
HETATM   12  C   UNL     1     -11.105  16.091  70.518  1.00  0.00    -0.370 C  
BRANCH  12  13
HETATM   13  C   UNL     1     -12.117  15.520  71.452  1.00  0.00    -0.393 C  
HETATM   14  O   UNL     1     -12.123  15.818  72.647  1.00  0.00    -0.396 OA 
BRANCH  13  15
HETATM   15  C   UNL     1     -13.146  14.585  70.881  1.00  0.00    -0.405 C  
BRANCH  15  16
HETATM   16  C   UNL     1     -13.387  13.379  71.745  1.00  0.00    -0.394 C  
HETATM   17  O   UNL     1     -14.173  13.423  72.691  1.00  0.00    -0.747 OA 
BRANCH  16  18
HETATM   18  C   UNL     1     -12.678  12.118  71.376  1.00  0.00    -0.368 C  
HETATM   19  C   UNL     1     -13.138  10.942  71.830  1.00  0.00    -0.564 C  
BRANCH  19  20
HETATM   20  C   UNL     1     -12.572   9.621  71.506  1.00  0.00    -0.483 A  
HETATM   21  C   UNL     1     -11.282   9.461  70.970  1.00  0.00    -0.412 A  
HETATM   22  C   UNL     1     -10.821   8.197  70.587  1.00  0.00    -0.233 A  
HETATM   23  C   UNL     1     -13.392   8.491  71.653  1.00  0.00    -0.372 A  
HETATM   24  C   UNL     1     -11.663   7.094  70.749  1.00  0.00    -0.323 A  
HETATM   25  H   UNL     1     -11.821   5.097  70.477  1.00  0.00     0.000 HD 
HETATM   26  O   UNL     1     -11.248   5.847  70.367  1.00  0.00    -0.321 OA 
HETATM   27  C   UNL     1     -12.938   7.226  71.281  1.00  0.00    -0.377 A  
BRANCH  22  28
HETATM   28  O   UNL     1      -9.597   7.920  70.036  1.00  0.00    -0.168 OA 
HETATM   29  C   UNL     1      -9.353   8.422  68.729  1.00  0.00    -0.143 C  
ENDBRANCH  22  28
ENDBRANCH  19  20
ENDBRANCH  16  18
ENDBRANCH  15  16
ENDBRANCH  13  15
ENDBRANCH  12  13
ENDBRANCH   5  11
ENDBRANCH   2   3
TORSDOF 8
ENDMDL
MODEL       44
REMARK 921   NORMALIZED FREE ENERGY PREDICTED BY IDOCK:   -6.06 KCAL/MOL
REMARK 922        TOTAL FREE ENERGY PREDICTED BY IDOCK:  -10.44 KCAL/MOL
REMARK 923 INTER-LIGAND FREE ENERGY PREDICTED BY IDOCK:   -8.75 KCAL/MOL
REMARK 924 INTRA-LIGAND FREE ENERGY PREDICTED BY IDOCK:   -1.69 KCAL/MOL
REMARK 927      BINDING AFFINITY PREDICTED BY RF-SCORE:    0.00 PKD
ROOT
HETATM    1  C   UNL     1     -10.071   9.164  66.369  1.00  0.00    -0.274 C  
HETATM    2  O   UNL     1     -10.023  10.080  65.279  1.00  0.00    -0.315 OA 
ENDROOT
BRANCH   2   3
HETATM    3  C   UNL     1     -10.598  11.303  65.523  1.00  0.00    -0.246 A  
HETATM    4  C   UNL     1     -11.048  11.699  66.786  1.00  0.00    -0.366 A  
HETATM    5  C   UNL     1     -11.667  12.941  66.982  1.00  0.00    -0.447 A  
HETATM    6  C   UNL     1     -11.747  13.830  65.903  1.00  0.00    -0.370 A  
HETATM    7  H   UNL     1     -10.317  12.442  62.492  1.00  0.00     0.000 HD 
HETATM    8  O   UNL     1     -10.250  11.831  63.217  1.00  0.00    -0.412 OA 
HETATM    9  C   UNL     1     -11.262  13.464  64.643  1.00  0.00    -0.377 A  
HETATM   10  C   UNL     1     -10.697  12.202  64.457  1.00  0.00    -0.310 A  
BRANCH   5  11
HETATM   11  C   UNL     1     -12.197  13.338  68.295  1.00  0.00    -0.094 C  
HETATM   12  C   UNL     1     -11.966  12.649  69.425  1.00  0.00    -0.318 C  
BRANCH  12  13
HETATM   13  C   UNL     1     -12.552  13.093  70.723  1.00  0.00    -0.260 C  
HETATM   14  O   UNL     1     -12.726  12.300  71.648  1.00  0.00    -0.296 OA 
BRANCH  13  15
HETATM   15  C   UNL     1     -12.902  14.547  70.871  1.00  0.00    -0.425 C  
BRANCH  15  16
HETATM   16  C   UNL     1     -11.744  15.385  71.334  1.00  0.00    -0.395 C  
HETATM   17  O   UNL     1     -11.351  15.336  72.499  1.00  0.00    -0.428 OA 
BRANCH  16  18
HETATM   18  C   UNL     1     -11.060  16.234  70.314  1.00  0.00    -0.340 C  
HETATM   19  C   UNL     1      -9.996  15.752  69.654  1.00  0.00    -0.284 C  
BRANCH  19  20
HETATM   20  C   UNL     1      -9.258  16.454  68.591  1.00  0.00    -0.231 A  
HETATM   21  C   UNL     1      -9.347  17.845  68.400  1.00  0.00    -0.290 A  
HETATM   22  C   UNL     1      -8.707  18.458  67.319  1.00  0.00    -0.259 A  
HETATM   23  C   UNL     1      -8.515  15.689  67.677  1.00  0.00    -0.169 A  
HETATM   24  C   UNL     1      -7.974  17.666  66.431  1.00  0.00    -0.274 A  
HETATM   25  H   UNL     1      -6.852  17.696  64.749  1.00  0.00     0.000 HD 
HETATM   26  O   UNL     1      -7.350  18.234  65.352  1.00  0.00    -0.531 OA 
HETATM   27  C   UNL     1      -7.867  16.294  66.601  1.00  0.00    -0.310 A  
BRANCH  22  28
HETATM   28  O   UNL     1      -8.736  19.795  67.019  1.00  0.00    -0.300 OA 
HETATM   29  C   UNL     1      -9.984  20.460  67.171  1.00  0.00    -0.428 C  
ENDBRANCH  22  28
ENDBRANCH  19  20
ENDBRANCH  16  18
ENDBRANCH  15  16
ENDBRANCH  13  15
ENDBRANCH  12  13
ENDBRANCH   5  11
ENDBRANCH   2   3
TORSDOF 8
ENDMDL
MODEL       45
REMARK 921   NORMALIZED FREE ENERGY PREDICTED BY IDOCK:   -6.06 KCAL/MOL
REMARK 922        TOTAL FREE ENERGY PREDICTED BY IDOCK:  -10.44 KCAL/MOL
REMARK 923 INTER-LIGAND FREE ENERGY PREDICTED BY IDOCK:   -8.95 KCAL/MOL
REMARK 924 INTRA-LIGAND FREE ENERGY PREDICTED BY IDOCK:   -1.49 KCAL/MOL
REMARK 927      BINDING AFFINITY PREDICTED BY RF-SCORE:    0.00 PKD
ROOT
HETATM    1  C   UNL     1     -10.310  19.736  65.855  1.00  0.00    -0.483 C  
HETATM    2  O   UNL     1      -9.454  18.845  66.565  1.00  0.00    -0.319 OA 
ENDROOT
BRANCH   2   3
HETATM    3  C   UNL     1      -9.992  17.609  66.827  1.00  0.00    -0.320 A  
HETATM    4  C   UNL     1      -9.992  16.562  65.900  1.00  0.00    -0.342 A  
HETATM    5  C   UNL     1     -10.590  15.330  66.195  1.00  0.00    -0.318 A  
HETATM    6  C   UNL     1     -11.113  15.126  67.477  1.00  0.00    -0.319 A  
HETATM    7  H   UNL     1     -10.891  18.250  69.884  1.00  0.00     0.000 HD 
HETATM    8  O   UNL     1     -10.526  18.401  69.019  1.00  0.00    -0.187 OA 
HETATM    9  C   UNL     1     -11.082  16.150  68.430  1.00  0.00    -0.359 A  
HETATM   10  C   UNL     1     -10.529  17.388  68.099  1.00  0.00    -0.389 A  
BRANCH   5  11
HETATM   11  C   UNL     1     -10.647  14.246  65.203  1.00  0.00    -0.423 C  
HETATM   12  C   UNL     1     -11.795  13.758  64.704  1.00  0.00    -0.427 C  
BRANCH  12  13
HETATM   13  C   UNL     1     -11.786  12.641  63.717  1.00  0.00    -0.491 C  
HETATM   14  O   UNL     1     -12.835  12.166  63.280  1.00  0.00    -0.735 OA 
BRANCH  13  15
HETATM   15  C   UNL     1     -10.450  12.128  63.255  1.00  0.00    -0.360 C  
BRANCH  15  16
HETATM   16  C   UNL     1     -10.106  10.784  63.830  1.00  0.00    -0.333 C  
HETATM   17  O   UNL     1      -9.388   9.995  63.216  1.00  0.00    -0.281 OA 
BRANCH  16  18
HETATM   18  C   UNL     1     -10.625  10.468  65.194  1.00  0.00    -0.121 C  
HETATM   19  C   UNL     1      -9.931  10.858  66.274  1.00  0.00    -0.274 C  
BRANCH  19  20
HETATM   20  C   UNL     1     -10.345  10.661  67.674  1.00  0.00    -0.246 A  
HETATM   21  C   UNL     1      -9.723   9.728  68.523  1.00  0.00    -0.164 A  
HETATM   22  C   UNL     1     -10.211   9.505  69.815  1.00  0.00    -0.228 A  
HETATM   23  C   UNL     1     -11.465  11.367  68.143  1.00  0.00    -0.375 A  
HETATM   24  C   UNL     1     -11.326  10.226  70.249  1.00  0.00    -0.323 A  
HETATM   25  H   UNL     1     -12.596  10.508  71.797  1.00  0.00     0.000 HD 
HETATM   26  O   UNL     1     -11.839  10.017  71.501  1.00  0.00    -0.377 OA 
HETATM   27  C   UNL     1     -11.953  11.156  69.432  1.00  0.00    -0.420 A  
BRANCH  22  28
HETATM   28  O   UNL     1      -9.705   8.612  70.722  1.00  0.00    -0.174 OA 
HETATM   29  C   UNL     1      -9.554   7.267  70.285  1.00  0.00    -0.165 C  
ENDBRANCH  22  28
ENDBRANCH  19  20
ENDBRANCH  16  18
ENDBRANCH  15  16
ENDBRANCH  13  15
ENDBRANCH  12  13
ENDBRANCH   5  11
ENDBRANCH   2   3
TORSDOF 8
ENDMDL
MODEL       46
REMARK 921   NORMALIZED FREE ENERGY PREDICTED BY IDOCK:   -6.04 KCAL/MOL
REMARK 922        TOTAL FREE ENERGY PREDICTED BY IDOCK:  -10.41 KCAL/MOL
REMARK 923 INTER-LIGAND FREE ENERGY PREDICTED BY IDOCK:   -9.53 KCAL/MOL
REMARK 924 INTRA-LIGAND FREE ENERGY PREDICTED BY IDOCK:   -0.88 KCAL/MOL
REMARK 927      BINDING AFFINITY PREDICTED BY RF-SCORE:    0.00 PKD
ROOT
HETATM    1  C   UNL     1     -11.566   6.421  70.771  1.00  0.00    -0.338 C  
HETATM    2  O   UNL     1     -11.245   7.499  71.647  1.00  0.00    -0.238 OA 
ENDROOT
BRANCH   2   3
HETATM    3  C   UNL     1     -11.574   8.746  71.178  1.00  0.00    -0.289 A  
HETATM    4  C   UNL     1     -11.000   9.310  70.034  1.00  0.00    -0.254 A  
HETATM    5  C   UNL     1     -11.335  10.604  69.614  1.00  0.00    -0.360 A  
HETATM    6  C   UNL     1     -12.332  11.300  70.310  1.00  0.00    -0.389 A  
HETATM    7  H   UNL     1     -13.808   9.403  73.445  1.00  0.00     0.000 HD 
HETATM    8  O   UNL     1     -13.138   8.917  72.978  1.00  0.00    -0.309 OA 
HETATM    9  C   UNL     1     -12.946  10.731  71.431  1.00  0.00    -0.535 A  
HETATM   10  C   UNL     1     -12.560   9.462  71.864  1.00  0.00    -0.401 A  
BRANCH   5  11
HETATM   11  C   UNL     1     -10.691  11.226  68.448  1.00  0.00    -0.238 C  
HETATM   12  C   UNL     1     -10.889  10.813  67.185  1.00  0.00    -0.335 C  
BRANCH  12  13
HETATM   13  C   UNL     1     -10.187  11.472  66.047  1.00  0.00    -0.242 C  
HETATM   14  O   UNL     1      -8.980  11.711  66.094  1.00  0.00    -0.209 OA 
BRANCH  13  15
HETATM   15  C   UNL     1     -10.999  11.814  64.829  1.00  0.00    -0.360 C  
BRANCH  15  16
HETATM   16  C   UNL     1     -12.180  12.690  65.138  1.00  0.00    -0.481 C  
HETATM   17  O   UNL     1     -13.285  12.463  64.646  1.00  0.00    -0.822 OA 
BRANCH  16  18
HETATM   18  C   UNL     1     -11.971  13.809  66.105  1.00  0.00    -0.449 C  
HETATM   19  C   UNL     1     -11.099  14.786  65.810  1.00  0.00    -0.338 C  
BRANCH  19  20
HETATM   20  C   UNL     1     -10.830  15.971  66.642  1.00  0.00    -0.179 A  
HETATM   21  C   UNL     1     -10.275  17.152  66.118  1.00  0.00    -0.343 A  
HETATM   22  C   UNL     1      -9.946  18.219  66.960  1.00  0.00    -0.342 A  
HETATM   23  C   UNL     1     -11.050  15.878  68.025  1.00  0.00    -0.334 A  
HETATM   24  C   UNL     1     -10.180  18.094  68.332  1.00  0.00    -0.387 A  
HETATM   25  H   UNL     1     -10.012  19.028  70.117  1.00  0.00     0.000 HD 
HETATM   26  O   UNL     1      -9.852  19.113  69.185  1.00  0.00    -0.389 OA 
HETATM   27  C   UNL     1     -10.732  16.941  68.871  1.00  0.00    -0.321 A  
BRANCH  22  28
HETATM   28  O   UNL     1      -9.384  19.407  66.572  1.00  0.00    -0.326 OA 
HETATM   29  C   UNL     1      -7.989  19.398  66.294  1.00  0.00    -0.319 C  
ENDBRANCH  22  28
ENDBRANCH  19  20
ENDBRANCH  16  18
ENDBRANCH  15  16
ENDBRANCH  13  15
ENDBRANCH  12  13
ENDBRANCH   5  11
ENDBRANCH   2   3
TORSDOF 8
ENDMDL
MODEL       47
REMARK 921   NORMALIZED FREE ENERGY PREDICTED BY IDOCK:   -6.03 KCAL/MOL
REMARK 922        TOTAL FREE ENERGY PREDICTED BY IDOCK:  -10.39 KCAL/MOL
REMARK 923 INTER-LIGAND FREE ENERGY PREDICTED BY IDOCK:   -8.85 KCAL/MOL
REMARK 924 INTRA-LIGAND FREE ENERGY PREDICTED BY IDOCK:   -1.54 KCAL/MOL
REMARK 927      BINDING AFFINITY PREDICTED BY RF-SCORE:    0.00 PKD
ROOT
HETATM    1  C   UNL     1     -10.586   7.231  68.881  1.00  0.00    -0.191 C  
HETATM    2  O   UNL     1      -9.815   8.408  69.107  1.00  0.00    -0.175 OA 
ENDROOT
BRANCH   2   3
HETATM    3  C   UNL     1     -10.536   9.576  69.150  1.00  0.00    -0.222 A  
HETATM    4  C   UNL     1     -10.814  10.346  68.017  1.00  0.00    -0.319 A  
HETATM    5  C   UNL     1     -11.519  11.554  68.113  1.00  0.00    -0.385 A  
HETATM    6  C   UNL     1     -12.026  11.939  69.360  1.00  0.00    -0.350 A  
HETATM    7  H   UNL     1     -11.132   9.509  72.344  1.00  0.00     0.000 HD 
HETATM    8  O   UNL     1     -10.788   9.232  71.503  1.00  0.00    -0.339 OA 
HETATM    9  C   UNL     1     -11.792  11.155  70.496  1.00  0.00    -0.448 A  
HETATM   10  C   UNL     1     -11.043   9.984  70.387  1.00  0.00    -0.327 A  
BRANCH   5  11
HETATM   11  C   UNL     1     -11.762  12.398  66.935  1.00  0.00    -0.432 C  
HETATM   12  C   UNL     1     -11.433  12.036  65.683  1.00  0.00    -0.372 C  
BRANCH  12  13
HETATM   13  C   UNL     1     -11.686  12.949  64.532  1.00  0.00    -0.365 C  
HETATM   14  O   UNL     1     -11.337  12.648  63.390  1.00  0.00    -0.482 OA 
BRANCH  13  15
HETATM   15  C   UNL     1     -12.402  14.241  64.809  1.00  0.00    -0.440 C  
BRANCH  15  16
HETATM   16  C   UNL     1     -11.528  15.449  64.621  1.00  0.00    -0.337 C  
HETATM   17  O   UNL     1     -11.847  16.348  63.843  1.00  0.00    -1.034 OA 
BRANCH  16  18
HETATM   18  C   UNL     1     -10.291  15.537  65.451  1.00  0.00    -0.422 C  
HETATM   19  C   UNL     1     -10.392  15.777  66.768  1.00  0.00    -0.293 C  
BRANCH  19  20
HETATM   20  C   UNL     1      -9.266  15.840  67.715  1.00  0.00    -0.197 A  
HETATM   21  C   UNL     1      -8.589  17.037  68.007  1.00  0.00    -0.217 A  
HETATM   22  C   UNL     1      -7.463  17.035  68.837  1.00  0.00    -0.237 A  
HETATM   23  C   UNL     1      -8.795  14.639  68.270  1.00  0.00    -0.176 A  
HETATM   24  C   UNL     1      -7.023  15.823  69.374  1.00  0.00    -0.202 A  
HETATM   25  H   UNL     1      -5.615  14.961  70.542  1.00  0.00     0.000 HD 
HETATM   26  O   UNL     1      -5.914  15.785  70.176  1.00  0.00    -0.164 OA 
HETATM   27  C   UNL     1      -7.678  14.629  69.106  1.00  0.00    -0.113 A  
BRANCH  22  28
HETATM   28  O   UNL     1      -6.711  18.129  69.176  1.00  0.00    -0.255 OA 
HETATM   29  C   UNL     1      -7.303  19.405  68.966  1.00  0.00    -0.360 C  
ENDBRANCH  22  28
ENDBRANCH  19  20
ENDBRANCH  16  18
ENDBRANCH  15  16
ENDBRANCH  13  15
ENDBRANCH  12  13
ENDBRANCH   5  11
ENDBRANCH   2   3
TORSDOF 8
ENDMDL
MODEL       48
REMARK 921   NORMALIZED FREE ENERGY PREDICTED BY IDOCK:   -6.02 KCAL/MOL
REMARK 922        TOTAL FREE ENERGY PREDICTED BY IDOCK:  -10.38 KCAL/MOL
REMARK 923 INTER-LIGAND FREE ENERGY PREDICTED BY IDOCK:   -8.85 KCAL/MOL
REMARK 924 INTRA-LIGAND FREE ENERGY PREDICTED BY IDOCK:   -1.53 KCAL/MOL
REMARK 927      BINDING AFFINITY PREDICTED BY RF-SCORE:    0.00 PKD
ROOT
HETATM    1  C   UNL     1      -8.613   8.193  69.763  1.00  0.00    -0.133 C  
HETATM    2  O   UNL     1      -9.925   7.966  70.271  1.00  0.00    -0.188 OA 
ENDROOT
BRANCH   2   3
HETATM    3  C   UNL     1     -10.759   9.055  70.231  1.00  0.00    -0.230 A  
HETATM    4  C   UNL     1     -10.837   9.921  69.135  1.00  0.00    -0.248 A  
HETATM    5  C   UNL     1     -11.673  11.045  69.154  1.00  0.00    -0.403 A  
HETATM    6  C   UNL     1     -12.507  11.245  70.261  1.00  0.00    -0.330 A  
HETATM    7  H   UNL     1     -12.103   8.584  73.152  1.00  0.00     0.000 HD 
HETATM    8  O   UNL     1     -11.536   8.433  72.405  1.00  0.00    -0.367 OA 
HETATM    9  C   UNL     1     -12.471  10.363  71.346  1.00  0.00    -0.521 A  
HETATM   10  C   UNL     1     -11.594   9.279  71.330  1.00  0.00    -0.367 A  
BRANCH   5  11
HETATM   11  C   UNL     1     -11.714  11.992  68.030  1.00  0.00    -0.398 C  
HETATM   12  C   UNL     1     -11.751  13.326  68.186  1.00  0.00    -0.397 C  
BRANCH  12  13
HETATM   13  C   UNL     1     -11.815  14.232  67.004  1.00  0.00    -0.428 C  
HETATM   14  O   UNL     1     -11.108  15.238  66.932  1.00  0.00    -0.321 OA 
BRANCH  13  15
HETATM   15  C   UNL     1     -12.757  13.864  65.892  1.00  0.00    -0.466 C  
BRANCH  15  16
HETATM   16  C   UNL     1     -12.145  14.025  64.528  1.00  0.00    -0.459 C  
HETATM   17  O   UNL     1     -12.496  14.936  63.779  1.00  0.00    -0.768 OA 
BRANCH  16  18
HETATM   18  C   UNL     1     -11.062  13.071  64.146  1.00  0.00    -0.437 C  
HETATM   19  C   UNL     1     -11.145  11.787  64.524  1.00  0.00    -0.376 C  
BRANCH  19  20
HETATM   20  C   UNL     1     -10.181  10.729  64.177  1.00  0.00    -0.412 A  
HETATM   21  C   UNL     1      -9.643   9.851  65.135  1.00  0.00    -0.367 A  
HETATM   22  C   UNL     1      -8.657   8.925  64.779  1.00  0.00    -0.158 A  
HETATM   23  C   UNL     1      -9.713  10.661  62.854  1.00  0.00    -0.329 A  
HETATM   24  C   UNL     1      -8.217   8.884  63.453  1.00  0.00    -0.181 A  
HETATM   25  H   UNL     1      -6.942   7.972  62.176  1.00  0.00     0.000 HD 
HETATM   26  O   UNL     1      -7.241   8.001  63.077  1.00  0.00    -0.084 OA 
HETATM   27  C   UNL     1      -8.736   9.735  62.489  1.00  0.00    -0.234 A  
BRANCH  22  28
HETATM   28  O   UNL     1      -8.045   8.036  65.623  1.00  0.00    -0.106 OA 
HETATM   29  C   UNL     1      -8.846   6.974  66.127  1.00  0.00    -0.147 C  
ENDBRANCH  22  28
ENDBRANCH  19  20
ENDBRANCH  16  18
ENDBRANCH  15  16
ENDBRANCH  13  15
ENDBRANCH  12  13
ENDBRANCH   5  11
ENDBRANCH   2   3
TORSDOF 8
ENDMDL
MODEL       49
REMARK 921   NORMALIZED FREE ENERGY PREDICTED BY IDOCK:   -6.02 KCAL/MOL
REMARK 922        TOTAL FREE ENERGY PREDICTED BY IDOCK:  -10.38 KCAL/MOL
REMARK 923 INTER-LIGAND FREE ENERGY PREDICTED BY IDOCK:   -8.67 KCAL/MOL
REMARK 924 INTRA-LIGAND FREE ENERGY PREDICTED BY IDOCK:   -1.70 KCAL/MOL
REMARK 927      BINDING AFFINITY PREDICTED BY RF-SCORE:    0.00 PKD
ROOT
HETATM    1  C   UNL     1     -11.258   6.421  69.102  1.00  0.00    -0.354 C  
HETATM    2  O   UNL     1     -11.107   5.928  67.773  1.00  0.00    -0.246 OA 
ENDROOT
BRANCH   2   3
HETATM    3  C   UNL     1     -10.249   6.650  66.981  1.00  0.00    -0.223 A  
HETATM    4  C   UNL     1     -10.287   8.044  66.882  1.00  0.00    -0.408 A  
HETATM    5  C   UNL     1      -9.419   8.737  66.028  1.00  0.00    -0.302 A  
HETATM    6  C   UNL     1      -8.439   8.015  65.335  1.00  0.00    -0.155 A  
HETATM    7  H   UNL     1      -8.547   4.106  65.888  1.00  0.00     0.000 HD 
HETATM    8  O   UNL     1      -9.213   4.583  66.370  1.00  0.00    -0.124 OA 
HETATM    9  C   UNL     1      -8.361   6.624  65.458  1.00  0.00    -0.144 A  
HETATM   10  C   UNL     1      -9.269   5.948  66.273  1.00  0.00    -0.158 A  
BRANCH   5  11
HETATM   11  C   UNL     1      -9.495  10.197  65.873  1.00  0.00    -0.249 C  
HETATM   12  C   UNL     1     -10.383  10.812  65.074  1.00  0.00    -0.357 C  
BRANCH  12  13
HETATM   13  C   UNL     1     -10.394  12.297  64.943  1.00  0.00    -0.290 C  
HETATM   14  O   UNL     1     -10.524  12.841  63.846  1.00  0.00    -0.418 OA 
BRANCH  13  15
HETATM   15  C   UNL     1     -10.262  13.110  66.201  1.00  0.00    -0.291 C  
BRANCH  15  16
HETATM   16  C   UNL     1     -11.557  13.242  66.952  1.00  0.00    -0.364 C  
HETATM   17  O   UNL     1     -12.344  14.156  66.704  1.00  0.00    -0.455 OA 
BRANCH  16  18
HETATM   18  C   UNL     1     -11.871  12.195  67.968  1.00  0.00    -0.351 C  
HETATM   19  C   UNL     1     -10.878  11.650  68.688  1.00  0.00    -0.253 C  
BRANCH  19  20
HETATM   20  C   UNL     1     -11.046  10.649  69.755  1.00  0.00    -0.358 A  
HETATM   21  C   UNL     1     -12.226  10.540  70.513  1.00  0.00    -0.435 A  
HETATM   22  C   UNL     1     -12.307   9.641  71.581  1.00  0.00    -0.404 A  
HETATM   23  C   UNL     1      -9.948   9.839  70.087  1.00  0.00    -0.315 A  
HETATM   24  C   UNL     1     -11.196   8.849  71.882  1.00  0.00    -0.377 A  
HETATM   25  H   UNL     1     -10.483   7.433  73.136  1.00  0.00     0.000 HD 
HETATM   26  O   UNL     1     -11.238   7.972  72.932  1.00  0.00    -0.401 OA 
HETATM   27  C   UNL     1     -10.023   8.934  71.146  1.00  0.00    -0.342 A  
BRANCH  22  28
HETATM   28  O   UNL     1     -13.390   9.461  72.400  1.00  0.00    -0.452 OA 
HETATM   29  C   UNL     1     -14.392   8.557  71.950  1.00  0.00    -0.448 C  
ENDBRANCH  22  28
ENDBRANCH  19  20
ENDBRANCH  16  18
ENDBRANCH  15  16
ENDBRANCH  13  15
ENDBRANCH  12  13
ENDBRANCH   5  11
ENDBRANCH   2   3
TORSDOF 8
ENDMDL
MODEL       50
REMARK 921   NORMALIZED FREE ENERGY PREDICTED BY IDOCK:   -5.98 KCAL/MOL
REMARK 922        TOTAL FREE ENERGY PREDICTED BY IDOCK:  -10.32 KCAL/MOL
REMARK 923 INTER-LIGAND FREE ENERGY PREDICTED BY IDOCK:   -8.99 KCAL/MOL
REMARK 924 INTRA-LIGAND FREE ENERGY PREDICTED BY IDOCK:   -1.33 KCAL/MOL
REMARK 927      BINDING AFFINITY PREDICTED BY RF-SCORE:    0.00 PKD
ROOT
HETATM    1  C   UNL     1      -9.530   7.365  68.989  1.00  0.00    -0.148 C  
HETATM    2  O   UNL     1     -10.085   7.082  67.708  1.00  0.00    -0.148 OA 
ENDROOT
BRANCH   2   3
HETATM    3  C   UNL     1      -9.695   7.934  66.705  1.00  0.00    -0.235 A  
HETATM    4  C   UNL     1     -10.138   9.257  66.609  1.00  0.00    -0.341 A  
HETATM    5  C   UNL     1      -9.746  10.080  65.545  1.00  0.00    -0.355 A  
HETATM    6  C   UNL     1      -8.823   9.585  64.616  1.00  0.00    -0.250 A  
HETATM    7  H   UNL     1      -7.709   5.841  65.209  1.00  0.00     0.000 HD 
HETATM    8  O   UNL     1      -8.331   6.167  65.850  1.00  0.00    -0.127 OA 
HETATM    9  C   UNL     1      -8.338   8.277  64.724  1.00  0.00    -0.129 A  
HETATM   10  C   UNL     1      -8.781   7.456  65.761  1.00  0.00    -0.109 A  
BRANCH   5  11
HETATM   11  C   UNL     1     -10.256  11.452  65.405  1.00  0.00    -0.320 C  
HETATM   12  C   UNL     1     -10.936  11.884  64.329  1.00  0.00    -0.411 C  
BRANCH  12  13
HETATM   13  C   UNL     1     -11.406  13.295  64.239  1.00  0.00    -0.393 C  
HETATM   14  O   UNL     1     -12.525  13.569  63.802  1.00  0.00    -0.696 OA 
BRANCH  13  15
HETATM   15  C   UNL     1     -10.477  14.374  64.722  1.00  0.00    -0.394 C  
BRANCH  15  16
HETATM   16  C   UNL     1     -10.933  15.011  66.004  1.00  0.00    -0.334 C  
HETATM   17  O   UNL     1     -10.740  16.207  66.222  1.00  0.00    -0.294 OA 
BRANCH  16  18
HETATM   18  C   UNL     1     -11.674  14.150  66.972  1.00  0.00    -0.430 C  
HETATM   19  C   UNL     1     -11.105  13.830  68.145  1.00  0.00    -0.282 C  
BRANCH  19  20
HETATM   20  C   UNL     1     -11.736  13.035  69.212  1.00  0.00    -0.375 A  
HETATM   21  C   UNL     1     -12.414  13.624  70.294  1.00  0.00    -0.335 A  
HETATM   22  C   UNL     1     -12.913  12.837  71.337  1.00  0.00    -0.266 A  
HETATM   23  C   UNL     1     -11.568  11.641  69.193  1.00  0.00    -0.378 A  
HETATM   24  C   UNL     1     -12.731  11.452  71.283  1.00  0.00    -0.393 A  
HETATM   25  H   UNL     1     -13.069   9.715  72.260  1.00  0.00     0.000 HD 
HETATM   26  O   UNL     1     -13.193  10.656  72.296  1.00  0.00    -0.400 OA 
HETATM   27  C   UNL     1     -12.071  10.847  70.224  1.00  0.00    -0.440 A  
BRANCH  22  28
HETATM   28  O   UNL     1     -13.570  13.295  72.448  1.00  0.00    -0.564 OA 
HETATM   29  C   UNL     1     -14.062  14.629  72.399  1.00  0.00    -0.444 C  
ENDBRANCH  22  28
ENDBRANCH  19  20
ENDBRANCH  16  18
ENDBRANCH  15  16
ENDBRANCH  13  15
ENDBRANCH  12  13
ENDBRANCH   5  11
ENDBRANCH   2   3
TORSDOF 8
ENDMDL
MODEL       51
REMARK 921   NORMALIZED FREE ENERGY PREDICTED BY IDOCK:   -5.96 KCAL/MOL
REMARK 922        TOTAL FREE ENERGY PREDICTED BY IDOCK:  -10.30 KCAL/MOL
REMARK 923 INTER-LIGAND FREE ENERGY PREDICTED BY IDOCK:   -8.89 KCAL/MOL
REMARK 924 INTRA-LIGAND FREE ENERGY PREDICTED BY IDOCK:   -1.41 KCAL/MOL
REMARK 927      BINDING AFFINITY PREDICTED BY RF-SCORE:    0.00 PKD
ROOT
HETATM    1  C   UNL     1     -12.980  15.903  73.319  1.00  0.00    -0.570 C  
HETATM    2  O   UNL     1     -12.261  16.173  72.118  1.00  0.00    -0.469 OA 
ENDROOT
BRANCH   2   3
HETATM    3  C   UNL     1     -12.094  15.093  71.286  1.00  0.00    -0.342 A  
HETATM    4  C   UNL     1     -12.565  13.812  71.590  1.00  0.00    -0.370 A  
HETATM    5  C   UNL     1     -12.336  12.730  70.731  1.00  0.00    -0.375 A  
HETATM    6  C   UNL     1     -11.700  12.967  69.506  1.00  0.00    -0.387 A  
HETATM    7  H   UNL     1     -10.561  16.702  68.915  1.00  0.00     0.000 HD 
HETATM    8  O   UNL     1     -10.997  16.558  69.747  1.00  0.00    -0.344 OA 
HETATM    9  C   UNL     1     -11.262  14.252  69.169  1.00  0.00    -0.302 A  
HETATM   10  C   UNL     1     -11.453  15.306  70.062  1.00  0.00    -0.292 A  
BRANCH   5  11
HETATM   11  C   UNL     1     -12.776  11.369  71.073  1.00  0.00    -0.447 C  
HETATM   12  C   UNL     1     -11.927  10.359  71.329  1.00  0.00    -0.425 C  
BRANCH  12  13
HETATM   13  C   UNL     1     -12.437   8.995  71.648  1.00  0.00    -0.351 C  
HETATM   14  O   UNL     1     -13.177   8.800  72.613  1.00  0.00    -0.395 OA 
BRANCH  13  15
HETATM   15  C   UNL     1     -12.036   7.868  70.738  1.00  0.00    -0.146 C  
BRANCH  15  16
HETATM   16  C   UNL     1     -10.688   8.076  70.106  1.00  0.00    -0.244 C  
HETATM   17  O   UNL     1      -9.653   7.909  70.749  1.00  0.00    -0.164 OA 
BRANCH  16  18
HETATM   18  C   UNL     1     -10.658   8.438  68.658  1.00  0.00    -0.149 C  
HETATM   19  C   UNL     1     -10.290   9.676  68.291  1.00  0.00    -0.240 C  
BRANCH  19  20
HETATM   20  C   UNL     1     -10.166  10.155  66.904  1.00  0.00    -0.295 A  
HETATM   21  C   UNL     1     -10.837  11.299  66.436  1.00  0.00    -0.306 A  
HETATM   22  C   UNL     1     -10.769  11.663  65.088  1.00  0.00    -0.296 A  
HETATM   23  C   UNL     1      -9.424   9.383  65.996  1.00  0.00    -0.304 A  
HETATM   24  C   UNL     1     -10.020  10.873  64.212  1.00  0.00    -0.333 A  
HETATM   25  H   UNL     1      -9.438  10.657  62.288  1.00  0.00     0.000 HD 
HETATM   26  O   UNL     1      -9.948  11.193  62.883  1.00  0.00    -0.300 OA 
HETATM   27  C   UNL     1      -9.344   9.744  64.651  1.00  0.00    -0.318 A  
BRANCH  22  28
HETATM   28  O   UNL     1     -11.393  12.739  64.513  1.00  0.00    -0.307 OA 
HETATM   29  C   UNL     1     -10.875  14.025  64.826  1.00  0.00    -0.419 C  
ENDBRANCH  22  28
ENDBRANCH  19  20
ENDBRANCH  16  18
ENDBRANCH  15  16
ENDBRANCH  13  15
ENDBRANCH  12  13
ENDBRANCH   5  11
ENDBRANCH   2   3
TORSDOF 8
ENDMDL
MODEL       52
REMARK 921   NORMALIZED FREE ENERGY PREDICTED BY IDOCK:   -5.96 KCAL/MOL
REMARK 922        TOTAL FREE ENERGY PREDICTED BY IDOCK:  -10.30 KCAL/MOL
REMARK 923 INTER-LIGAND FREE ENERGY PREDICTED BY IDOCK:   -8.49 KCAL/MOL
REMARK 924 INTRA-LIGAND FREE ENERGY PREDICTED BY IDOCK:   -1.81 KCAL/MOL
REMARK 927      BINDING AFFINITY PREDICTED BY RF-SCORE:    0.00 PKD
ROOT
HETATM    1  C   UNL     1      -6.933  20.325  68.057  1.00  0.00    -0.292 C  
HETATM    2  O   UNL     1      -8.039  20.151  67.175  1.00  0.00    -0.305 OA 
ENDROOT
BRANCH   2   3
HETATM    3  C   UNL     1      -8.586  18.892  67.171  1.00  0.00    -0.280 A  
HETATM    4  C   UNL     1      -9.611  18.501  68.036  1.00  0.00    -0.337 A  
HETATM    5  C   UNL     1     -10.112  17.192  68.026  1.00  0.00    -0.311 A  
HETATM    6  C   UNL     1      -9.630  16.295  67.064  1.00  0.00    -0.240 A  
HETATM    7  H   UNL     1      -6.794  17.732  64.721  1.00  0.00     0.000 HD 
HETATM    8  O   UNL     1      -7.116  18.353  65.364  1.00  0.00    -0.531 OA 
HETATM    9  C   UNL     1      -8.635  16.686  66.163  1.00  0.00    -0.324 A  
HETATM   10  C   UNL     1      -8.112  17.978  66.225  1.00  0.00    -0.224 A  
BRANCH   5  11
HETATM   11  C   UNL     1     -11.148  16.757  68.975  1.00  0.00    -0.171 C  
HETATM   12  C   UNL     1     -10.885  16.389  70.240  1.00  0.00    -0.218 C  
BRANCH  12  13
HETATM   13  C   UNL     1     -11.979  15.936  71.146  1.00  0.00    -0.427 C  
HETATM   14  O   UNL     1     -12.065  16.353  72.302  1.00  0.00    -0.501 OA 
BRANCH  13  15
HETATM   15  C   UNL     1     -12.988  14.968  70.594  1.00  0.00    -0.394 C  
BRANCH  15  16
HETATM   16  C   UNL     1     -12.514  13.543  70.628  1.00  0.00    -0.333 C  
HETATM   17  O   UNL     1     -12.659  12.850  71.635  1.00  0.00    -0.231 OA 
BRANCH  16  18
HETATM   18  C   UNL     1     -11.913  12.989  69.379  1.00  0.00    -0.338 C  
HETATM   19  C   UNL     1     -12.252  13.513  68.191  1.00  0.00    -0.141 C  
BRANCH  19  20
HETATM   20  C   UNL     1     -11.702  13.104  66.888  1.00  0.00    -0.441 A  
HETATM   21  C   UNL     1     -10.679  12.146  66.765  1.00  0.00    -0.269 A  
HETATM   22  C   UNL     1     -10.119  11.857  65.517  1.00  0.00    -0.245 A  
HETATM   23  C   UNL     1     -12.154  13.767  65.736  1.00  0.00    -0.458 A  
HETATM   24  C   UNL     1     -10.594  12.535  64.391  1.00  0.00    -0.350 A  
HETATM   25  H   UNL     1     -10.378  12.748  62.392  1.00  0.00     0.000 HD 
HETATM   26  O   UNL     1     -10.055  12.288  63.157  1.00  0.00    -0.375 OA 
HETATM   27  C   UNL     1     -11.606  13.479  64.486  1.00  0.00    -0.410 A  
BRANCH  22  28
HETATM   28  O   UNL     1      -9.109  10.963  65.275  1.00  0.00    -0.192 OA 
HETATM   29  C   UNL     1      -8.023  10.958  66.193  1.00  0.00    -0.155 C  
ENDBRANCH  22  28
ENDBRANCH  19  20
ENDBRANCH  16  18
ENDBRANCH  15  16
ENDBRANCH  13  15
ENDBRANCH  12  13
ENDBRANCH   5  11
ENDBRANCH   2   3
TORSDOF 8
ENDMDL
MODEL       53
REMARK 921   NORMALIZED FREE ENERGY PREDICTED BY IDOCK:   -5.96 KCAL/MOL
REMARK 922        TOTAL FREE ENERGY PREDICTED BY IDOCK:  -10.29 KCAL/MOL
REMARK 923 INTER-LIGAND FREE ENERGY PREDICTED BY IDOCK:   -8.65 KCAL/MOL
REMARK 924 INTRA-LIGAND FREE ENERGY PREDICTED BY IDOCK:   -1.64 KCAL/MOL
REMARK 927      BINDING AFFINITY PREDICTED BY RF-SCORE:    0.00 PKD
ROOT
HETATM    1  C   UNL     1     -11.529  14.172  67.843  1.00  0.00    -0.312 C  
HETATM    2  O   UNL     1     -11.768  14.749  69.125  1.00  0.00    -0.283 OA 
ENDROOT
BRANCH   2   3
HETATM    3  C   UNL     1     -12.268  13.885  70.067  1.00  0.00    -0.344 A  
HETATM    4  C   UNL     1     -11.929  12.529  70.118  1.00  0.00    -0.377 A  
HETATM    5  C   UNL     1     -12.496  11.673  71.072  1.00  0.00    -0.436 A  
HETATM    6  C   UNL     1     -13.346  12.217  72.043  1.00  0.00    -0.491 A  
HETATM    7  H   UNL     1     -14.041  16.087  71.668  1.00  0.00     0.000 HD 
HETATM    8  O   UNL     1     -13.457  15.733  71.007  1.00  0.00    -0.581 OA 
HETATM    9  C   UNL     1     -13.660  13.581  72.030  1.00  0.00    -0.589 A  
HETATM   10  C   UNL     1     -13.126  14.405  71.039  1.00  0.00    -0.353 A  
BRANCH   5  11
HETATM   11  C   UNL     1     -12.191  10.235  71.093  1.00  0.00    -0.500 C  
HETATM   12  C   UNL     1     -12.774   9.367  71.937  1.00  0.00    -0.484 C  
BRANCH  12  13
HETATM   13  C   UNL     1     -12.403   7.923  71.924  1.00  0.00    -0.315 C  
HETATM   14  O   UNL     1     -13.237   7.052  71.675  1.00  0.00    -0.374 OA 
BRANCH  13  15
HETATM   15  C   UNL     1     -10.969   7.567  72.202  1.00  0.00    -0.293 C  
BRANCH  15  16
HETATM   16  C   UNL     1     -10.293   6.901  71.037  1.00  0.00    -0.205 C  
HETATM   17  O   UNL     1     -10.116   5.683  71.017  1.00  0.00    -0.189 OA 
BRANCH  16  18
HETATM   18  C   UNL     1      -9.895   7.767  69.888  1.00  0.00    -0.177 C  
HETATM   19  C   UNL     1     -10.604   7.724  68.749  1.00  0.00    -0.161 C  
BRANCH  19  20
HETATM   20  C   UNL     1     -10.359   8.555  67.558  1.00  0.00    -0.334 A  
HETATM   21  C   UNL     1      -9.525   8.140  66.504  1.00  0.00    -0.286 A  
HETATM   22  C   UNL     1      -9.243   9.000  65.438  1.00  0.00    -0.176 A  
HETATM   23  C   UNL     1     -10.906   9.848  67.524  1.00  0.00    -0.307 A  
HETATM   24  C   UNL     1      -9.806  10.279  65.435  1.00  0.00    -0.296 A  
HETATM   25  H   UNL     1      -9.918  12.020  64.413  1.00  0.00     0.000 HD 
HETATM   26  O   UNL     1      -9.535  11.151  64.415  1.00  0.00    -0.232 OA 
HETATM   27  C   UNL     1     -10.636  10.709  66.460  1.00  0.00    -0.257 A  
BRANCH  22  28
HETATM   28  O   UNL     1      -8.433   8.718  64.370  1.00  0.00    -0.171 OA 
HETATM   29  C   UNL     1      -7.852   7.421  64.329  1.00  0.00    -0.127 C  
ENDBRANCH  22  28
ENDBRANCH  19  20
ENDBRANCH  16  18
ENDBRANCH  15  16
ENDBRANCH  13  15
ENDBRANCH  12  13
ENDBRANCH   5  11
ENDBRANCH   2   3
TORSDOF 8
ENDMDL
MODEL       54
REMARK 921   NORMALIZED FREE ENERGY PREDICTED BY IDOCK:   -5.94 KCAL/MOL
REMARK 922        TOTAL FREE ENERGY PREDICTED BY IDOCK:  -10.27 KCAL/MOL
REMARK 923 INTER-LIGAND FREE ENERGY PREDICTED BY IDOCK:   -8.75 KCAL/MOL
REMARK 924 INTRA-LIGAND FREE ENERGY PREDICTED BY IDOCK:   -1.52 KCAL/MOL
REMARK 927      BINDING AFFINITY PREDICTED BY RF-SCORE:    0.00 PKD
ROOT
HETATM    1  C   UNL     1      -9.315   8.659  71.869  1.00  0.00    -0.287 C  
HETATM    2  O   UNL     1     -10.558   8.098  71.455  1.00  0.00    -0.212 OA 
ENDROOT
BRANCH   2   3
HETATM    3  C   UNL     1     -10.613   7.718  70.137  1.00  0.00    -0.237 A  
HETATM    4  C   UNL     1     -10.478   8.616  69.075  1.00  0.00    -0.216 A  
HETATM    5  C   UNL     1     -10.583   8.191  67.744  1.00  0.00    -0.233 A  
HETATM    6  C   UNL     1     -10.735   6.823  67.485  1.00  0.00    -0.381 A  
HETATM    7  H   UNL     1     -11.007   4.541  70.698  1.00  0.00     0.000 HD 
HETATM    8  O   UNL     1     -10.897   5.466  70.888  1.00  0.00    -0.218 OA 
HETATM    9  C   UNL     1     -10.828   5.906  68.538  1.00  0.00    -0.323 A  
HETATM   10  C   UNL     1     -10.775   6.358  69.857  1.00  0.00    -0.274 A  
BRANCH   5  11
HETATM   11  C   UNL     1     -10.502   9.140  66.624  1.00  0.00    -0.237 C  
HETATM   12  C   UNL     1      -9.389   9.335  65.897  1.00  0.00    -0.297 C  
BRANCH  12  13
HETATM   13  C   UNL     1      -9.366  10.330  64.787  1.00  0.00    -0.260 C  
HETATM   14  O   UNL     1      -8.331  10.564  64.161  1.00  0.00    -0.164 OA 
BRANCH  13  15
HETATM   15  C   UNL     1     -10.654  11.023  64.443  1.00  0.00    -0.395 C  
BRANCH  15  16
HETATM   16  C   UNL     1     -10.776  12.382  65.072  1.00  0.00    -0.294 C  
HETATM   17  O   UNL     1     -10.239  13.367  64.565  1.00  0.00    -0.388 OA 
BRANCH  16  18
HETATM   18  C   UNL     1     -11.616  12.497  66.301  1.00  0.00    -0.449 C  
HETATM   19  C   UNL     1     -11.025  12.630  67.498  1.00  0.00    -0.280 C  
BRANCH  19  20
HETATM   20  C   UNL     1     -11.724  12.804  68.783  1.00  0.00    -0.363 A  
HETATM   21  C   UNL     1     -12.073  14.068  69.289  1.00  0.00    -0.380 A  
HETATM   22  C   UNL     1     -12.649  14.194  70.557  1.00  0.00    -0.342 A  
HETATM   23  C   UNL     1     -11.964  11.666  69.571  1.00  0.00    -0.383 A  
HETATM   24  C   UNL     1     -12.876  13.041  71.313  1.00  0.00    -0.281 A  
HETATM   25  H   UNL     1     -13.576  12.349  73.079  1.00  0.00     0.000 HD 
HETATM   26  O   UNL     1     -13.422  13.132  72.565  1.00  0.00    -0.569 OA 
HETATM   27  C   UNL     1     -12.545  11.782  70.833  1.00  0.00    -0.384 A  
BRANCH  22  28
HETATM   28  O   UNL     1     -13.012  15.368  71.163  1.00  0.00    -0.414 OA 
HETATM   29  C   UNL     1     -11.966  16.150  71.727  1.00  0.00    -0.489 C  
ENDBRANCH  22  28
ENDBRANCH  19  20
ENDBRANCH  16  18
ENDBRANCH  15  16
ENDBRANCH  13  15
ENDBRANCH  12  13
ENDBRANCH   5  11
ENDBRANCH   2   3
TORSDOF 8
ENDMDL
MODEL       55
REMARK 921   NORMALIZED FREE ENERGY PREDICTED BY IDOCK:   -5.94 KCAL/MOL
REMARK 922        TOTAL FREE ENERGY PREDICTED BY IDOCK:  -10.26 KCAL/MOL
REMARK 923 INTER-LIGAND FREE ENERGY PREDICTED BY IDOCK:   -9.26 KCAL/MOL
REMARK 924 INTRA-LIGAND FREE ENERGY PREDICTED BY IDOCK:   -1.00 KCAL/MOL
REMARK 927      BINDING AFFINITY PREDICTED BY RF-SCORE:    0.00 PKD
ROOT
HETATM    1  C   UNL     1     -13.652  15.629  73.132  1.00  0.00    -0.473 C  
HETATM    2  O   UNL     1     -13.697  14.265  72.720  1.00  0.00    -0.596 OA 
ENDROOT
BRANCH   2   3
HETATM    3  C   UNL     1     -13.057  13.995  71.536  1.00  0.00    -0.363 A  
HETATM    4  C   UNL     1     -12.687  14.987  70.622  1.00  0.00    -0.428 A  
HETATM    5  C   UNL     1     -12.073  14.663  69.405  1.00  0.00    -0.317 A  
HETATM    6  C   UNL     1     -11.747  13.324  69.152  1.00  0.00    -0.379 A  
HETATM    7  H   UNL     1     -12.857  10.780  71.962  1.00  0.00     0.000 HD 
HETATM    8  O   UNL     1     -13.078  11.685  72.150  1.00  0.00    -0.457 OA 
HETATM    9  C   UNL     1     -12.072  12.326  70.077  1.00  0.00    -0.346 A  
HETATM   10  C   UNL     1     -12.732  12.664  71.259  1.00  0.00    -0.257 A  
BRANCH   5  11
HETATM   11  C   UNL     1     -11.736  15.695  68.414  1.00  0.00    -0.301 C  
HETATM   12  C   UNL     1     -10.482  16.120  68.185  1.00  0.00    -0.279 C  
BRANCH  12  13
HETATM   13  C   UNL     1     -10.209  17.188  67.181  1.00  0.00    -0.316 C  
HETATM   14  O   UNL     1     -10.454  18.370  67.424  1.00  0.00    -0.382 OA 
BRANCH  13  15
HETATM   15  C   UNL     1      -9.603  16.775  65.868  1.00  0.00    -0.211 C  
BRANCH  15  16
HETATM   16  C   UNL     1     -10.579  16.074  64.966  1.00  0.00    -0.316 C  
HETATM   17  O   UNL     1     -11.416  16.707  64.322  1.00  0.00    -1.075 OA 
BRANCH  16  18
HETATM   18  C   UNL     1     -10.457  14.592  64.843  1.00  0.00    -0.435 C  
HETATM   19  C   UNL     1      -9.957  13.880  65.865  1.00  0.00    -0.317 C  
BRANCH  19  20
HETATM   20  C   UNL     1      -9.826  12.414  65.902  1.00  0.00    -0.265 A  
HETATM   21  C   UNL     1      -9.434  11.660  64.781  1.00  0.00    -0.083 A  
HETATM   22  C   UNL     1      -9.417  10.262  64.832  1.00  0.00    -0.279 A  
HETATM   23  C   UNL     1     -10.200  11.741  67.077  1.00  0.00    -0.240 A  
HETATM   24  C   UNL     1      -9.792   9.626  66.018  1.00  0.00    -0.274 A  
HETATM   25  H   UNL     1     -10.058   7.826  66.901  1.00  0.00     0.000 HD 
HETATM   26  O   UNL     1      -9.803   8.259  66.095  1.00  0.00    -0.196 OA 
HETATM   27  C   UNL     1     -10.177  10.348  67.139  1.00  0.00    -0.271 A  
BRANCH  22  28
HETATM   28  O   UNL     1      -9.074   9.424  63.804  1.00  0.00    -0.193 OA 
HETATM   29  C   UNL     1      -8.774  10.030  62.554  1.00  0.00    -0.213 C  
ENDBRANCH  22  28
ENDBRANCH  19  20
ENDBRANCH  16  18
ENDBRANCH  15  16
ENDBRANCH  13  15
ENDBRANCH  12  13
ENDBRANCH   5  11
ENDBRANCH   2   3
TORSDOF 8
ENDMDL
MODEL       56
REMARK 921   NORMALIZED FREE ENERGY PREDICTED BY IDOCK:   -5.93 KCAL/MOL
REMARK 922        TOTAL FREE ENERGY PREDICTED BY IDOCK:  -10.25 KCAL/MOL
REMARK 923 INTER-LIGAND FREE ENERGY PREDICTED BY IDOCK:   -8.80 KCAL/MOL
REMARK 924 INTRA-LIGAND FREE ENERGY PREDICTED BY IDOCK:   -1.45 KCAL/MOL
REMARK 927      BINDING AFFINITY PREDICTED BY RF-SCORE:    0.00 PKD
ROOT
HETATM    1  C   UNL     1     -10.270  18.887  68.072  1.00  0.00    -0.388 C  
HETATM    2  O   UNL     1     -10.225  17.898  69.097  1.00  0.00    -0.354 OA 
ENDROOT
BRANCH   2   3
HETATM    3  C   UNL     1     -10.790  16.692  68.765  1.00  0.00    -0.331 A  
HETATM    4  C   UNL     1     -10.754  16.158  67.473  1.00  0.00    -0.304 A  
HETATM    5  C   UNL     1     -11.381  14.943  67.170  1.00  0.00    -0.348 A  
HETATM    6  C   UNL     1     -11.974  14.214  68.208  1.00  0.00    -0.367 A  
HETATM    7  H   UNL     1     -11.842  15.956  71.751  1.00  0.00     0.000 HD 
HETATM    8  O   UNL     1     -11.430  16.458  71.057  1.00  0.00    -0.388 OA 
HETATM    9  C   UNL     1     -11.981  14.715  69.515  1.00  0.00    -0.361 A  
HETATM   10  C   UNL     1     -11.397  15.953  69.786  1.00  0.00    -0.347 A  
BRANCH   5  11
HETATM   11  C   UNL     1     -11.398  14.407  65.801  1.00  0.00    -0.330 C  
HETATM   12  C   UNL     1     -12.338  13.559  65.349  1.00  0.00    -0.517 C  
BRANCH  12  13
HETATM   13  C   UNL     1     -12.285  13.034  63.955  1.00  0.00    -0.437 C  
HETATM   14  O   UNL     1     -12.604  13.736  62.995  1.00  0.00    -0.721 OA 
BRANCH  13  15
HETATM   15  C   UNL     1     -11.808  11.622  63.758  1.00  0.00    -0.382 C  
BRANCH  15  16
HETATM   16  C   UNL     1     -10.330  11.465  63.983  1.00  0.00    -0.362 C  
HETATM   17  O   UNL     1      -9.528  11.627  63.064  1.00  0.00    -0.368 OA 
BRANCH  16  18
HETATM   18  C   UNL     1      -9.876  11.161  65.372  1.00  0.00    -0.289 C  
HETATM   19  C   UNL     1     -10.733  10.607  66.244  1.00  0.00    -0.172 C  
BRANCH  19  20
HETATM   20  C   UNL     1     -10.410  10.208  67.624  1.00  0.00    -0.265 A  
HETATM   21  C   UNL     1      -9.465   9.209  67.921  1.00  0.00    -0.158 A  
HETATM   22  C   UNL     1      -9.259   8.793  69.241  1.00  0.00    -0.149 A  
HETATM   23  C   UNL     1     -11.144  10.783  68.673  1.00  0.00    -0.312 A  
HETATM   24  C   UNL     1     -10.006   9.388  70.260  1.00  0.00    -0.237 A  
HETATM   25  H   UNL     1     -10.348   9.396  72.253  1.00  0.00     0.000 HD 
HETATM   26  O   UNL     1      -9.841   8.991  71.560  1.00  0.00    -0.296 OA 
HETATM   27  C   UNL     1     -10.939  10.380  69.993  1.00  0.00    -0.370 A  
BRANCH  22  28
HETATM   28  O   UNL     1      -8.387   7.819  69.650  1.00  0.00    -0.125 OA 
HETATM   29  C   UNL     1      -7.914   6.920  68.655  1.00  0.00    -0.120 C  
ENDBRANCH  22  28
ENDBRANCH  19  20
ENDBRANCH  16  18
ENDBRANCH  15  16
ENDBRANCH  13  15
ENDBRANCH  12  13
ENDBRANCH   5  11
ENDBRANCH   2   3
TORSDOF 8
ENDMDL
MODEL       57
REMARK 921   NORMALIZED FREE ENERGY PREDICTED BY IDOCK:   -5.91 KCAL/MOL
REMARK 922        TOTAL FREE ENERGY PREDICTED BY IDOCK:  -10.22 KCAL/MOL
REMARK 923 INTER-LIGAND FREE ENERGY PREDICTED BY IDOCK:   -8.55 KCAL/MOL
REMARK 924 INTRA-LIGAND FREE ENERGY PREDICTED BY IDOCK:   -1.67 KCAL/MOL
REMARK 927      BINDING AFFINITY PREDICTED BY RF-SCORE:    0.00 PKD
ROOT
HETATM    1  C   UNL     1     -13.118  11.298  71.764  1.00  0.00    -0.422 C  
HETATM    2  O   UNL     1     -12.555  10.007  71.979  1.00  0.00    -0.372 OA 
ENDROOT
BRANCH   2   3
HETATM    3  C   UNL     1     -11.512   9.682  71.147  1.00  0.00    -0.384 A  
HETATM    4  C   UNL     1     -11.371  10.203  69.857  1.00  0.00    -0.335 A  
HETATM    5  C   UNL     1     -10.312   9.812  69.026  1.00  0.00    -0.222 A  
HETATM    6  C   UNL     1      -9.334   8.953  69.543  1.00  0.00    -0.155 A  
HETATM    7  H   UNL     1      -9.982   7.723  73.240  1.00  0.00     0.000 HD 
HETATM    8  O   UNL     1     -10.650   8.310  72.905  1.00  0.00    -0.320 OA 
HETATM    9  C   UNL     1      -9.439   8.458  70.848  1.00  0.00    -0.205 A  
HETATM   10  C   UNL     1     -10.530   8.818  71.640  1.00  0.00    -0.317 A  
BRANCH   5  11
HETATM   11  C   UNL     1     -10.192  10.309  67.648  1.00  0.00    -0.247 C  
HETATM   12  C   UNL     1      -9.253   9.882  66.787  1.00  0.00    -0.176 C  
BRANCH  12  13
HETATM   13  C   UNL     1      -9.170  10.443  65.408  1.00  0.00    -0.193 C  
HETATM   14  O   UNL     1      -8.083  10.645  64.865  1.00  0.00    -0.127 OA 
BRANCH  13  15
HETATM   15  C   UNL     1     -10.460  10.735  64.693  1.00  0.00    -0.346 C  
BRANCH  15  16
HETATM   16  C   UNL     1     -10.655  12.197  64.407  1.00  0.00    -0.323 C  
HETATM   17  O   UNL     1     -10.941  12.589  63.276  1.00  0.00    -0.425 OA 
BRANCH  16  18
HETATM   18  C   UNL     1     -10.542  13.142  65.556  1.00  0.00    -0.299 C  
HETATM   19  C   UNL     1     -11.598  13.338  66.361  1.00  0.00    -0.387 C  
BRANCH  19  20
HETATM   20  C   UNL     1     -11.615  14.198  67.556  1.00  0.00    -0.396 A  
HETATM   21  C   UNL     1     -11.149  15.525  67.540  1.00  0.00    -0.305 A  
HETATM   22  C   UNL     1     -11.092  16.275  68.720  1.00  0.00    -0.355 A  
HETATM   23  C   UNL     1     -12.024  13.636  68.776  1.00  0.00    -0.394 A  
HETATM   24  C   UNL     1     -11.509  15.684  69.915  1.00  0.00    -0.338 A  
HETATM   25  H   UNL     1     -11.733  15.984  71.902  1.00  0.00     0.000 HD 
HETATM   26  O   UNL     1     -11.449  16.385  71.089  1.00  0.00    -0.394 OA 
HETATM   27  C   UNL     1     -11.978  14.379  69.955  1.00  0.00    -0.394 A  
BRANCH  22  28
HETATM   28  O   UNL     1     -10.641  17.563  68.833  1.00  0.00    -0.316 OA 
HETATM   29  C   UNL     1     -10.659  18.356  67.653  1.00  0.00    -0.408 C  
ENDBRANCH  22  28
ENDBRANCH  19  20
ENDBRANCH  16  18
ENDBRANCH  15  16
ENDBRANCH  13  15
ENDBRANCH  12  13
ENDBRANCH   5  11
ENDBRANCH   2   3
TORSDOF 8
ENDMDL
MODEL       58
REMARK 921   NORMALIZED FREE ENERGY PREDICTED BY IDOCK:   -5.89 KCAL/MOL
REMARK 922        TOTAL FREE ENERGY PREDICTED BY IDOCK:  -10.19 KCAL/MOL
REMARK 923 INTER-LIGAND FREE ENERGY PREDICTED BY IDOCK:   -9.13 KCAL/MOL
REMARK 924 INTRA-LIGAND FREE ENERGY PREDICTED BY IDOCK:   -1.06 KCAL/MOL
REMARK 927      BINDING AFFINITY PREDICTED BY RF-SCORE:    0.00 PKD
ROOT
HETATM    1  C   UNL     1      -5.556  17.395  66.451  1.00  0.00    -0.201 C  
HETATM    2  O   UNL     1      -6.475  18.463  66.663  1.00  0.00    -0.177 OA 
ENDROOT
BRANCH   2   3
HETATM    3  C   UNL     1      -7.761  18.075  66.945  1.00  0.00    -0.223 A  
HETATM    4  C   UNL     1      -8.433  17.076  66.234  1.00  0.00    -0.304 A  
HETATM    5  C   UNL     1      -9.761  16.740  66.529  1.00  0.00    -0.298 A  
HETATM    6  C   UNL     1     -10.385  17.360  67.618  1.00  0.00    -0.355 A  
HETATM    7  H   UNL     1      -8.195  20.078  69.467  1.00  0.00     0.000 HD 
HETATM    8  O   UNL     1      -7.756  19.660  68.735  1.00  0.00    -0.342 OA 
HETATM    9  C   UNL     1      -9.710  18.331  68.366  1.00  0.00    -0.373 A  
HETATM   10  C   UNL     1      -8.407  18.689  68.023  1.00  0.00    -0.277 A  
BRANCH   5  11
HETATM   11  C   UNL     1     -10.492  15.734  65.745  1.00  0.00    -0.384 C  
HETATM   12  C   UNL     1     -11.377  14.877  66.282  1.00  0.00    -0.306 C  
BRANCH  12  13
HETATM   13  C   UNL     1     -12.069  13.864  65.436  1.00  0.00    -0.408 C  
HETATM   14  O   UNL     1     -13.284  13.917  65.240  1.00  0.00    -0.774 OA 
BRANCH  13  15
HETATM   15  C   UNL     1     -11.230  12.785  64.809  1.00  0.00    -0.339 C  
BRANCH  15  16
HETATM   16  C   UNL     1     -10.426  12.009  65.814  1.00  0.00    -0.254 C  
HETATM   17  O   UNL     1      -9.199  11.949  65.735  1.00  0.00    -0.201 OA 
BRANCH  16  18
HETATM   18  C   UNL     1     -11.169  11.363  66.935  1.00  0.00    -0.331 C  
HETATM   19  C   UNL     1     -10.686  11.442  68.185  1.00  0.00    -0.241 C  
BRANCH  19  20
HETATM   20  C   UNL     1     -11.336  10.899  69.389  1.00  0.00    -0.347 A  
HETATM   21  C   UNL     1     -12.169  11.675  70.215  1.00  0.00    -0.401 A  
HETATM   22  C   UNL     1     -12.687  11.148  71.402  1.00  0.00    -0.418 A  
HETATM   23  C   UNL     1     -11.033   9.583  69.774  1.00  0.00    -0.245 A  
HETATM   24  C   UNL     1     -12.367   9.834  71.753  1.00  0.00    -0.386 A  
HETATM   25  H   UNL     1     -12.627   8.401  73.155  1.00  0.00     0.000 HD 
HETATM   26  O   UNL     1     -12.845   9.294  72.917  1.00  0.00    -0.196 OA 
HETATM   27  C   UNL     1     -11.553   9.046  70.952  1.00  0.00    -0.344 A  
BRANCH  22  28
HETATM   28  O   UNL     1     -13.489  11.810  72.294  1.00  0.00    -0.423 OA 
HETATM   29  C   UNL     1     -13.462  13.231  72.250  1.00  0.00    -0.582 C  
ENDBRANCH  22  28
ENDBRANCH  19  20
ENDBRANCH  16  18
ENDBRANCH  15  16
ENDBRANCH  13  15
ENDBRANCH  12  13
ENDBRANCH   5  11
ENDBRANCH   2   3
TORSDOF 8
ENDMDL
MODEL       59
REMARK 921   NORMALIZED FREE ENERGY PREDICTED BY IDOCK:   -5.89 KCAL/MOL
REMARK 922        TOTAL FREE ENERGY PREDICTED BY IDOCK:  -10.19 KCAL/MOL
REMARK 923 INTER-LIGAND FREE ENERGY PREDICTED BY IDOCK:   -8.46 KCAL/MOL
REMARK 924 INTRA-LIGAND FREE ENERGY PREDICTED BY IDOCK:   -1.73 KCAL/MOL
REMARK 927      BINDING AFFINITY PREDICTED BY RF-SCORE:    0.00 PKD
ROOT
HETATM    1  C   UNL     1     -10.931   9.379  70.611  1.00  0.00    -0.290 C  
HETATM    2  O   UNL     1     -12.212   9.971  70.411  1.00  0.00    -0.246 OA 
ENDROOT
BRANCH   2   3
HETATM    3  C   UNL     1     -12.191  11.309  70.105  1.00  0.00    -0.330 A  
HETATM    4  C   UNL     1     -11.779  11.805  68.865  1.00  0.00    -0.384 A  
HETATM    5  C   UNL     1     -11.734  13.182  68.609  1.00  0.00    -0.362 A  
HETATM    6  C   UNL     1     -12.199  14.063  69.593  1.00  0.00    -0.383 A  
HETATM    7  H   UNL     1     -13.366  12.345  72.953  1.00  0.00     0.000 HD 
HETATM    8  O   UNL     1     -13.059  11.735  72.292  1.00  0.00    -0.378 OA 
HETATM    9  C   UNL     1     -12.656  13.579  70.824  1.00  0.00    -0.382 A  
HETATM   10  C   UNL     1     -12.642  12.208  71.077  1.00  0.00    -0.263 A  
BRANCH   5  11
HETATM   11  C   UNL     1     -11.244  13.711  67.328  1.00  0.00    -0.329 C  
HETATM   12  C   UNL     1     -12.055  14.131  66.342  1.00  0.00    -0.475 C  
BRANCH  12  13
HETATM   13  C   UNL     1     -11.495  14.636  65.056  1.00  0.00    -0.386 C  
HETATM   14  O   UNL     1     -11.662  15.804  64.702  1.00  0.00    -0.284 OA 
BRANCH  13  15
HETATM   15  C   UNL     1     -10.697  13.678  64.216  1.00  0.00    -0.280 C  
BRANCH  15  16
HETATM   16  C   UNL     1     -11.477  12.455  63.821  1.00  0.00    -0.467 C  
HETATM   17  O   UNL     1     -12.556  12.552  63.237  1.00  0.00    -0.667 OA 
BRANCH  16  18
HETATM   18  C   UNL     1     -10.865  11.126  64.117  1.00  0.00    -0.355 C  
HETATM   19  C   UNL     1     -10.371  10.880  65.340  1.00  0.00    -0.326 C  
BRANCH  19  20
HETATM   20  C   UNL     1      -9.788   9.604  65.786  1.00  0.00    -0.373 A  
HETATM   21  C   UNL     1     -10.242   8.923  66.930  1.00  0.00    -0.347 A  
HETATM   22  C   UNL     1      -9.597   7.765  67.374  1.00  0.00    -0.151 A  
HETATM   23  C   UNL     1      -8.674   9.102  65.094  1.00  0.00    -0.228 A  
HETATM   24  C   UNL     1      -8.493   7.291  66.659  1.00  0.00    -0.124 A  
HETATM   25  H   UNL     1      -7.079   5.848  66.591  1.00  0.00     0.000 HD 
HETATM   26  O   UNL     1      -7.829   6.170  67.077  1.00  0.00    -0.099 OA 
HETATM   27  C   UNL     1      -8.030   7.942  65.525  1.00  0.00    -0.119 A  
BRANCH  22  28
HETATM   28  O   UNL     1      -9.933   7.030  68.480  1.00  0.00    -0.148 OA 
HETATM   29  C   UNL     1     -11.134   6.272  68.407  1.00  0.00    -0.279 C  
ENDBRANCH  22  28
ENDBRANCH  19  20
ENDBRANCH  16  18
ENDBRANCH  15  16
ENDBRANCH  13  15
ENDBRANCH  12  13
ENDBRANCH   5  11
ENDBRANCH   2   3
TORSDOF 8
ENDMDL
MODEL       60
REMARK 921   NORMALIZED FREE ENERGY PREDICTED BY IDOCK:   -5.89 KCAL/MOL
REMARK 922        TOTAL FREE ENERGY PREDICTED BY IDOCK:  -10.18 KCAL/MOL
REMARK 923 INTER-LIGAND FREE ENERGY PREDICTED BY IDOCK:   -8.56 KCAL/MOL
REMARK 924 INTRA-LIGAND FREE ENERGY PREDICTED BY IDOCK:   -1.62 KCAL/MOL
REMARK 927      BINDING AFFINITY PREDICTED BY RF-SCORE:    0.00 PKD
ROOT
HETATM    1  C   UNL     1     -12.415  13.837  66.055  1.00  0.00    -0.445 C  
HETATM    2  O   UNL     1     -11.361  14.116  66.972  1.00  0.00    -0.306 OA 
ENDROOT
BRANCH   2   3
HETATM    3  C   UNL     1     -11.647  13.843  68.287  1.00  0.00    -0.337 A  
HETATM    4  C   UNL     1     -11.772  12.544  68.790  1.00  0.00    -0.371 A  
HETATM    5  C   UNL     1     -12.107  12.312  70.130  1.00  0.00    -0.364 A  
HETATM    6  C   UNL     1     -12.227  13.409  70.993  1.00  0.00    -0.312 A  
HETATM    7  H   UNL     1     -11.740  16.935  69.282  1.00  0.00     0.000 HD 
HETATM    8  O   UNL     1     -11.649  16.200  68.687  1.00  0.00    -0.376 OA 
HETATM    9  C   UNL     1     -12.061  14.713  70.514  1.00  0.00    -0.388 A  
HETATM   10  C   UNL     1     -11.781  14.924  69.164  1.00  0.00    -0.309 A  
BRANCH   5  11
HETATM   11  C   UNL     1     -12.300  10.951  70.650  1.00  0.00    -0.470 C  
HETATM   12  C   UNL     1     -13.054  10.669  71.727  1.00  0.00    -0.571 C  
BRANCH  12  13
HETATM   13  C   UNL     1     -13.191   9.268  72.218  1.00  0.00    -0.460 C  
HETATM   14  O   UNL     1     -14.296   8.776  72.445  1.00  0.00    -0.509 OA 
BRANCH  13  15
HETATM   15  C   UNL     1     -11.932   8.467  72.405  1.00  0.00    -0.451 C  
BRANCH  15  16
HETATM   16  C   UNL     1     -11.941   7.174  71.639  1.00  0.00    -0.318 C  
HETATM   17  O   UNL     1     -12.315   6.127  72.167  1.00  0.00    -0.299 OA 
BRANCH  16  18
HETATM   18  C   UNL     1     -11.531   7.223  70.205  1.00  0.00    -0.242 C  
HETATM   19  C   UNL     1     -10.373   7.810  69.866  1.00  0.00    -0.223 C  
BRANCH  19  20
HETATM   20  C   UNL     1      -9.820   7.887  68.503  1.00  0.00    -0.186 A  
HETATM   21  C   UNL     1     -10.217   8.871  67.580  1.00  0.00    -0.309 A  
HETATM   22  C   UNL     1      -9.740   8.849  66.265  1.00  0.00    -0.275 A  
HETATM   23  C   UNL     1      -8.936   6.880  68.085  1.00  0.00    -0.123 A  
HETATM   24  C   UNL     1      -8.859   7.833  65.884  1.00  0.00    -0.142 A  
HETATM   25  H   UNL     1      -7.789   7.084  64.341  1.00  0.00     0.000 HD 
HETATM   26  O   UNL     1      -8.388   7.774  64.600  1.00  0.00    -0.119 OA 
HETATM   27  C   UNL     1      -8.449   6.855  66.778  1.00  0.00    -0.118 A  
BRANCH  22  28
HETATM   28  O   UNL     1     -10.068   9.737  65.275  1.00  0.00    -0.286 OA 
HETATM   29  C   UNL     1     -10.040  11.117  65.615  1.00  0.00    -0.253 C  
ENDBRANCH  22  28
ENDBRANCH  19  20
ENDBRANCH  16  18
ENDBRANCH  15  16
ENDBRANCH  13  15
ENDBRANCH  12  13
ENDBRANCH   5  11
ENDBRANCH   2   3
TORSDOF 8
ENDMDL
MODEL       61
REMARK 921   NORMALIZED FREE ENERGY PREDICTED BY IDOCK:   -5.87 KCAL/MOL
REMARK 922        TOTAL FREE ENERGY PREDICTED BY IDOCK:  -10.15 KCAL/MOL
REMARK 923 INTER-LIGAND FREE ENERGY PREDICTED BY IDOCK:   -9.35 KCAL/MOL
REMARK 924 INTRA-LIGAND FREE ENERGY PREDICTED BY IDOCK:   -0.80 KCAL/MOL
REMARK 927      BINDING AFFINITY PREDICTED BY RF-SCORE:    0.00 PKD
ROOT
HETATM    1  C   UNL     1     -10.598   7.054  73.517  1.00  0.00    -0.368 C  
HETATM    2  O   UNL     1     -11.168   6.890  72.221  1.00  0.00    -0.247 OA 
ENDROOT
BRANCH   2   3
HETATM    3  C   UNL     1     -11.287   8.044  71.488  1.00  0.00    -0.259 A  
HETATM    4  C   UNL     1     -11.990   9.166  71.936  1.00  0.00    -0.443 A  
HETATM    5  C   UNL     1     -12.122  10.310  71.137  1.00  0.00    -0.494 A  
HETATM    6  C   UNL     1     -11.454  10.350  69.906  1.00  0.00    -0.368 A  
HETATM    7  H   UNL     1      -9.493   7.053  68.966  1.00  0.00     0.000 HD 
HETATM    8  O   UNL     1      -9.935   7.014  69.806  1.00  0.00    -0.171 OA 
HETATM    9  C   UNL     1     -10.711   9.251  69.464  1.00  0.00    -0.236 A  
HETATM   10  C   UNL     1     -10.637   8.102  70.252  1.00  0.00    -0.228 A  
BRANCH   5  11
HETATM   11  C   UNL     1     -12.911  11.470  71.577  1.00  0.00    -0.485 C  
HETATM   12  C   UNL     1     -12.643  12.732  71.202  1.00  0.00    -0.365 C  
BRANCH  12  13
HETATM   13  C   UNL     1     -13.469  13.868  71.703  1.00  0.00    -0.352 C  
HETATM   14  O   UNL     1     -14.245  13.726  72.649  1.00  0.00    -0.710 OA 
BRANCH  13  15
HETATM   15  C   UNL     1     -13.306  15.202  71.028  1.00  0.00    -0.504 C  
BRANCH  15  16
HETATM   16  C   UNL     1     -12.007  15.877  71.368  1.00  0.00    -0.457 C  
HETATM   17  O   UNL     1     -11.800  16.320  72.498  1.00  0.00    -0.516 OA 
BRANCH  16  18
HETATM   18  C   UNL     1     -10.965  15.939  70.301  1.00  0.00    -0.370 C  
HETATM   19  C   UNL     1     -10.754  17.091  69.647  1.00  0.00    -0.048 C  
BRANCH  19  20
HETATM   20  C   UNL     1      -9.730  17.311  68.612  1.00  0.00    -0.301 A  
HETATM   21  C   UNL     1      -9.339  18.596  68.195  1.00  0.00    -0.347 A  
HETATM   22  C   UNL     1      -8.434  18.759  67.141  1.00  0.00    -0.272 A  
HETATM   23  C   UNL     1      -9.196  16.191  67.954  1.00  0.00    -0.200 A  
HETATM   24  C   UNL     1      -7.921  17.623  66.510  1.00  0.00    -0.267 A  
HETATM   25  H   UNL     1      -6.697  16.976  65.036  1.00  0.00     0.000 HD 
HETATM   26  O   UNL     1      -7.047  17.749  65.464  1.00  0.00    -0.446 OA 
HETATM   27  C   UNL     1      -8.286  16.344  66.907  1.00  0.00    -0.263 A  
BRANCH  22  28
HETATM   28  O   UNL     1      -7.995  19.954  66.634  1.00  0.00    -0.289 OA 
HETATM   29  C   UNL     1      -7.113  20.713  67.451  1.00  0.00    -0.349 C  
ENDBRANCH  22  28
ENDBRANCH  19  20
ENDBRANCH  16  18
ENDBRANCH  15  16
ENDBRANCH  13  15
ENDBRANCH  12  13
ENDBRANCH   5  11
ENDBRANCH   2   3
TORSDOF 8
ENDMDL
MODEL       62
REMARK 921   NORMALIZED FREE ENERGY PREDICTED BY IDOCK:   -5.85 KCAL/MOL
REMARK 922        TOTAL FREE ENERGY PREDICTED BY IDOCK:  -10.14 KCAL/MOL
REMARK 923 INTER-LIGAND FREE ENERGY PREDICTED BY IDOCK:   -9.17 KCAL/MOL
REMARK 924 INTRA-LIGAND FREE ENERGY PREDICTED BY IDOCK:   -0.97 KCAL/MOL
REMARK 927      BINDING AFFINITY PREDICTED BY RF-SCORE:    0.00 PKD
ROOT
HETATM    1  C   UNL     1      -5.970  17.735  66.635  1.00  0.00    -0.169 C  
HETATM    2  O   UNL     1      -7.122  18.575  66.639  1.00  0.00    -0.195 OA 
ENDROOT
BRANCH   2   3
HETATM    3  C   UNL     1      -8.298  17.946  66.963  1.00  0.00    -0.234 A  
HETATM    4  C   UNL     1      -8.779  16.823  66.282  1.00  0.00    -0.342 A  
HETATM    5  C   UNL     1     -10.006  16.237  66.620  1.00  0.00    -0.274 A  
HETATM    6  C   UNL     1     -10.711  16.741  67.721  1.00  0.00    -0.321 A  
HETATM    7  H   UNL     1      -9.049  19.865  69.475  1.00  0.00     0.000 HD 
HETATM    8  O   UNL     1      -8.557  19.530  68.735  1.00  0.00    -0.357 OA 
HETATM    9  C   UNL     1     -10.220  17.837  68.439  1.00  0.00    -0.384 A  
HETATM   10  C   UNL     1      -9.022  18.438  68.053  1.00  0.00    -0.290 A  
BRANCH   5  11
HETATM   11  C   UNL     1     -10.546  15.095  65.869  1.00  0.00    -0.347 C  
HETATM   12  C   UNL     1     -11.473  14.256  66.363  1.00  0.00    -0.361 C  
BRANCH  12  13
HETATM   13  C   UNL     1     -11.963  13.101  65.558  1.00  0.00    -0.412 C  
HETATM   14  O   UNL     1     -13.115  13.067  65.125  1.00  0.00    -0.740 OA 
BRANCH  13  15
HETATM   15  C   UNL     1     -10.995  11.987  65.272  1.00  0.00    -0.356 C  
BRANCH  15  16
HETATM   16  C   UNL     1     -10.259  11.520  66.497  1.00  0.00    -0.218 C  
HETATM   17  O   UNL     1      -9.052  11.726  66.628  1.00  0.00    -0.184 OA 
BRANCH  16  18
HETATM   18  C   UNL     1     -11.059  10.851  67.565  1.00  0.00    -0.375 C  
HETATM   19  C   UNL     1     -10.730  11.033  68.853  1.00  0.00    -0.249 C  
BRANCH  19  20
HETATM   20  C   UNL     1     -11.456  10.480  70.007  1.00  0.00    -0.393 A  
HETATM   21  C   UNL     1     -11.390   9.120  70.362  1.00  0.00    -0.260 A  
HETATM   22  C   UNL     1     -12.172   8.617  71.407  1.00  0.00    -0.304 A  
HETATM   23  C   UNL     1     -12.321  11.326  70.720  1.00  0.00    -0.495 A  
HETATM   24  C   UNL     1     -13.020   9.489  72.096  1.00  0.00    -0.412 A  
HETATM   25  H   UNL     1     -14.387   9.616  73.579  1.00  0.00     0.000 HD 
HETATM   26  O   UNL     1     -13.811   9.023  73.111  1.00  0.00    -0.287 OA 
HETATM   27  C   UNL     1     -13.099  10.834  71.768  1.00  0.00    -0.573 A  
BRANCH  22  28
HETATM   28  O   UNL     1     -12.208   7.314  71.830  1.00  0.00    -0.306 OA 
HETATM   29  C   UNL     1     -11.485   6.367  71.054  1.00  0.00    -0.334 C  
ENDBRANCH  22  28
ENDBRANCH  19  20
ENDBRANCH  16  18
ENDBRANCH  15  16
ENDBRANCH  13  15
ENDBRANCH  12  13
ENDBRANCH   5  11
ENDBRANCH   2   3
TORSDOF 8
ENDMDL
MODEL       63
REMARK 921   NORMALIZED FREE ENERGY PREDICTED BY IDOCK:   -5.83 KCAL/MOL
REMARK 922        TOTAL FREE ENERGY PREDICTED BY IDOCK:  -10.10 KCAL/MOL
REMARK 923 INTER-LIGAND FREE ENERGY PREDICTED BY IDOCK:   -8.32 KCAL/MOL
REMARK 924 INTRA-LIGAND FREE ENERGY PREDICTED BY IDOCK:   -1.78 KCAL/MOL
REMARK 927      BINDING AFFINITY PREDICTED BY RF-SCORE:    0.00 PKD
ROOT
HETATM    1  C   UNL     1     -10.153   5.027  67.086  1.00  0.00    -0.199 C  
HETATM    2  O   UNL     1     -10.603   5.876  68.139  1.00  0.00    -0.214 OA 
ENDROOT
BRANCH   2   3
HETATM    3  C   UNL     1     -10.195   7.184  68.044  1.00  0.00    -0.185 A  
HETATM    4  C   UNL     1     -10.555   8.024  66.987  1.00  0.00    -0.364 A  
HETATM    5  C   UNL     1     -10.082   9.340  66.909  1.00  0.00    -0.324 A  
HETATM    6  C   UNL     1      -9.307   9.840  67.963  1.00  0.00    -0.138 A  
HETATM    7  H   UNL     1      -8.529   7.241  70.834  1.00  0.00     0.000 HD 
HETATM    8  O   UNL     1      -9.061   6.891  70.129  1.00  0.00    -0.151 OA 
HETATM    9  C   UNL     1      -8.974   9.023  69.050  1.00  0.00    -0.140 A  
HETATM   10  C   UNL     1      -9.412   7.699  69.082  1.00  0.00    -0.154 A  
BRANCH   5  11
HETATM   11  C   UNL     1     -10.408  10.209  65.769  1.00  0.00    -0.216 C  
HETATM   12  C   UNL     1      -9.562  11.128  65.272  1.00  0.00    -0.268 C  
BRANCH  12  13
HETATM   13  C   UNL     1      -9.963  11.995  64.127  1.00  0.00    -0.263 C  
HETATM   14  O   UNL     1     -10.031  11.548  62.981  1.00  0.00    -0.365 OA 
BRANCH  13  15
HETATM   15  C   UNL     1     -10.303  13.429  64.422  1.00  0.00    -0.347 C  
BRANCH  15  16
HETATM   16  C   UNL     1     -11.777  13.657  64.606  1.00  0.00    -0.388 C  
HETATM   17  O   UNL     1     -12.487  14.005  63.663  1.00  0.00    -0.803 OA 
BRANCH  16  18
HETATM   18  C   UNL     1     -12.348  13.391  65.959  1.00  0.00    -0.471 C  
HETATM   19  C   UNL     1     -11.571  13.524  67.045  1.00  0.00    -0.394 C  
BRANCH  19  20
HETATM   20  C   UNL     1     -12.012  13.345  68.439  1.00  0.00    -0.359 A  
HETATM   21  C   UNL     1     -12.318  14.429  69.281  1.00  0.00    -0.188 A  
HETATM   22  C   UNL     1     -12.638  14.219  70.626  1.00  0.00    -0.355 A  
HETATM   23  C   UNL     1     -12.034  12.045  68.969  1.00  0.00    -0.321 A  
HETATM   24  C   UNL     1     -12.653  12.912  71.120  1.00  0.00    -0.281 A  
HETATM   25  H   UNL     1     -12.955  11.786  72.771  1.00  0.00     0.000 HD 
HETATM   26  O   UNL     1     -12.945  12.674  72.436  1.00  0.00    -0.270 OA 
HETATM   27  C   UNL     1     -12.360  11.826  70.308  1.00  0.00    -0.320 A  
BRANCH  22  28
HETATM   28  O   UNL     1     -12.933  15.192  71.544  1.00  0.00    -0.323 OA 
HETATM   29  C   UNL     1     -11.838  15.929  72.073  1.00  0.00    -0.515 C  
ENDBRANCH  22  28
ENDBRANCH  19  20
ENDBRANCH  16  18
ENDBRANCH  15  16
ENDBRANCH  13  15
ENDBRANCH  12  13
ENDBRANCH   5  11
ENDBRANCH   2   3
TORSDOF 8
ENDMDL
MODEL       64
REMARK 921   NORMALIZED FREE ENERGY PREDICTED BY IDOCK:   -5.82 KCAL/MOL
REMARK 922        TOTAL FREE ENERGY PREDICTED BY IDOCK:  -10.09 KCAL/MOL
REMARK 923 INTER-LIGAND FREE ENERGY PREDICTED BY IDOCK:   -8.38 KCAL/MOL
REMARK 924 INTRA-LIGAND FREE ENERGY PREDICTED BY IDOCK:   -1.71 KCAL/MOL
REMARK 927      BINDING AFFINITY PREDICTED BY RF-SCORE:    0.00 PKD
ROOT
HETATM    1  C   UNL     1     -11.892  10.954  68.971  1.00  0.00    -0.299 C  
HETATM    2  O   UNL     1     -12.106  11.382  70.313  1.00  0.00    -0.331 OA 
ENDROOT
BRANCH   2   3
HETATM    3  C   UNL     1     -12.317  12.729  70.467  1.00  0.00    -0.275 A  
HETATM    4  C   UNL     1     -11.900  13.681  69.531  1.00  0.00    -0.394 A  
HETATM    5  C   UNL     1     -12.100  15.051  69.748  1.00  0.00    -0.354 A  
HETATM    6  C   UNL     1     -12.811  15.455  70.884  1.00  0.00    -0.536 A  
HETATM    7  H   UNL     1     -13.916  12.522  73.288  1.00  0.00     0.000 HD 
HETATM    8  O   UNL     1     -13.440  12.233  72.518  1.00  0.00    -0.358 OA 
HETATM    9  C   UNL     1     -13.272  14.511  71.808  1.00  0.00    -0.429 A  
HETATM   10  C   UNL     1     -13.017  13.155  71.600  1.00  0.00    -0.335 A  
BRANCH   5  11
HETATM   11  C   UNL     1     -11.610  16.060  68.797  1.00  0.00    -0.352 C  
HETATM   12  C   UNL     1     -10.710  17.005  69.118  1.00  0.00    -0.253 C  
BRANCH  12  13
HETATM   13  C   UNL     1     -10.271  18.014  68.113  1.00  0.00    -0.384 C  
HETATM   14  O   UNL     1     -11.085  18.733  67.532  1.00  0.00    -0.326 OA 
BRANCH  13  15
HETATM   15  C   UNL     1      -8.797  18.141  67.848  1.00  0.00    -0.273 C  
BRANCH  15  16
HETATM   16  C   UNL     1      -8.389  17.576  66.516  1.00  0.00    -0.270 C  
HETATM   17  O   UNL     1      -7.547  18.141  65.818  1.00  0.00    -0.519 OA 
BRANCH  16  18
HETATM   18  C   UNL     1      -9.004  16.280  66.104  1.00  0.00    -0.374 C  
HETATM   19  C   UNL     1      -8.537  15.131  66.618  1.00  0.00    -0.279 C  
BRANCH  19  20
HETATM   20  C   UNL     1      -9.078  13.790  66.342  1.00  0.00    -0.083 A  
HETATM   21  C   UNL     1     -10.338  13.588  65.750  1.00  0.00    -0.296 A  
HETATM   22  C   UNL     1     -10.855  12.298  65.595  1.00  0.00    -0.285 A  
HETATM   23  C   UNL     1      -8.345  12.673  66.776  1.00  0.00    -0.011 A  
HETATM   24  C   UNL     1     -10.097  11.210  66.036  1.00  0.00    -0.244 A  
HETATM   25  H   UNL     1     -10.067   9.196  66.214  1.00  0.00     0.000 HD 
HETATM   26  O   UNL     1     -10.582   9.936  65.915  1.00  0.00    -0.079 OA 
HETATM   27  C   UNL     1      -8.849  11.383  66.618  1.00  0.00    -0.183 A  
BRANCH  22  28
HETATM   28  O   UNL     1     -12.072  11.978  65.054  1.00  0.00    -0.322 OA 
HETATM   29  C   UNL     1     -12.177  12.028  63.636  1.00  0.00    -0.538 C  
ENDBRANCH  22  28
ENDBRANCH  19  20
ENDBRANCH  16  18
ENDBRANCH  15  16
ENDBRANCH  13  15
ENDBRANCH  12  13
ENDBRANCH   5  11
ENDBRANCH   2   3
TORSDOF 8
ENDMDL
MODEL       65
REMARK 921   NORMALIZED FREE ENERGY PREDICTED BY IDOCK:   -5.77 KCAL/MOL
REMARK 922        TOTAL FREE ENERGY PREDICTED BY IDOCK:  -10.01 KCAL/MOL
REMARK 923 INTER-LIGAND FREE ENERGY PREDICTED BY IDOCK:   -8.30 KCAL/MOL
REMARK 924 INTRA-LIGAND FREE ENERGY PREDICTED BY IDOCK:   -1.72 KCAL/MOL
REMARK 927      BINDING AFFINITY PREDICTED BY RF-SCORE:    0.00 PKD
ROOT
HETATM    1  C   UNL     1     -13.254  15.291  71.163  1.00  0.00    -0.498 C  
HETATM    2  O   UNL     1     -12.516  14.165  71.632  1.00  0.00    -0.335 OA 
ENDROOT
BRANCH   2   3
HETATM    3  C   UNL     1     -12.280  13.194  70.691  1.00  0.00    -0.321 A  
HETATM    4  C   UNL     1     -11.660  13.450  69.464  1.00  0.00    -0.352 A  
HETATM    5  C   UNL     1     -11.476  12.435  68.515  1.00  0.00    -0.350 A  
HETATM    6  C   UNL     1     -11.844  11.126  68.851  1.00  0.00    -0.406 A  
HETATM    7  H   UNL     1     -13.497  10.723  72.416  1.00  0.00     0.000 HD 
HETATM    8  O   UNL     1     -13.247  11.615  72.204  1.00  0.00    -0.504 OA 
HETATM    9  C   UNL     1     -12.426  10.847  70.092  1.00  0.00    -0.356 A  
HETATM   10  C   UNL     1     -12.649  11.881  71.002  1.00  0.00    -0.283 A  
BRANCH   5  11
HETATM   11  C   UNL     1     -10.880  12.711  67.200  1.00  0.00    -0.282 C  
HETATM   12  C   UNL     1     -11.460  12.368  66.038  1.00  0.00    -0.431 C  
BRANCH  12  13
HETATM   13  C   UNL     1     -10.792  12.656  64.736  1.00  0.00    -0.302 C  
HETATM   14  O   UNL     1     -10.558  13.811  64.380  1.00  0.00    -0.418 OA 
BRANCH  13  15
HETATM   15  C   UNL     1     -10.392  11.485  63.883  1.00  0.00    -0.422 C  
BRANCH  15  16
HETATM   16  C   UNL     1      -9.367  10.603  64.539  1.00  0.00    -0.243 C  
HETATM   17  O   UNL     1      -8.163  10.803  64.380  1.00  0.00    -0.055 OA 
BRANCH  16  18
HETATM   18  C   UNL     1      -9.868   9.515  65.430  1.00  0.00    -0.248 C  
HETATM   19  C   UNL     1      -9.359   9.382  66.664  1.00  0.00    -0.211 C  
BRANCH  19  20
HETATM   20  C   UNL     1      -9.791   8.392  67.665  1.00  0.00    -0.222 A  
HETATM   21  C   UNL     1      -9.381   8.446  69.009  1.00  0.00    -0.147 A  
HETATM   22  C   UNL     1      -9.736   7.431  69.904  1.00  0.00    -0.171 A  
HETATM   23  C   UNL     1     -10.565   7.302  67.233  1.00  0.00    -0.395 A  
HETATM   24  C   UNL     1     -10.509   6.363  69.441  1.00  0.00    -0.228 A  
HETATM   25  H   UNL     1     -11.383   4.619  69.973  1.00  0.00     0.000 HD 
HETATM   26  O   UNL     1     -10.857   5.345  70.287  1.00  0.00    -0.266 OA 
HETATM   27  C   UNL     1     -10.930   6.290  68.121  1.00  0.00    -0.412 A  
BRANCH  22  28
HETATM   28  O   UNL     1      -9.381   7.363  71.225  1.00  0.00    -0.153 OA 
HETATM   29  C   UNL     1      -9.287   8.596  71.929  1.00  0.00    -0.287 C  
ENDBRANCH  22  28
ENDBRANCH  19  20
ENDBRANCH  16  18
ENDBRANCH  15  16
ENDBRANCH  13  15
ENDBRANCH  12  13
ENDBRANCH   5  11
ENDBRANCH   2   3
TORSDOF 8
ENDMDL
MODEL       66
REMARK 921   NORMALIZED FREE ENERGY PREDICTED BY IDOCK:   -5.77 KCAL/MOL
REMARK 922        TOTAL FREE ENERGY PREDICTED BY IDOCK:  -10.01 KCAL/MOL
REMARK 923 INTER-LIGAND FREE ENERGY PREDICTED BY IDOCK:   -9.01 KCAL/MOL
REMARK 924 INTRA-LIGAND FREE ENERGY PREDICTED BY IDOCK:   -1.00 KCAL/MOL
REMARK 927      BINDING AFFINITY PREDICTED BY RF-SCORE:    0.00 PKD
ROOT
HETATM    1  C   UNL     1      -9.304   6.462  70.933  1.00  0.00    -0.161 C  
HETATM    2  O   UNL     1     -10.600   6.752  70.415  1.00  0.00    -0.214 OA 
ENDROOT
BRANCH   2   3
HETATM    3  C   UNL     1     -10.695   7.929  69.715  1.00  0.00    -0.233 A  
HETATM    4  C   UNL     1     -10.402   8.035  68.352  1.00  0.00    -0.236 A  
HETATM    5  C   UNL     1     -10.472   9.266  67.686  1.00  0.00    -0.325 A  
HETATM    6  C   UNL     1     -10.933  10.386  68.390  1.00  0.00    -0.312 A  
HETATM    7  H   UNL     1     -11.748   9.739  72.200  1.00  0.00     0.000 HD 
HETATM    8  O   UNL     1     -11.443   8.969  71.734  1.00  0.00    -0.329 OA 
HETATM    9  C   UNL     1     -11.270  10.286  69.744  1.00  0.00    -0.339 A  
HETATM   10  C   UNL     1     -11.143   9.062  70.401  1.00  0.00    -0.244 A  
BRANCH   5  11
HETATM   11  C   UNL     1     -10.107   9.396  66.268  1.00  0.00    -0.328 C  
HETATM   12  C   UNL     1     -10.275  10.526  65.560  1.00  0.00    -0.325 C  
BRANCH  12  13
HETATM   13  C   UNL     1      -9.906  10.586  64.117  1.00  0.00    -0.337 C  
HETATM   14  O   UNL     1      -9.248   9.688  63.589  1.00  0.00    -0.247 OA 
BRANCH  13  15
HETATM   15  C   UNL     1     -10.383  11.769  63.322  1.00  0.00    -0.446 C  
BRANCH  15  16
HETATM   16  C   UNL     1     -11.569  12.453  63.942  1.00  0.00    -0.441 C  
HETATM   17  O   UNL     1     -12.715  12.192  63.576  1.00  0.00    -0.718 OA 
BRANCH  16  18
HETATM   18  C   UNL     1     -11.302  13.417  65.050  1.00  0.00    -0.330 C  
HETATM   19  C   UNL     1     -12.066  13.387  66.153  1.00  0.00    -0.481 C  
BRANCH  19  20
HETATM   20  C   UNL     1     -11.887  14.239  67.341  1.00  0.00    -0.441 A  
HETATM   21  C   UNL     1     -11.347  15.535  67.267  1.00  0.00    -0.167 A  
HETATM   22  C   UNL     1     -11.104  16.274  68.430  1.00  0.00    -0.362 A  
HETATM   23  C   UNL     1     -12.180  13.695  68.602  1.00  0.00    -0.189 A  
HETATM   24  C   UNL     1     -11.409  15.703  69.668  1.00  0.00    -0.329 A  
HETATM   25  H   UNL     1     -11.375  16.004  71.667  1.00  0.00     0.000 HD 
HETATM   26  O   UNL     1     -11.167  16.392  70.825  1.00  0.00    -0.350 OA 
HETATM   27  C   UNL     1     -11.948  14.428  69.766  1.00  0.00    -0.385 A  
BRANCH  22  28
HETATM   28  O   UNL     1     -10.565  17.532  68.486  1.00  0.00    -0.357 OA 
HETATM   29  C   UNL     1     -10.359  18.198  67.247  1.00  0.00    -0.386 C  
ENDBRANCH  22  28
ENDBRANCH  19  20
ENDBRANCH  16  18
ENDBRANCH  15  16
ENDBRANCH  13  15
ENDBRANCH  12  13
ENDBRANCH   5  11
ENDBRANCH   2   3
TORSDOF 8
ENDMDL
MODEL       67
REMARK 921   NORMALIZED FREE ENERGY PREDICTED BY IDOCK:   -5.75 KCAL/MOL
REMARK 922        TOTAL FREE ENERGY PREDICTED BY IDOCK:   -9.98 KCAL/MOL
REMARK 923 INTER-LIGAND FREE ENERGY PREDICTED BY IDOCK:   -8.14 KCAL/MOL
REMARK 924 INTRA-LIGAND FREE ENERGY PREDICTED BY IDOCK:   -1.83 KCAL/MOL
REMARK 927      BINDING AFFINITY PREDICTED BY RF-SCORE:    0.00 PKD
ROOT
HETATM    1  C   UNL     1     -11.537  11.307  69.965  1.00  0.00    -0.321 C  
HETATM    2  O   UNL     1     -12.650  11.957  70.574  1.00  0.00    -0.227 OA 
ENDROOT
BRANCH   2   3
HETATM    3  C   UNL     1     -12.475  13.295  70.824  1.00  0.00    -0.324 A  
HETATM    4  C   UNL     1     -11.668  14.122  70.038  1.00  0.00    -0.358 A  
HETATM    5  C   UNL     1     -11.485  15.475  70.354  1.00  0.00    -0.364 A  
HETATM    6  C   UNL     1     -12.201  16.017  71.428  1.00  0.00    -0.439 A  
HETATM    7  H   UNL     1     -14.451  13.439  73.400  1.00  0.00     0.000 HD 
HETATM    8  O   UNL     1     -13.976  13.059  72.670  1.00  0.00    -0.657 OA 
HETATM    9  C   UNL     1     -13.047  15.211  72.198  1.00  0.00    -0.454 A  
HETATM   10  C   UNL     1     -13.174  13.855  71.898  1.00  0.00    -0.397 A  
BRANCH   5  11
HETATM   11  C   UNL     1     -10.590  16.335  69.566  1.00  0.00    -0.314 C  
HETATM   12  C   UNL     1     -11.026  17.216  68.650  1.00  0.00    -0.171 C  
BRANCH  12  13
HETATM   13  C   UNL     1     -10.065  18.044  67.867  1.00  0.00    -0.355 C  
HETATM   14  O   UNL     1     -10.416  19.095  67.331  1.00  0.00    -0.401 OA 
BRANCH  13  15
HETATM   15  C   UNL     1      -8.643  17.562  67.773  1.00  0.00    -0.230 C  
BRANCH  15  16
HETATM   16  C   UNL     1      -8.346  16.860  66.478  1.00  0.00    -0.280 C  
HETATM   17  O   UNL     1      -7.623  17.377  65.628  1.00  0.00    -0.434 OA 
BRANCH  16  18
HETATM   18  C   UNL     1      -8.917  15.494  66.292  1.00  0.00    -0.362 C  
HETATM   19  C   UNL     1      -8.505  14.489  67.081  1.00  0.00    -0.234 C  
BRANCH  19  20
HETATM   20  C   UNL     1      -9.017  13.108  67.044  1.00  0.00    -0.228 A  
HETATM   21  C   UNL     1      -8.437  12.067  67.791  1.00  0.00    -0.157 A  
HETATM   22  C   UNL     1      -8.892  10.752  67.652  1.00  0.00    -0.132 A  
HETATM   23  C   UNL     1     -10.062  12.808  66.156  1.00  0.00    -0.274 A  
HETATM   24  C   UNL     1      -9.936  10.489  66.761  1.00  0.00    -0.204 A  
HETATM   25  H   UNL     1     -11.102   9.032  65.984  1.00  0.00     0.000 HD 
HETATM   26  O   UNL     1     -10.392   9.210  66.590  1.00  0.00    -0.259 OA 
HETATM   27  C   UNL     1     -10.528  11.501  66.018  1.00  0.00    -0.298 A  
BRANCH  22  28
HETATM   28  O   UNL     1      -8.396   9.655  68.307  1.00  0.00    -0.115 OA 
HETATM   29  C   UNL     1      -8.075   9.820  69.682  1.00  0.00    -0.154 C  
ENDBRANCH  22  28
ENDBRANCH  19  20
ENDBRANCH  16  18
ENDBRANCH  15  16
ENDBRANCH  13  15
ENDBRANCH  12  13
ENDBRANCH   5  11
ENDBRANCH   2   3
TORSDOF 8
ENDMDL
MODEL       68
REMARK 921   NORMALIZED FREE ENERGY PREDICTED BY IDOCK:   -5.69 KCAL/MOL
REMARK 922        TOTAL FREE ENERGY PREDICTED BY IDOCK:   -9.90 KCAL/MOL
REMARK 923 INTER-LIGAND FREE ENERGY PREDICTED BY IDOCK:   -8.35 KCAL/MOL
REMARK 924 INTRA-LIGAND FREE ENERGY PREDICTED BY IDOCK:   -1.55 KCAL/MOL
REMARK 927      BINDING AFFINITY PREDICTED BY RF-SCORE:    0.00 PKD
ROOT
HETATM    1  C   UNL     1      -7.235   3.434  69.509  1.00  0.00    -0.045 C  
HETATM    2  O   UNL     1      -8.576   3.071  69.192  1.00  0.00    -0.064 OA 
ENDROOT
BRANCH   2   3
HETATM    3  C   UNL     1      -9.345   4.083  68.676  1.00  0.00    -0.162 A  
HETATM    4  C   UNL     1      -9.860   5.126  69.452  1.00  0.00    -0.269 A  
HETATM    5  C   UNL     1     -10.676   6.117  68.891  1.00  0.00    -0.376 A  
HETATM    6  C   UNL     1     -10.898   6.102  67.508  1.00  0.00    -0.422 A  
HETATM    7  H   UNL     1      -9.246   3.070  65.589  1.00  0.00     0.000 HD 
HETATM    8  O   UNL     1      -9.081   3.072  66.525  1.00  0.00    -0.148 OA 
HETATM    9  C   UNL     1     -10.354   5.089  66.712  1.00  0.00    -0.290 A  
HETATM   10  C   UNL     1      -9.588   4.081  67.299  1.00  0.00    -0.189 A  
BRANCH   5  11
HETATM   11  C   UNL     1     -11.269   7.182  69.713  1.00  0.00    -0.206 C  
HETATM   12  C   UNL     1     -12.109   6.947  70.736  1.00  0.00    -0.400 C  
BRANCH  12  13
HETATM   13  C   UNL     1     -12.695   8.073  71.517  1.00  0.00    -0.307 C  
HETATM   14  O   UNL     1     -13.837   8.008  71.973  1.00  0.00    -0.329 OA 
BRANCH  13  15
HETATM   15  C   UNL     1     -11.835   9.285  71.749  1.00  0.00    -0.454 C  
BRANCH  15  16
HETATM   16  C   UNL     1     -12.475  10.559  71.274  1.00  0.00    -0.419 C  
HETATM   17  O   UNL     1     -13.065  11.303  72.058  1.00  0.00    -0.495 OA 
BRANCH  16  18
HETATM   18  C   UNL     1     -12.320  10.908  69.831  1.00  0.00    -0.354 C  
HETATM   19  C   UNL     1     -11.181  10.598  69.193  1.00  0.00    -0.324 C  
BRANCH  19  20
HETATM   20  C   UNL     1     -10.910  10.835  67.765  1.00  0.00    -0.320 A  
HETATM   21  C   UNL     1     -11.374  11.976  67.086  1.00  0.00    -0.396 A  
HETATM   22  C   UNL     1     -11.178  12.114  65.708  1.00  0.00    -0.339 A  
HETATM   23  C   UNL     1     -10.244   9.835  67.038  1.00  0.00    -0.292 A  
HETATM   24  C   UNL     1     -10.509  11.101  65.016  1.00  0.00    -0.293 A  
HETATM   25  H   UNL     1      -9.861  10.510  63.194  1.00  0.00     0.000 HD 
HETATM   26  O   UNL     1     -10.316  11.199  63.665  1.00  0.00    -0.344 OA 
HETATM   27  C   UNL     1     -10.036   9.969  65.665  1.00  0.00    -0.321 A  
BRANCH  22  28
HETATM   28  O   UNL     1     -11.600  13.165  64.937  1.00  0.00    -0.307 OA 
HETATM   29  C   UNL     1     -12.709  13.912  65.420  1.00  0.00    -0.490 C  
ENDBRANCH  22  28
ENDBRANCH  19  20
ENDBRANCH  16  18
ENDBRANCH  15  16
ENDBRANCH  13  15
ENDBRANCH  12  13
ENDBRANCH   5  11
ENDBRANCH   2   3
TORSDOF 8
ENDMDL
MODEL       69
REMARK 921   NORMALIZED FREE ENERGY PREDICTED BY IDOCK:   -5.69 KCAL/MOL
REMARK 922        TOTAL FREE ENERGY PREDICTED BY IDOCK:   -9.89 KCAL/MOL
REMARK 923 INTER-LIGAND FREE ENERGY PREDICTED BY IDOCK:   -8.28 KCAL/MOL
REMARK 924 INTRA-LIGAND FREE ENERGY PREDICTED BY IDOCK:   -1.61 KCAL/MOL
REMARK 927      BINDING AFFINITY PREDICTED BY RF-SCORE:    0.00 PKD
ROOT
HETATM    1  C   UNL     1     -11.655  15.786  71.497  1.00  0.00    -0.459 C  
HETATM    2  O   UNL     1     -12.101  15.582  70.159  1.00  0.00    -0.340 OA 
ENDROOT
BRANCH   2   3
HETATM    3  C   UNL     1     -12.022  14.287  69.711  1.00  0.00    -0.339 A  
HETATM    4  C   UNL     1     -12.153  13.177  70.552  1.00  0.00    -0.385 A  
HETATM    5  C   UNL     1     -12.024  11.872  70.060  1.00  0.00    -0.409 A  
HETATM    6  C   UNL     1     -11.850  11.686  68.683  1.00  0.00    -0.370 A  
HETATM    7  H   UNL     1     -11.595  15.016  66.574  1.00  0.00     0.000 HD 
HETATM    8  O   UNL     1     -11.719  15.157  67.505  1.00  0.00    -0.322 OA 
HETATM    9  C   UNL     1     -11.760  12.786  67.823  1.00  0.00    -0.412 A  
HETATM   10  C   UNL     1     -11.838  14.079  68.341  1.00  0.00    -0.362 A  
BRANCH   5  11
HETATM   11  C   UNL     1     -12.100  10.703  70.949  1.00  0.00    -0.489 C  
HETATM   12  C   UNL     1     -13.254  10.100  71.282  1.00  0.00    -0.453 C  
BRANCH  12  13
HETATM   13  C   UNL     1     -13.267   8.932  72.207  1.00  0.00    -0.447 C  
HETATM   14  O   UNL     1     -14.322   8.484  72.657  1.00  0.00    -0.473 OA 
BRANCH  13  15
HETATM   15  C   UNL     1     -11.946   8.303  72.557  1.00  0.00    -0.420 C  
BRANCH  15  16
HETATM   16  C   UNL     1     -11.709   7.002  71.842  1.00  0.00    -0.296 C  
HETATM   17  O   UNL     1     -11.800   5.927  72.435  1.00  0.00    -0.311 OA 
BRANCH  16  18
HETATM   18  C   UNL     1     -11.413   7.066  70.381  1.00  0.00    -0.355 C  
HETATM   19  C   UNL     1     -10.379   7.804  69.945  1.00  0.00    -0.223 C  
BRANCH  19  20
HETATM   20  C   UNL     1      -9.942   7.917  68.544  1.00  0.00    -0.200 A  
HETATM   21  C   UNL     1      -9.743   6.795  67.719  1.00  0.00    -0.140 A  
HETATM   22  C   UNL     1      -9.233   6.943  66.425  1.00  0.00    -0.152 A  
HETATM   23  C   UNL     1      -9.620   9.191  68.047  1.00  0.00    -0.165 A  
HETATM   24  C   UNL     1      -8.927   8.225  65.962  1.00  0.00    -0.181 A  
HETATM   25  H   UNL     1      -8.202   9.273  64.393  1.00  0.00     0.000 HD 
HETATM   26  O   UNL     1      -8.410   8.401  64.707  1.00  0.00    -0.163 OA 
HETATM   27  C   UNL     1      -9.119   9.348  66.755  1.00  0.00    -0.168 A  
BRANCH  22  28
HETATM   28  O   UNL     1      -8.979   5.928  65.540  1.00  0.00    -0.139 OA 
HETATM   29  C   UNL     1      -7.919   5.039  65.869  1.00  0.00    -0.107 C  
ENDBRANCH  22  28
ENDBRANCH  19  20
ENDBRANCH  16  18
ENDBRANCH  15  16
ENDBRANCH  13  15
ENDBRANCH  12  13
ENDBRANCH   5  11
ENDBRANCH   2   3
TORSDOF 8
ENDMDL
MODEL       70
REMARK 921   NORMALIZED FREE ENERGY PREDICTED BY IDOCK:   -5.66 KCAL/MOL
REMARK 922        TOTAL FREE ENERGY PREDICTED BY IDOCK:   -9.86 KCAL/MOL
REMARK 923 INTER-LIGAND FREE ENERGY PREDICTED BY IDOCK:   -8.75 KCAL/MOL
REMARK 924 INTRA-LIGAND FREE ENERGY PREDICTED BY IDOCK:   -1.11 KCAL/MOL
REMARK 927      BINDING AFFINITY PREDICTED BY RF-SCORE:    0.00 PKD
ROOT
HETATM    1  C   UNL     1     -12.462  10.497  70.912  1.00  0.00    -0.390 C  
HETATM    2  O   UNL     1     -11.735   9.374  70.424  1.00  0.00    -0.239 OA 
ENDROOT
BRANCH   2   3
HETATM    3  C   UNL     1     -10.580   9.679  69.747  1.00  0.00    -0.242 A  
HETATM    4  C   UNL     1     -10.569  10.182  68.442  1.00  0.00    -0.249 A  
HETATM    5  C   UNL     1      -9.365  10.441  67.773  1.00  0.00    -0.155 A  
HETATM    6  C   UNL     1      -8.161  10.274  68.467  1.00  0.00    -0.109 A  
HETATM    7  H   UNL     1      -8.538   8.913  72.156  1.00  0.00     0.000 HD 
HETATM    8  O   UNL     1      -9.363   9.028  71.699  1.00  0.00    -0.265 OA 
HETATM    9  C   UNL     1      -8.159   9.812  69.788  1.00  0.00    -0.174 A  
HETATM   10  C   UNL     1      -9.366   9.510  70.418  1.00  0.00    -0.257 A  
BRANCH   5  11
HETATM   11  C   UNL     1      -9.346  10.913  66.381  1.00  0.00    -0.199 C  
HETATM   12  C   UNL     1     -10.209  10.488  65.443  1.00  0.00    -0.340 C  
BRANCH  12  13
HETATM   13  C   UNL     1     -10.122  10.988  64.041  1.00  0.00    -0.350 C  
HETATM   14  O   UNL     1      -9.416  10.424  63.204  1.00  0.00    -0.289 OA 
BRANCH  13  15
HETATM   15  C   UNL     1     -10.943  12.194  63.677  1.00  0.00    -0.527 C  
BRANCH  15  16
HETATM   16  C   UNL     1     -12.225  12.287  64.455  1.00  0.00    -0.402 C  
HETATM   17  O   UNL     1     -13.299  11.961  63.949  1.00  0.00    -0.600 OA 
BRANCH  16  18
HETATM   18  C   UNL     1     -12.135  12.737  65.875  1.00  0.00    -0.485 C  
HETATM   19  C   UNL     1     -11.735  13.988  66.151  1.00  0.00    -0.395 C  
BRANCH  19  20
HETATM   20  C   UNL     1     -11.648  14.581  67.495  1.00  0.00    -0.403 A  
HETATM   21  C   UNL     1     -11.064  15.839  67.732  1.00  0.00    -0.313 A  
HETATM   22  C   UNL     1     -10.915  16.322  69.036  1.00  0.00    -0.325 A  
HETATM   23  C   UNL     1     -12.082  13.817  68.591  1.00  0.00    -0.333 A  
HETATM   24  C   UNL     1     -11.359  15.535  70.102  1.00  0.00    -0.326 A  
HETATM   25  H   UNL     1     -11.514  15.437  72.115  1.00  0.00     0.000 HD 
HETATM   26  O   UNL     1     -11.212  15.972  71.391  1.00  0.00    -0.324 OA 
HETATM   27  C   UNL     1     -11.944  14.294  69.894  1.00  0.00    -0.397 A  
BRANCH  22  28
HETATM   28  O   UNL     1     -10.346  17.516  69.391  1.00  0.00    -0.288 OA 
HETATM   29  C   UNL     1      -9.902  18.356  68.333  1.00  0.00    -0.371 C  
ENDBRANCH  22  28
ENDBRANCH  19  20
ENDBRANCH  16  18
ENDBRANCH  15  16
ENDBRANCH  13  15
ENDBRANCH  12  13
ENDBRANCH   5  11
ENDBRANCH   2   3
TORSDOF 8
ENDMDL
MODEL       71
REMARK 921   NORMALIZED FREE ENERGY PREDICTED BY IDOCK:   -5.66 KCAL/MOL
REMARK 922        TOTAL FREE ENERGY PREDICTED BY IDOCK:   -9.85 KCAL/MOL
REMARK 923 INTER-LIGAND FREE ENERGY PREDICTED BY IDOCK:   -8.91 KCAL/MOL
REMARK 924 INTRA-LIGAND FREE ENERGY PREDICTED BY IDOCK:   -0.94 KCAL/MOL
REMARK 927      BINDING AFFINITY PREDICTED BY RF-SCORE:    0.00 PKD
ROOT
HETATM    1  C   UNL     1      -9.719   8.965  71.612  1.00  0.00    -0.309 C  
HETATM    2  O   UNL     1     -10.944   8.720  70.927  1.00  0.00    -0.239 OA 
ENDROOT
BRANCH   2   3
HETATM    3  C   UNL     1     -10.810   8.185  69.670  1.00  0.00    -0.158 A  
HETATM    4  C   UNL     1     -10.373   8.924  68.567  1.00  0.00    -0.229 A  
HETATM    5  C   UNL     1     -10.291   8.348  67.292  1.00  0.00    -0.369 A  
HETATM    6  C   UNL     1     -10.567   6.982  67.152  1.00  0.00    -0.412 A  
HETATM    7  H   UNL     1     -11.698   5.163  70.470  1.00  0.00     0.000 HD 
HETATM    8  O   UNL     1     -11.508   6.087  70.581  1.00  0.00    -0.299 OA 
HETATM    9  C   UNL     1     -10.963   6.220  68.256  1.00  0.00    -0.408 A  
HETATM   10  C   UNL     1     -11.090   6.825  69.506  1.00  0.00    -0.273 A  
BRANCH   5  11
HETATM   11  C   UNL     1      -9.891   9.135  66.116  1.00  0.00    -0.363 C  
HETATM   12  C   UNL     1     -10.527  10.251  65.722  1.00  0.00    -0.159 C  
BRANCH  12  13
HETATM   13  C   UNL     1     -10.085  10.993  64.506  1.00  0.00    -0.321 C  
HETATM   14  O   UNL     1      -8.892  11.090  64.216  1.00  0.00    -0.109 OA 
BRANCH  13  15
HETATM   15  C   UNL     1     -11.147  11.598  63.632  1.00  0.00    -0.506 C  
BRANCH  15  16
HETATM   16  C   UNL     1     -11.955  12.653  64.335  1.00  0.00    -0.400 C  
HETATM   17  O   UNL     1     -13.155  12.491  64.555  1.00  0.00    -0.816 OA 
BRANCH  16  18
HETATM   18  C   UNL     1     -11.233  13.873  64.801  1.00  0.00    -0.369 C  
HETATM   19  C   UNL     1     -11.330  14.252  66.084  1.00  0.00    -0.342 C  
BRANCH  19  20
HETATM   20  C   UNL     1     -10.635  15.399  66.692  1.00  0.00    -0.306 A  
HETATM   21  C   UNL     1     -10.455  16.620  66.016  1.00  0.00    -0.306 A  
HETATM   22  C   UNL     1      -9.705  17.650  66.592  1.00  0.00    -0.301 A  
HETATM   23  C   UNL     1     -10.049  15.230  67.957  1.00  0.00    -0.229 A  
HETATM   24  C   UNL     1      -9.138  17.448  67.854  1.00  0.00    -0.255 A  
HETATM   25  H   UNL     1      -7.999  18.293  69.294  1.00  0.00     0.000 HD 
HETATM   26  O   UNL     1      -8.384  18.430  68.437  1.00  0.00    -0.294 OA 
HETATM   27  C   UNL     1      -9.306  16.256  68.542  1.00  0.00    -0.213 A  
BRANCH  22  28
HETATM   28  O   UNL     1      -9.445  18.870  66.025  1.00  0.00    -0.471 OA 
HETATM   29  C   UNL     1     -10.550  19.748  65.854  1.00  0.00    -0.453 C  
ENDBRANCH  22  28
ENDBRANCH  19  20
ENDBRANCH  16  18
ENDBRANCH  15  16
ENDBRANCH  13  15
ENDBRANCH  12  13
ENDBRANCH   5  11
ENDBRANCH   2   3
TORSDOF 8
ENDMDL
MODEL       72
REMARK 921   NORMALIZED FREE ENERGY PREDICTED BY IDOCK:   -5.66 KCAL/MOL
REMARK 922        TOTAL FREE ENERGY PREDICTED BY IDOCK:   -9.85 KCAL/MOL
REMARK 923 INTER-LIGAND FREE ENERGY PREDICTED BY IDOCK:   -8.21 KCAL/MOL
REMARK 924 INTRA-LIGAND FREE ENERGY PREDICTED BY IDOCK:   -1.64 KCAL/MOL
REMARK 927      BINDING AFFINITY PREDICTED BY RF-SCORE:    0.00 PKD
ROOT
HETATM    1  C   UNL     1     -13.833   8.901  71.902  1.00  0.00    -0.440 C  
HETATM    2  O   UNL     1     -12.713   9.721  72.228  1.00  0.00    -0.342 OA 
ENDROOT
BRANCH   2   3
HETATM    3  C   UNL     1     -11.879  10.009  71.176  1.00  0.00    -0.393 A  
HETATM    4  C   UNL     1     -12.244  10.846  70.117  1.00  0.00    -0.423 A  
HETATM    5  C   UNL     1     -11.376  11.080  69.042  1.00  0.00    -0.345 A  
HETATM    6  C   UNL     1     -10.088  10.531  69.086  1.00  0.00    -0.240 A  
HETATM    7  H   UNL     1      -9.344   8.280  72.245  1.00  0.00     0.000 HD 
HETATM    8  O   UNL     1     -10.219   8.651  72.232  1.00  0.00    -0.320 OA 
HETATM    9  C   UNL     1      -9.694   9.727  70.161  1.00  0.00    -0.299 A  
HETATM   10  C   UNL     1     -10.592   9.463  71.195  1.00  0.00    -0.333 A  
BRANCH   5  11
HETATM   11  C   UNL     1     -11.777  11.910  67.896  1.00  0.00    -0.368 C  
HETATM   12  C   UNL     1     -11.100  13.001  67.500  1.00  0.00    -0.297 C  
BRANCH  12  13
HETATM   13  C   UNL     1     -11.571  13.814  66.343  1.00  0.00    -0.360 C  
HETATM   14  O   UNL     1     -12.543  14.564  66.444  1.00  0.00    -0.251 OA 
BRANCH  13  15
HETATM   15  C   UNL     1     -10.806  13.705  65.054  1.00  0.00    -0.358 C  
BRANCH  15  16
HETATM   16  C   UNL     1     -11.443  12.763  64.071  1.00  0.00    -0.417 C  
HETATM   17  O   UNL     1     -12.298  13.158  63.278  1.00  0.00    -0.712 OA 
BRANCH  16  18
HETATM   18  C   UNL     1     -10.960  11.351  64.061  1.00  0.00    -0.428 C  
HETATM   19  C   UNL     1      -9.861  11.021  64.758  1.00  0.00    -0.329 C  
BRANCH  19  20
HETATM   20  C   UNL     1      -9.302   9.664  64.879  1.00  0.00    -0.306 A  
HETATM   21  C   UNL     1      -9.504   8.862  66.016  1.00  0.00    -0.320 A  
HETATM   22  C   UNL     1      -8.875   7.618  66.132  1.00  0.00    -0.164 A  
HETATM   23  C   UNL     1      -8.457   9.198  63.859  1.00  0.00    -0.189 A  
HETATM   24  C   UNL     1      -8.042   7.184  65.097  1.00  0.00    -0.127 A  
HETATM   25  H   UNL     1      -6.832   5.685  64.485  1.00  0.00     0.000 HD 
HETATM   26  O   UNL     1      -7.397   5.980  65.188  1.00  0.00    -0.068 OA 
HETATM   27  C   UNL     1      -7.831   7.956  63.963  1.00  0.00    -0.138 A  
BRANCH  22  28
HETATM   28  O   UNL     1      -8.978   6.760  67.195  1.00  0.00    -0.114 OA 
HETATM   29  C   UNL     1      -8.241   7.093  68.364  1.00  0.00    -0.125 C  
ENDBRANCH  22  28
ENDBRANCH  19  20
ENDBRANCH  16  18
ENDBRANCH  15  16
ENDBRANCH  13  15
ENDBRANCH  12  13
ENDBRANCH   5  11
ENDBRANCH   2   3
TORSDOF 8
ENDMDL
MODEL       73
REMARK 921   NORMALIZED FREE ENERGY PREDICTED BY IDOCK:   -5.65 KCAL/MOL
REMARK 922        TOTAL FREE ENERGY PREDICTED BY IDOCK:   -9.84 KCAL/MOL
REMARK 923 INTER-LIGAND FREE ENERGY PREDICTED BY IDOCK:   -8.72 KCAL/MOL
REMARK 924 INTRA-LIGAND FREE ENERGY PREDICTED BY IDOCK:   -1.12 KCAL/MOL
REMARK 927      BINDING AFFINITY PREDICTED BY RF-SCORE:    0.00 PKD
ROOT
HETATM    1  C   UNL     1      -6.078  14.296  70.585  1.00  0.00    -0.181 C  
HETATM    2  O   UNL     1      -5.639  14.857  69.351  1.00  0.00    -0.094 OA 
ENDROOT
BRANCH   2   3
HETATM    3  C   UNL     1      -6.534  15.706  68.748  1.00  0.00    -0.109 A  
HETATM    4  C   UNL     1      -7.368  15.317  67.695  1.00  0.00    -0.201 A  
HETATM    5  C   UNL     1      -8.237  16.228  67.081  1.00  0.00    -0.219 A  
HETATM    6  C   UNL     1      -8.327  17.526  67.600  1.00  0.00    -0.215 A  
HETATM    7  H   UNL     1      -5.896  18.285  70.619  1.00  0.00     0.000 HD 
HETATM    8  O   UNL     1      -5.829  17.399  70.281  1.00  0.00    -0.237 OA 
HETATM    9  C   UNL     1      -7.529  17.917  68.681  1.00  0.00    -0.280 A  
HETATM   10  C   UNL     1      -6.632  17.009  69.244  1.00  0.00    -0.233 A  
BRANCH   5  11
HETATM   11  C   UNL     1      -9.073  15.841  65.935  1.00  0.00    -0.300 C  
HETATM   12  C   UNL     1     -10.379  16.140  65.837  1.00  0.00    -0.384 C  
BRANCH  12  13
HETATM   13  C   UNL     1     -11.177  15.699  64.658  1.00  0.00    -0.369 C  
HETATM   14  O   UNL     1     -11.650  16.514  63.865  1.00  0.00    -1.175 OA 
BRANCH  13  15
HETATM   15  C   UNL     1     -11.367  14.221  64.456  1.00  0.00    -0.341 C  
BRANCH  15  16
HETATM   16  C   UNL     1     -12.340  13.616  65.427  1.00  0.00    -0.476 C  
HETATM   17  O   UNL     1     -13.526  13.946  65.426  1.00  0.00    -0.672 OA 
BRANCH  16  18
HETATM   18  C   UNL     1     -11.823  12.564  66.351  1.00  0.00    -0.445 C  
HETATM   19  C   UNL     1     -11.729  12.823  67.665  1.00  0.00    -0.422 C  
BRANCH  19  20
HETATM   20  C   UNL     1     -11.287  11.868  68.695  1.00  0.00    -0.331 A  
HETATM   21  C   UNL     1     -10.053  11.196  68.625  1.00  0.00    -0.208 A  
HETATM   22  C   UNL     1      -9.715  10.225  69.573  1.00  0.00    -0.211 A  
HETATM   23  C   UNL     1     -12.177  11.549  69.734  1.00  0.00    -0.310 A  
HETATM   24  C   UNL     1     -10.623   9.935  70.595  1.00  0.00    -0.271 A  
HETATM   25  H   UNL     1     -10.947   8.779  72.222  1.00  0.00     0.000 HD 
HETATM   26  O   UNL     1     -10.330   8.977  71.527  1.00  0.00    -0.291 OA 
HETATM   27  C   UNL     1     -11.844  10.587  70.688  1.00  0.00    -0.458 A  
BRANCH  22  28
HETATM   28  O   UNL     1      -8.558   9.493  69.597  1.00  0.00    -0.150 OA 
HETATM   29  C   UNL     1      -7.337  10.221  69.551  1.00  0.00    -0.132 C  
ENDBRANCH  22  28
ENDBRANCH  19  20
ENDBRANCH  16  18
ENDBRANCH  15  16
ENDBRANCH  13  15
ENDBRANCH  12  13
ENDBRANCH   5  11
ENDBRANCH   2   3
TORSDOF 8
ENDMDL
MODEL       74
REMARK 921   NORMALIZED FREE ENERGY PREDICTED BY IDOCK:   -5.63 KCAL/MOL
REMARK 922        TOTAL FREE ENERGY PREDICTED BY IDOCK:   -9.81 KCAL/MOL
REMARK 923 INTER-LIGAND FREE ENERGY PREDICTED BY IDOCK:   -8.66 KCAL/MOL
REMARK 924 INTRA-LIGAND FREE ENERGY PREDICTED BY IDOCK:   -1.15 KCAL/MOL
REMARK 927      BINDING AFFINITY PREDICTED BY RF-SCORE:    0.00 PKD
ROOT
HETATM    1  C   UNL     1     -12.227  11.726  70.545  1.00  0.00    -0.347 C  
HETATM    2  O   UNL     1     -12.814  10.803  71.458  1.00  0.00    -0.405 OA 
ENDROOT
BRANCH   2   3
HETATM    3  C   UNL     1     -12.526   9.483  71.215  1.00  0.00    -0.346 A  
HETATM    4  C   UNL     1     -11.485   9.068  70.378  1.00  0.00    -0.202 A  
HETATM    5  C   UNL     1     -11.253   7.709  70.126  1.00  0.00    -0.193 A  
HETATM    6  C   UNL     1     -12.027   6.757  70.801  1.00  0.00    -0.433 A  
HETATM    7  H   UNL     1     -14.829   8.252  73.149  1.00  0.00     0.000 HD 
HETATM    8  O   UNL     1     -14.308   8.909  72.703  1.00  0.00    -0.613 OA 
HETATM    9  C   UNL     1     -13.043   7.158  71.675  1.00  0.00    -0.410 A  
HETATM   10  C   UNL     1     -13.293   8.516  71.872  1.00  0.00    -0.372 A  
BRANCH   5  11
HETATM   11  C   UNL     1     -10.199   7.268  69.200  1.00  0.00    -0.197 C  
HETATM   12  C   UNL     1      -9.003   7.872  69.098  1.00  0.00    -0.145 C  
BRANCH  12  13
HETATM   13  C   UNL     1      -7.985   7.390  68.122  1.00  0.00    -0.123 C  
HETATM   14  O   UNL     1      -6.786   7.378  68.403  1.00  0.00    -0.050 OA 
BRANCH  13  15
HETATM   15  C   UNL     1      -8.473   6.895  66.789  1.00  0.00    -0.118 C  
BRANCH  15  16
HETATM   16  C   UNL     1      -8.509   7.972  65.741  1.00  0.00    -0.147 C  
HETATM   17  O   UNL     1      -7.872   7.859  64.693  1.00  0.00    -0.119 OA 
BRANCH  16  18
HETATM   18  C   UNL     1      -9.386   9.152  65.999  1.00  0.00    -0.300 C  
HETATM   19  C   UNL     1      -9.668  10.000  64.998  1.00  0.00    -0.386 C  
BRANCH  19  20
HETATM   20  C   UNL     1     -10.555  11.172  65.094  1.00  0.00    -0.319 A  
HETATM   21  C   UNL     1     -10.778  11.855  66.303  1.00  0.00    -0.309 A  
HETATM   22  C   UNL     1     -11.703  12.902  66.370  1.00  0.00    -0.395 A  
HETATM   23  C   UNL     1     -11.277  11.557  63.953  1.00  0.00    -0.439 A  
HETATM   24  C   UNL     1     -12.402  13.260  65.214  1.00  0.00    -0.476 A  
HETATM   25  H   UNL     1     -13.802  14.512  64.466  1.00  0.00     0.000 HD 
HETATM   26  O   UNL     1     -13.327  14.268  65.252  1.00  0.00    -0.660 OA 
HETATM   27  C   UNL     1     -12.195  12.605  64.009  1.00  0.00    -0.544 A  
BRANCH  22  28
HETATM   28  O   UNL     1     -12.019  13.625  67.490  1.00  0.00    -0.363 OA 
HETATM   29  C   UNL     1     -10.956  14.325  68.124  1.00  0.00    -0.246 C  
ENDBRANCH  22  28
ENDBRANCH  19  20
ENDBRANCH  16  18
ENDBRANCH  15  16
ENDBRANCH  13  15
ENDBRANCH  12  13
ENDBRANCH   5  11
ENDBRANCH   2   3
TORSDOF 8
ENDMDL
MODEL       75
REMARK 921   NORMALIZED FREE ENERGY PREDICTED BY IDOCK:   -5.62 KCAL/MOL
REMARK 922        TOTAL FREE ENERGY PREDICTED BY IDOCK:   -9.79 KCAL/MOL
REMARK 923 INTER-LIGAND FREE ENERGY PREDICTED BY IDOCK:   -8.22 KCAL/MOL
REMARK 924 INTRA-LIGAND FREE ENERGY PREDICTED BY IDOCK:   -1.57 KCAL/MOL
REMARK 927      BINDING AFFINITY PREDICTED BY RF-SCORE:    0.00 PKD
ROOT
HETATM    1  C   UNL     1     -10.749  15.908  69.651  1.00  0.00    -0.304 C  
HETATM    2  O   UNL     1     -12.111  15.492  69.612  1.00  0.00    -0.351 OA 
ENDROOT
BRANCH   2   3
HETATM    3  C   UNL     1     -12.381  14.322  70.277  1.00  0.00    -0.354 A  
HETATM    4  C   UNL     1     -11.950  13.070  69.828  1.00  0.00    -0.377 A  
HETATM    5  C   UNL     1     -12.283  11.895  70.516  1.00  0.00    -0.426 A  
HETATM    6  C   UNL     1     -12.985  12.000  71.723  1.00  0.00    -0.445 A  
HETATM    7  H   UNL     1     -13.989  15.679  72.753  1.00  0.00     0.000 HD 
HETATM    8  O   UNL     1     -13.508  15.623  71.936  1.00  0.00    -0.469 OA 
HETATM    9  C   UNL     1     -13.386  13.250  72.207  1.00  0.00    -0.630 A  
HETATM   10  C   UNL     1     -13.089  14.402  71.479  1.00  0.00    -0.340 A  
BRANCH   5  11
HETATM   11  C   UNL     1     -11.884  10.571  70.017  1.00  0.00    -0.388 C  
HETATM   12  C   UNL     1     -10.629  10.096  70.099  1.00  0.00    -0.337 C  
BRANCH  12  13
HETATM   13  C   UNL     1     -10.284   8.753  69.552  1.00  0.00    -0.208 C  
HETATM   14  O   UNL     1     -10.786   7.728  70.014  1.00  0.00    -0.239 OA 
BRANCH  13  15
HETATM   15  C   UNL     1      -9.319   8.694  68.401  1.00  0.00    -0.141 C  
BRANCH  15  16
HETATM   16  C   UNL     1      -9.652   9.667  67.306  1.00  0.00    -0.164 C  
HETATM   17  O   UNL     1     -10.533   9.419  66.483  1.00  0.00    -0.215 OA 
BRANCH  16  18
HETATM   18  C   UNL     1      -8.911  10.963  67.291  1.00  0.00    -0.134 C  
HETATM   19  C   UNL     1      -9.551  12.090  66.942  1.00  0.00    -0.209 C  
BRANCH  19  20
HETATM   20  C   UNL     1      -8.963  13.439  66.932  1.00  0.00    -0.216 A  
HETATM   21  C   UNL     1      -9.575  14.527  66.283  1.00  0.00    -0.328 A  
HETATM   22  C   UNL     1      -8.935  15.769  66.215  1.00  0.00    -0.345 A  
HETATM   23  C   UNL     1      -7.697  13.619  67.512  1.00  0.00    -0.183 A  
HETATM   24  C   UNL     1      -7.677  15.912  66.805  1.00  0.00    -0.210 A  
HETATM   25  H   UNL     1      -6.161  17.208  67.142  1.00  0.00     0.000 HD 
HETATM   26  O   UNL     1      -7.017  17.110  66.741  1.00  0.00    -0.178 OA 
HETATM   27  C   UNL     1      -7.055  14.856  67.456  1.00  0.00    -0.215 A  
BRANCH  22  28
HETATM   28  O   UNL     1      -9.420  16.891  65.596  1.00  0.00    -0.524 OA 
HETATM   29  C   UNL     1     -10.415  17.629  66.293  1.00  0.00    -0.292 C  
ENDBRANCH  22  28
ENDBRANCH  19  20
ENDBRANCH  16  18
ENDBRANCH  15  16
ENDBRANCH  13  15
ENDBRANCH  12  13
ENDBRANCH   5  11
ENDBRANCH   2   3
TORSDOF 8
ENDMDL
MODEL       76
REMARK 921   NORMALIZED FREE ENERGY PREDICTED BY IDOCK:   -5.62 KCAL/MOL
REMARK 922        TOTAL FREE ENERGY PREDICTED BY IDOCK:   -9.79 KCAL/MOL
REMARK 923 INTER-LIGAND FREE ENERGY PREDICTED BY IDOCK:   -8.89 KCAL/MOL
REMARK 924 INTRA-LIGAND FREE ENERGY PREDICTED BY IDOCK:   -0.89 KCAL/MOL
REMARK 927      BINDING AFFINITY PREDICTED BY RF-SCORE:    0.00 PKD
ROOT
HETATM    1  C   UNL     1      -9.329   6.996  70.368  1.00  0.00    -0.159 C  
HETATM    2  O   UNL     1      -9.391   8.049  71.327  1.00  0.00    -0.143 OA 
ENDROOT
BRANCH   2   3
HETATM    3  C   UNL     1     -10.496   8.858  71.229  1.00  0.00    -0.287 A  
HETATM    4  C   UNL     1     -10.628   9.860  70.262  1.00  0.00    -0.359 A  
HETATM    5  C   UNL     1     -11.755  10.691  70.225  1.00  0.00    -0.433 A  
HETATM    6  C   UNL     1     -12.802  10.445  71.123  1.00  0.00    -0.511 A  
HETATM    7  H   UNL     1     -12.151   7.501  73.674  1.00  0.00     0.000 HD 
HETATM    8  O   UNL     1     -11.436   7.652  73.067  1.00  0.00    -0.342 OA 
HETATM    9  C   UNL     1     -12.702   9.419  72.068  1.00  0.00    -0.483 A  
HETATM   10  C   UNL     1     -11.548   8.636  72.122  1.00  0.00    -0.370 A  
BRANCH   5  11
HETATM   11  C   UNL     1     -11.873  11.785  69.250  1.00  0.00    -0.389 C  
HETATM   12  C   UNL     1     -10.839  12.557  68.875  1.00  0.00    -0.238 C  
BRANCH  12  13
HETATM   13  C   UNL     1     -11.030  13.666  67.897  1.00  0.00    -0.259 C  
HETATM   14  O   UNL     1     -10.363  13.727  66.864  1.00  0.00    -0.262 OA 
BRANCH  13  15
HETATM   15  C   UNL     1     -12.080  14.697  68.204  1.00  0.00    -0.199 C  
BRANCH  15  16
HETATM   16  C   UNL     1     -11.696  15.608  69.336  1.00  0.00    -0.383 C  
HETATM   17  O   UNL     1     -12.326  15.607  70.393  1.00  0.00    -0.400 OA 
BRANCH  16  18
HETATM   18  C   UNL     1     -10.491  16.468  69.145  1.00  0.00    -0.317 C  
HETATM   19  C   UNL     1     -10.509  17.439  68.218  1.00  0.00    -0.385 C  
BRANCH  19  20
HETATM   20  C   UNL     1      -9.418  18.392  67.957  1.00  0.00    -0.305 A  
HETATM   21  C   UNL     1      -8.236  18.416  68.718  1.00  0.00    -0.257 A  
HETATM   22  C   UNL     1      -7.266  19.400  68.499  1.00  0.00    -0.321 A  
HETATM   23  C   UNL     1      -9.611  19.373  66.971  1.00  0.00    -0.412 A  
HETATM   24  C   UNL     1      -7.490  20.359  67.508  1.00  0.00    -0.319 A  
HETATM   25  H   UNL     1      -6.722  21.998  66.607  1.00  0.00     0.000 HD 
HETATM   26  O   UNL     1      -6.569  21.346  67.281  1.00  0.00    -0.522 OA 
HETATM   27  C   UNL     1      -8.646  20.353  66.740  1.00  0.00    -0.281 A  
BRANCH  22  28
HETATM   28  O   UNL     1      -6.090  19.538  69.187  1.00  0.00    -0.248 OA 
HETATM   29  C   UNL     1      -6.178  20.023  70.521  1.00  0.00    -0.309 C  
ENDBRANCH  22  28
ENDBRANCH  19  20
ENDBRANCH  16  18
ENDBRANCH  15  16
ENDBRANCH  13  15
ENDBRANCH  12  13
ENDBRANCH   5  11
ENDBRANCH   2   3
TORSDOF 8
ENDMDL
MODEL       77
REMARK 921   NORMALIZED FREE ENERGY PREDICTED BY IDOCK:   -5.50 KCAL/MOL
REMARK 922        TOTAL FREE ENERGY PREDICTED BY IDOCK:   -9.62 KCAL/MOL
REMARK 923 INTER-LIGAND FREE ENERGY PREDICTED BY IDOCK:   -8.48 KCAL/MOL
REMARK 924 INTRA-LIGAND FREE ENERGY PREDICTED BY IDOCK:   -1.14 KCAL/MOL
REMARK 927      BINDING AFFINITY PREDICTED BY RF-SCORE:    0.00 PKD
ROOT
HETATM    1  C   UNL     1      -9.911  10.749  63.930  1.00  0.00    -0.343 C  
HETATM    2  O   UNL     1     -11.151  11.399  63.664  1.00  0.00    -0.399 OA 
ENDROOT
BRANCH   2   3
HETATM    3  C   UNL     1     -11.578  12.259  64.644  1.00  0.00    -0.344 A  
HETATM    4  C   UNL     1     -11.405  12.011  66.009  1.00  0.00    -0.398 A  
HETATM    5  C   UNL     1     -11.894  12.898  66.978  1.00  0.00    -0.437 A  
HETATM    6  C   UNL     1     -12.485  14.095  66.556  1.00  0.00    -0.306 A  
HETATM    7  H   UNL     1     -12.756  14.529  62.639  1.00  0.00     0.000 HD 
HETATM    8  O   UNL     1     -12.347  13.716  62.911  1.00  0.00    -0.549 OA 
HETATM    9  C   UNL     1     -12.627  14.377  65.193  1.00  0.00    -0.323 A  
HETATM   10  C   UNL     1     -12.181  13.456  64.245  1.00  0.00    -0.392 A  
BRANCH   5  11
HETATM   11  C   UNL     1     -11.768  12.614  68.415  1.00  0.00    -0.377 C  
HETATM   12  C   UNL     1     -12.512  13.218  69.357  1.00  0.00     0.081 C  
BRANCH  12  13
HETATM   13  C   UNL     1     -12.320  12.901  70.801  1.00  0.00    -0.299 C  
HETATM   14  O   UNL     1     -12.304  11.738  71.203  1.00  0.00    -0.324 OA 
BRANCH  13  15
HETATM   15  C   UNL     1     -12.122  14.052  71.749  1.00  0.00    -0.040 C  
BRANCH  15  16
HETATM   16  C   UNL     1     -12.529  15.373  71.160  1.00  0.00    -0.402 C  
HETATM   17  O   UNL     1     -13.716  15.688  71.069  1.00  0.00    -0.582 OA 
BRANCH  16  18
HETATM   18  C   UNL     1     -11.439  16.305  70.745  1.00  0.00    -0.327 C  
HETATM   19  C   UNL     1     -10.951  16.240  69.497  1.00  0.00    -0.339 C  
BRANCH  19  20
HETATM   20  C   UNL     1      -9.916  17.125  68.937  1.00  0.00    -0.304 A  
HETATM   21  C   UNL     1      -8.577  16.724  68.788  1.00  0.00    -0.255 A  
HETATM   22  C   UNL     1      -7.607  17.628  68.343  1.00  0.00    -0.260 A  
HETATM   23  C   UNL     1     -10.267  18.450  68.629  1.00  0.00    -0.370 A  
HETATM   24  C   UNL     1      -7.992  18.938  68.044  1.00  0.00    -0.286 A  
HETATM   25  H   UNL     1      -7.326  20.742  67.419  1.00  0.00     0.000 HD 
HETATM   26  O   UNL     1      -7.064  19.851  67.622  1.00  0.00    -0.245 OA 
HETATM   27  C   UNL     1      -9.308  19.356  68.177  1.00  0.00    -0.406 A  
BRANCH  22  28
HETATM   28  O   UNL     1      -6.273  17.362  68.179  1.00  0.00    -0.150 OA 
HETATM   29  C   UNL     1      -5.911  16.563  67.059  1.00  0.00    -0.105 C  
ENDBRANCH  22  28
ENDBRANCH  19  20
ENDBRANCH  16  18
ENDBRANCH  15  16
ENDBRANCH  13  15
ENDBRANCH  12  13
ENDBRANCH   5  11
ENDBRANCH   2   3
TORSDOF 8
ENDMDL
MODEL       78
REMARK 921   NORMALIZED FREE ENERGY PREDICTED BY IDOCK:   -5.44 KCAL/MOL
REMARK 922        TOTAL FREE ENERGY PREDICTED BY IDOCK:   -9.53 KCAL/MOL
REMARK 923 INTER-LIGAND FREE ENERGY PREDICTED BY IDOCK:   -7.97 KCAL/MOL
REMARK 924 INTRA-LIGAND FREE ENERGY PREDICTED BY IDOCK:   -1.56 KCAL/MOL
REMARK 927      BINDING AFFINITY PREDICTED BY RF-SCORE:    0.00 PKD
ROOT
HETATM    1  C   UNL     1      -8.198   5.302  64.381  1.00  0.00    -0.135 C  
HETATM    2  O   UNL     1      -7.572   6.582  64.359  1.00  0.00    -0.084 OA 
ENDROOT
BRANCH   2   3
HETATM    3  C   UNL     1      -8.331   7.609  64.861  1.00  0.00    -0.046 A  
HETATM    4  C   UNL     1      -8.953   7.560  66.112  1.00  0.00    -0.188 A  
HETATM    5  C   UNL     1      -9.755   8.616  66.568  1.00  0.00    -0.325 A  
HETATM    6  C   UNL     1      -9.852   9.773  65.785  1.00  0.00    -0.360 A  
HETATM    7  H   UNL     1      -7.917   9.624  62.345  1.00  0.00     0.000 HD 
HETATM    8  O   UNL     1      -7.837   8.835  62.869  1.00  0.00    -0.122 OA 
HETATM    9  C   UNL     1      -9.200   9.853  64.550  1.00  0.00    -0.315 A  
HETATM   10  C   UNL     1      -8.450   8.770  64.091  1.00  0.00    -0.108 A  
BRANCH   5  11
HETATM   11  C   UNL     1     -10.460   8.545  67.856  1.00  0.00    -0.262 C  
HETATM   12  C   UNL     1      -9.847   8.680  69.044  1.00  0.00    -0.184 C  
BRANCH  12  13
HETATM   13  C   UNL     1     -10.617   8.575  70.317  1.00  0.00    -0.226 C  
HETATM   14  O   UNL     1     -11.078   7.498  70.697  1.00  0.00    -0.256 OA 
BRANCH  13  15
HETATM   15  C   UNL     1     -10.792   9.825  71.133  1.00  0.00    -0.333 C  
BRANCH  15  16
HETATM   16  C   UNL     1     -12.037  10.588  70.778  1.00  0.00    -0.370 C  
HETATM   17  O   UNL     1     -13.134  10.256  71.227  1.00  0.00    -0.370 OA 
BRANCH  16  18
HETATM   18  C   UNL     1     -11.881  11.790  69.907  1.00  0.00    -0.423 C  
HETATM   19  C   UNL     1     -11.690  11.634  68.588  1.00  0.00    -0.386 C  
BRANCH  19  20
HETATM   20  C   UNL     1     -11.572  12.724  67.606  1.00  0.00    -0.412 A  
HETATM   21  C   UNL     1     -12.113  12.638  66.311  1.00  0.00    -0.358 A  
HETATM   22  C   UNL     1     -11.893  13.657  65.378  1.00  0.00    -0.353 A  
HETATM   23  C   UNL     1     -10.807  13.851  67.950  1.00  0.00    -0.256 A  
HETATM   24  C   UNL     1     -11.130  14.765  65.755  1.00  0.00    -0.338 A  
HETATM   25  H   UNL     1     -10.363  16.523  65.115  1.00  0.00     0.000 HD 
HETATM   26  O   UNL     1     -10.882  15.770  64.859  1.00  0.00    -0.436 OA 
HETATM   27  C   UNL     1     -10.590  14.875  67.028  1.00  0.00    -0.289 A  
BRANCH  22  28
HETATM   28  O   UNL     1     -12.349  13.676  64.086  1.00  0.00    -0.592 OA 
HETATM   29  C   UNL     1     -12.432  12.425  63.415  1.00  0.00    -0.446 C  
ENDBRANCH  22  28
ENDBRANCH  19  20
ENDBRANCH  16  18
ENDBRANCH  15  16
ENDBRANCH  13  15
ENDBRANCH  12  13
ENDBRANCH   5  11
ENDBRANCH   2   3
TORSDOF 8
ENDMDL
MODEL       79
REMARK 921   NORMALIZED FREE ENERGY PREDICTED BY IDOCK:   -5.42 KCAL/MOL
REMARK 922        TOTAL FREE ENERGY PREDICTED BY IDOCK:   -9.50 KCAL/MOL
REMARK 923 INTER-LIGAND FREE ENERGY PREDICTED BY IDOCK:   -7.90 KCAL/MOL
REMARK 924 INTRA-LIGAND FREE ENERGY PREDICTED BY IDOCK:   -1.60 KCAL/MOL
REMARK 927      BINDING AFFINITY PREDICTED BY RF-SCORE:    0.00 PKD
ROOT
HETATM    1  C   UNL     1     -13.393   9.617  71.883  1.00  0.00    -0.438 C  
HETATM    2  O   UNL     1     -13.408  10.972  72.327  1.00  0.00    -0.390 OA 
ENDROOT
BRANCH   2   3
HETATM    3  C   UNL     1     -12.908  11.882  71.429  1.00  0.00    -0.307 A  
HETATM    4  C   UNL     1     -12.199  11.515  70.281  1.00  0.00    -0.415 A  
HETATM    5  C   UNL     1     -11.669  12.480  69.414  1.00  0.00    -0.383 A  
HETATM    6  C   UNL     1     -11.940  13.831  69.665  1.00  0.00    -0.399 A  
HETATM    7  H   UNL     1     -14.030  14.530  72.943  1.00  0.00     0.000 HD 
HETATM    8  O   UNL     1     -13.860  13.609  72.781  1.00  0.00    -0.727 OA 
HETATM    9  C   UNL     1     -12.685  14.211  70.787  1.00  0.00    -0.414 A  
HETATM   10  C   UNL     1     -13.158  13.237  71.667  1.00  0.00    -0.363 A  
BRANCH   5  11
HETATM   11  C   UNL     1     -10.872  12.102  68.238  1.00  0.00    -0.256 C  
HETATM   12  C   UNL     1      -9.528  12.096  68.226  1.00  0.00    -0.204 C  
BRANCH  12  13
HETATM   13  C   UNL     1      -8.777  11.724  66.993  1.00  0.00    -0.181 C  
HETATM   14  O   UNL     1      -7.567  11.932  66.895  1.00  0.00    -0.148 OA 
BRANCH  13  15
HETATM   15  C   UNL     1      -9.543  11.066  65.880  1.00  0.00    -0.255 C  
BRANCH  15  16
HETATM   16  C   UNL     1      -9.424   9.568  65.891  1.00  0.00    -0.244 C  
HETATM   17  O   UNL     1      -8.732   8.980  65.060  1.00  0.00    -0.180 OA 
BRANCH  16  18
HETATM   18  C   UNL     1     -10.133   8.832  66.979  1.00  0.00    -0.335 C  
HETATM   19  C   UNL     1      -9.454   8.451  68.073  1.00  0.00    -0.157 C  
BRANCH  19  20
HETATM   20  C   UNL     1     -10.032   7.766  69.242  1.00  0.00    -0.182 A  
HETATM   21  C   UNL     1      -9.764   8.169  70.563  1.00  0.00    -0.181 A  
HETATM   22  C   UNL     1     -10.255   7.431  71.646  1.00  0.00    -0.188 A  
HETATM   23  C   UNL     1     -10.801   6.612  69.026  1.00  0.00    -0.324 A  
HETATM   24  C   UNL     1     -11.019   6.289  71.394  1.00  0.00    -0.275 A  
HETATM   25  H   UNL     1     -12.018   4.760  72.260  1.00  0.00     0.000 HD 
HETATM   26  O   UNL     1     -11.498   5.536  72.432  1.00  0.00    -0.267 OA 
HETATM   27  C   UNL     1     -11.301   5.876  70.100  1.00  0.00    -0.231 A  
BRANCH  22  28
HETATM   28  O   UNL     1     -10.045   7.711  72.970  1.00  0.00    -0.248 OA 
HETATM   29  C   UNL     1      -8.798   8.305  73.312  1.00  0.00    -0.213 C  
ENDBRANCH  22  28
ENDBRANCH  19  20
ENDBRANCH  16  18
ENDBRANCH  15  16
ENDBRANCH  13  15
ENDBRANCH  12  13
ENDBRANCH   5  11
ENDBRANCH   2   3
TORSDOF 8
ENDMDL
MODEL       80
REMARK 921   NORMALIZED FREE ENERGY PREDICTED BY IDOCK:   -5.41 KCAL/MOL
REMARK 922        TOTAL FREE ENERGY PREDICTED BY IDOCK:   -9.48 KCAL/MOL
REMARK 923 INTER-LIGAND FREE ENERGY PREDICTED BY IDOCK:   -7.69 KCAL/MOL
REMARK 924 INTRA-LIGAND FREE ENERGY PREDICTED BY IDOCK:   -1.79 KCAL/MOL
REMARK 927      BINDING AFFINITY PREDICTED BY RF-SCORE:    0.00 PKD
ROOT
HETATM    1  C   UNL     1      -6.124   7.540  68.492  1.00  0.00    -0.028 C  
HETATM    2  O   UNL     1      -6.962   6.389  68.546  1.00  0.00    -0.074 OA 
ENDROOT
BRANCH   2   3
HETATM    3  C   UNL     1      -8.225   6.565  68.038  1.00  0.00    -0.116 A  
HETATM    4  C   UNL     1      -8.679   7.782  67.519  1.00  0.00    -0.125 A  
HETATM    5  C   UNL     1      -9.991   7.928  67.049  1.00  0.00    -0.322 A  
HETATM    6  C   UNL     1     -10.824   6.803  67.019  1.00  0.00    -0.453 A  
HETATM    7  H   UNL     1      -9.220   3.503  68.482  1.00  0.00     0.000 HD 
HETATM    8  O   UNL     1      -8.641   4.257  68.502  1.00  0.00    -0.090 OA 
HETATM    9  C   UNL     1     -10.369   5.568  67.494  1.00  0.00    -0.268 A  
HETATM   10  C   UNL     1      -9.077   5.457  68.008  1.00  0.00    -0.109 A  
BRANCH   5  11
HETATM   11  C   UNL     1     -10.492   9.221  66.559  1.00  0.00    -0.204 C  
HETATM   12  C   UNL     1      -9.816   9.998  65.696  1.00  0.00    -0.363 C  
BRANCH  12  13
HETATM   13  C   UNL     1     -10.370  11.310  65.255  1.00  0.00    -0.280 C  
HETATM   14  O   UNL     1     -11.203  11.380  64.350  1.00  0.00    -0.304 OA 
BRANCH  13  15
HETATM   15  C   UNL     1      -9.895  12.545  65.968  1.00  0.00    -0.266 C  
BRANCH  15  16
HETATM   16  C   UNL     1     -10.971  13.201  66.787  1.00  0.00    -0.279 C  
HETATM   17  O   UNL     1     -11.304  14.367  66.579  1.00  0.00    -0.331 OA 
BRANCH  16  18
HETATM   18  C   UNL     1     -11.652  12.366  67.820  1.00  0.00    -0.413 C  
HETATM   19  C   UNL     1     -10.946  11.881  68.853  1.00  0.00    -0.285 C  
BRANCH  19  20
HETATM   20  C   UNL     1     -11.494  11.089  69.967  1.00  0.00    -0.398 A  
HETATM   21  C   UNL     1     -11.112   9.758  70.209  1.00  0.00    -0.349 A  
HETATM   22  C   UNL     1     -11.729   9.011  71.218  1.00  0.00    -0.313 A  
HETATM   23  C   UNL     1     -12.507  11.660  70.755  1.00  0.00    -0.425 A  
HETATM   24  C   UNL     1     -12.731   9.611  71.985  1.00  0.00    -0.385 A  
HETATM   25  H   UNL     1     -14.048   9.310  73.489  1.00  0.00     0.000 HD 
HETATM   26  O   UNL     1     -13.366   8.902  72.968  1.00  0.00    -0.308 OA 
HETATM   27  C   UNL     1     -13.122  10.925  71.768  1.00  0.00    -0.564 A  
BRANCH  22  28
HETATM   28  O   UNL     1     -11.457   7.706  71.534  1.00  0.00    -0.254 OA 
HETATM   29  C   UNL     1     -11.856   6.720  70.590  1.00  0.00    -0.387 C  
ENDBRANCH  22  28
ENDBRANCH  19  20
ENDBRANCH  16  18
ENDBRANCH  15  16
ENDBRANCH  13  15
ENDBRANCH  12  13
ENDBRANCH   5  11
ENDBRANCH   2   3
TORSDOF 8
ENDMDL
MODEL       81
REMARK 921   NORMALIZED FREE ENERGY PREDICTED BY IDOCK:   -5.39 KCAL/MOL
REMARK 922        TOTAL FREE ENERGY PREDICTED BY IDOCK:   -9.46 KCAL/MOL
REMARK 923 INTER-LIGAND FREE ENERGY PREDICTED BY IDOCK:   -7.96 KCAL/MOL
REMARK 924 INTRA-LIGAND FREE ENERGY PREDICTED BY IDOCK:   -1.49 KCAL/MOL
REMARK 927      BINDING AFFINITY PREDICTED BY RF-SCORE:    0.00 PKD
ROOT
HETATM    1  C   UNL     1      -8.434   3.643  71.597  1.00  0.00    -0.084 C  
HETATM    2  O   UNL     1      -8.868   4.806  72.298  1.00  0.00    -0.121 OA 
ENDROOT
BRANCH   2   3
HETATM    3  C   UNL     1      -9.851   5.529  71.670  1.00  0.00    -0.173 A  
HETATM    4  C   UNL     1      -9.733   6.006  70.361  1.00  0.00    -0.206 A  
HETATM    5  C   UNL     1     -10.745   6.776  69.773  1.00  0.00    -0.288 A  
HETATM    6  C   UNL     1     -11.930   6.989  70.488  1.00  0.00    -0.315 A  
HETATM    7  H   UNL     1     -11.979   5.448  74.125  1.00  0.00     0.000 HD 
HETATM    8  O   UNL     1     -11.172   5.291  73.649  1.00  0.00    -0.269 OA 
HETATM    9  C   UNL     1     -12.080   6.481  71.783  1.00  0.00    -0.393 A  
HETATM   10  C   UNL     1     -11.039   5.761  72.370  1.00  0.00    -0.281 A  
BRANCH   5  11
HETATM   11  C   UNL     1     -10.602   7.331  68.419  1.00  0.00    -0.209 C  
HETATM   12  C   UNL     1      -9.413   7.552  67.832  1.00  0.00    -0.153 C  
BRANCH  12  13
HETATM   13  C   UNL     1      -9.335   8.139  66.464  1.00  0.00    -0.206 C  
HETATM   14  O   UNL     1      -8.634   7.629  65.589  1.00  0.00    -0.148 OA 
BRANCH  13  15
HETATM   15  C   UNL     1     -10.159   9.364  66.180  1.00  0.00    -0.324 C  
BRANCH  15  16
HETATM   16  C   UNL     1      -9.578  10.614  66.778  1.00  0.00    -0.169 C  
HETATM   17  O   UNL     1      -8.426  10.963  66.522  1.00  0.00    -0.147 OA 
BRANCH  16  18
HETATM   18  C   UNL     1     -10.469  11.438  67.647  1.00  0.00    -0.225 C  
HETATM   19  C   UNL     1     -10.897  10.942  68.818  1.00  0.00    -0.251 C  
BRANCH  19  20
HETATM   20  C   UNL     1     -11.734  11.658  69.795  1.00  0.00    -0.425 A  
HETATM   21  C   UNL     1     -11.873  13.058  69.791  1.00  0.00    -0.381 A  
HETATM   22  C   UNL     1     -12.599  13.706  70.796  1.00  0.00    -0.325 A  
HETATM   23  C   UNL     1     -12.339  10.919  70.824  1.00  0.00    -0.487 A  
HETATM   24  C   UNL     1     -13.189  12.938  71.803  1.00  0.00    -0.384 A  
HETATM   25  H   UNL     1     -14.293  13.021  73.495  1.00  0.00     0.000 HD 
HETATM   26  O   UNL     1     -13.891  13.543  72.811  1.00  0.00    -0.730 OA 
HETATM   27  C   UNL     1     -13.072  11.556  71.826  1.00  0.00    -0.503 A  
BRANCH  22  28
HETATM   28  O   UNL     1     -12.786  15.058  70.909  1.00  0.00    -0.324 OA 
HETATM   29  C   UNL     1     -11.671  15.826  71.343  1.00  0.00    -0.445 C  
ENDBRANCH  22  28
ENDBRANCH  19  20
ENDBRANCH  16  18
ENDBRANCH  15  16
ENDBRANCH  13  15
ENDBRANCH  12  13
ENDBRANCH   5  11
ENDBRANCH   2   3
TORSDOF 8
ENDMDL
MODEL       82
REMARK 921   NORMALIZED FREE ENERGY PREDICTED BY IDOCK:   -5.39 KCAL/MOL
REMARK 922        TOTAL FREE ENERGY PREDICTED BY IDOCK:   -9.46 KCAL/MOL
REMARK 923 INTER-LIGAND FREE ENERGY PREDICTED BY IDOCK:   -7.60 KCAL/MOL
REMARK 924 INTRA-LIGAND FREE ENERGY PREDICTED BY IDOCK:   -1.85 KCAL/MOL
REMARK 927      BINDING AFFINITY PREDICTED BY RF-SCORE:    0.00 PKD
ROOT
HETATM    1  C   UNL     1      -9.781   9.608  65.082  1.00  0.00    -0.217 C  
HETATM    2  O   UNL     1      -9.051   9.438  66.294  1.00  0.00    -0.147 OA 
ENDROOT
BRANCH   2   3
HETATM    3  C   UNL     1      -8.659  10.603  66.905  1.00  0.00    -0.126 A  
HETATM    4  C   UNL     1      -9.072  11.869  66.476  1.00  0.00    -0.211 A  
HETATM    5  C   UNL     1      -8.613  13.035  67.103  1.00  0.00    -0.195 A  
HETATM    6  C   UNL     1      -7.798  12.913  68.236  1.00  0.00    -0.142 A  
HETATM    7  H   UNL     1      -6.875   9.205  69.233  1.00  0.00     0.000 HD 
HETATM    8  O   UNL     1      -7.433   9.272  68.468  1.00  0.00    -0.079 OA 
HETATM    9  C   UNL     1      -7.412  11.652  68.702  1.00  0.00    -0.117 A  
HETATM   10  C   UNL     1      -7.836  10.505  68.031  1.00  0.00    -0.105 A  
BRANCH   5  11
HETATM   11  C   UNL     1      -8.996  14.370  66.620  1.00  0.00    -0.232 C  
HETATM   12  C   UNL     1      -8.205  15.450  66.726  1.00  0.00    -0.252 C  
BRANCH  12  13
HETATM   13  C   UNL     1      -8.661  16.782  66.236  1.00  0.00    -0.307 C  
HETATM   14  O   UNL     1      -7.860  17.617  65.816  1.00  0.00    -0.548 OA 
BRANCH  13  15
HETATM   15  C   UNL     1     -10.138  17.063  66.250  1.00  0.00    -0.330 C  
BRANCH  15  16
HETATM   16  C   UNL     1     -10.581  17.814  67.474  1.00  0.00    -0.359 C  
HETATM   17  O   UNL     1     -10.591  19.045  67.495  1.00  0.00    -0.428 OA 
BRANCH  16  18
HETATM   18  C   UNL     1     -11.056  17.009  68.638  1.00  0.00    -0.128 C  
HETATM   19  C   UNL     1     -11.484  15.752  68.445  1.00  0.00    -0.367 C  
BRANCH  19  20
HETATM   20  C   UNL     1     -11.931  14.829  69.501  1.00  0.00    -0.351 A  
HETATM   21  C   UNL     1     -11.699  13.443  69.443  1.00  0.00    -0.382 A  
HETATM   22  C   UNL     1     -12.225  12.590  70.419  1.00  0.00    -0.286 A  
HETATM   23  C   UNL     1     -12.699  15.345  70.557  1.00  0.00    -0.455 A  
HETATM   24  C   UNL     1     -12.983  13.139  71.457  1.00  0.00    -0.321 A  
HETATM   25  H   UNL     1     -14.041  12.702  73.123  1.00  0.00     0.000 HD 
HETATM   26  O   UNL     1     -13.526  12.329  72.418  1.00  0.00    -0.467 OA 
HETATM   27  C   UNL     1     -13.220  14.503  71.539  1.00  0.00    -0.431 A  
BRANCH  22  28
HETATM   28  O   UNL     1     -12.085  11.228  70.457  1.00  0.00    -0.341 OA 
HETATM   29  C   UNL     1     -10.977  10.676  69.758  1.00  0.00    -0.280 C  
ENDBRANCH  22  28
ENDBRANCH  19  20
ENDBRANCH  16  18
ENDBRANCH  15  16
ENDBRANCH  13  15
ENDBRANCH  12  13
ENDBRANCH   5  11
ENDBRANCH   2   3
TORSDOF 8
ENDMDL
MODEL       83
REMARK 921   NORMALIZED FREE ENERGY PREDICTED BY IDOCK:   -5.37 KCAL/MOL
REMARK 922        TOTAL FREE ENERGY PREDICTED BY IDOCK:   -9.42 KCAL/MOL
REMARK 923 INTER-LIGAND FREE ENERGY PREDICTED BY IDOCK:   -8.21 KCAL/MOL
REMARK 924 INTRA-LIGAND FREE ENERGY PREDICTED BY IDOCK:   -1.21 KCAL/MOL
REMARK 927      BINDING AFFINITY PREDICTED BY RF-SCORE:    0.00 PKD
ROOT
HETATM    1  C   UNL     1      -8.251   7.130  71.335  1.00  0.00    -0.107 C  
HETATM    2  O   UNL     1      -9.655   7.119  71.095  1.00  0.00    -0.165 OA 
ENDROOT
BRANCH   2   3
HETATM    3  C   UNL     1     -10.017   7.042  69.773  1.00  0.00    -0.173 A  
HETATM    4  C   UNL     1     -10.074   8.154  68.928  1.00  0.00    -0.211 A  
HETATM    5  C   UNL     1     -10.489   8.036  67.595  1.00  0.00    -0.301 A  
HETATM    6  C   UNL     1     -10.763   6.760  67.087  1.00  0.00    -0.441 A  
HETATM    7  H   UNL     1     -10.438   3.820  69.705  1.00  0.00     0.000 HD 
HETATM    8  O   UNL     1     -10.243   4.679  70.062  1.00  0.00    -0.234 OA 
HETATM    9  C   UNL     1     -10.669   5.632  67.910  1.00  0.00    -0.241 A  
HETATM   10  C   UNL     1     -10.305   5.778  69.248  1.00  0.00    -0.257 A  
BRANCH   5  11
HETATM   11  C   UNL     1     -10.608   9.211  66.719  1.00  0.00    -0.207 C  
HETATM   12  C   UNL     1      -9.735   9.493  65.737  1.00  0.00    -0.357 C  
BRANCH  12  13
HETATM   13  C   UNL     1      -9.900  10.714  64.898  1.00  0.00    -0.302 C  
HETATM   14  O   UNL     1     -10.115  10.633  63.688  1.00  0.00    -0.326 OA 
BRANCH  13  15
HETATM   15  C   UNL     1      -9.817  12.050  65.583  1.00  0.00    -0.265 C  
BRANCH  15  16
HETATM   16  C   UNL     1      -8.933  12.033  66.798  1.00  0.00    -0.198 C  
HETATM   17  O   UNL     1      -7.713  11.906  66.693  1.00  0.00    -0.099 OA 
BRANCH  16  18
HETATM   18  C   UNL     1      -9.587  12.229  68.125  1.00  0.00    -0.213 C  
HETATM   19  C   UNL     1     -10.887  12.558  68.182  1.00  0.00    -0.248 C  
BRANCH  19  20
HETATM   20  C   UNL     1     -11.671  12.732  69.416  1.00  0.00    -0.380 A  
HETATM   21  C   UNL     1     -12.050  11.650  70.231  1.00  0.00    -0.443 A  
HETATM   22  C   UNL     1     -12.877  11.849  71.342  1.00  0.00    -0.307 A  
HETATM   23  C   UNL     1     -12.136  14.018  69.735  1.00  0.00    -0.405 A  
HETATM   24  C   UNL     1     -13.319  13.143  71.630  1.00  0.00    -0.308 A  
HETATM   25  H   UNL     1     -14.444  14.248  72.896  1.00  0.00     0.000 HD 
HETATM   26  O   UNL     1     -14.144  13.368  72.699  1.00  0.00    -0.767 OA 
HETATM   27  C   UNL     1     -12.954  14.227  70.845  1.00  0.00    -0.395 A  
BRANCH  22  28
HETATM   28  O   UNL     1     -13.327  10.876  72.194  1.00  0.00    -0.443 OA 
HETATM   29  C   UNL     1     -12.880   9.549  71.947  1.00  0.00    -0.420 C  
ENDBRANCH  22  28
ENDBRANCH  19  20
ENDBRANCH  16  18
ENDBRANCH  15  16
ENDBRANCH  13  15
ENDBRANCH  12  13
ENDBRANCH   5  11
ENDBRANCH   2   3
TORSDOF 8
ENDMDL
MODEL       84
REMARK 921   NORMALIZED FREE ENERGY PREDICTED BY IDOCK:   -5.36 KCAL/MOL
REMARK 922        TOTAL FREE ENERGY PREDICTED BY IDOCK:   -9.41 KCAL/MOL
REMARK 923 INTER-LIGAND FREE ENERGY PREDICTED BY IDOCK:   -8.05 KCAL/MOL
REMARK 924 INTRA-LIGAND FREE ENERGY PREDICTED BY IDOCK:   -1.36 KCAL/MOL
REMARK 927      BINDING AFFINITY PREDICTED BY RF-SCORE:    0.00 PKD
ROOT
HETATM    1  C   UNL     1      -7.224   6.911  64.738  1.00  0.00    -0.075 C  
HETATM    2  O   UNL     1      -7.045   8.003  65.637  1.00  0.00    -0.061 OA 
ENDROOT
BRANCH   2   3
HETATM    3  C   UNL     1      -8.196   8.468  66.222  1.00  0.00    -0.109 A  
HETATM    4  C   UNL     1      -8.800   7.851  67.321  1.00  0.00    -0.131 A  
HETATM    5  C   UNL     1      -9.998   8.336  67.861  1.00  0.00    -0.227 A  
HETATM    6  C   UNL     1     -10.543   9.515  67.337  1.00  0.00    -0.337 A  
HETATM    7  H   UNL     1      -8.560  11.055  64.288  1.00  0.00     0.000 HD 
HETATM    8  O   UNL     1      -8.176  10.259  64.637  1.00  0.00    -0.160 OA 
HETATM    9  C   UNL     1      -9.927  10.168  66.264  1.00  0.00    -0.304 A  
HETATM   10  C   UNL     1      -8.763   9.639  65.707  1.00  0.00    -0.147 A  
BRANCH   5  11
HETATM   11  C   UNL     1     -10.670   7.656  68.979  1.00  0.00    -0.134 C  
HETATM   12  C   UNL     1     -10.556   8.048  70.259  1.00  0.00    -0.231 C  
BRANCH  12  13
HETATM   13  C   UNL     1     -11.244   7.301  71.350  1.00  0.00    -0.248 C  
HETATM   14  O   UNL     1     -11.315   6.072  71.337  1.00  0.00    -0.285 OA 
BRANCH  13  15
HETATM   15  C   UNL     1     -11.831   8.099  72.481  1.00  0.00    -0.438 C  
BRANCH  15  16
HETATM   16  C   UNL     1     -12.943   9.009  72.042  1.00  0.00    -0.407 C  
HETATM   17  O   UNL     1     -14.093   8.590  71.914  1.00  0.00    -0.404 OA 
BRANCH  16  18
HETATM   18  C   UNL     1     -12.606  10.447  71.822  1.00  0.00    -0.468 C  
HETATM   19  C   UNL     1     -12.471  10.913  70.571  1.00  0.00    -0.438 C  
BRANCH  19  20
HETATM   20  C   UNL     1     -12.193  12.311  70.204  1.00  0.00    -0.302 A  
HETATM   21  C   UNL     1     -12.542  13.394  71.031  1.00  0.00    -0.425 A  
HETATM   22  C   UNL     1     -12.347  14.711  70.602  1.00  0.00    -0.331 A  
HETATM   23  C   UNL     1     -11.644  12.572  68.938  1.00  0.00    -0.364 A  
HETATM   24  C   UNL     1     -11.797  14.934  69.337  1.00  0.00    -0.324 A  
HETATM   25  H   UNL     1     -11.236  16.362  68.021  1.00  0.00     0.000 HD 
HETATM   26  O   UNL     1     -11.610  16.211  68.880  1.00  0.00    -0.357 OA 
HETATM   27  C   UNL     1     -11.439  13.882  68.505  1.00  0.00    -0.346 A  
BRANCH  22  28
HETATM   28  O   UNL     1     -12.665  15.842  71.306  1.00  0.00    -0.455 OA 
HETATM   29  C   UNL     1     -12.095  15.972  72.603  1.00  0.00    -0.538 C  
ENDBRANCH  22  28
ENDBRANCH  19  20
ENDBRANCH  16  18
ENDBRANCH  15  16
ENDBRANCH  13  15
ENDBRANCH  12  13
ENDBRANCH   5  11
ENDBRANCH   2   3
TORSDOF 8
ENDMDL
MODEL       85
REMARK 921   NORMALIZED FREE ENERGY PREDICTED BY IDOCK:   -5.35 KCAL/MOL
REMARK 922        TOTAL FREE ENERGY PREDICTED BY IDOCK:   -9.40 KCAL/MOL
REMARK 923 INTER-LIGAND FREE ENERGY PREDICTED BY IDOCK:   -8.37 KCAL/MOL
REMARK 924 INTRA-LIGAND FREE ENERGY PREDICTED BY IDOCK:   -1.03 KCAL/MOL
REMARK 927      BINDING AFFINITY PREDICTED BY RF-SCORE:    0.00 PKD
ROOT
HETATM    1  C   UNL     1     -10.515  11.261  63.921  1.00  0.00    -0.391 C  
HETATM    2  O   UNL     1      -9.346  11.034  64.704  1.00  0.00    -0.212 OA 
ENDROOT
BRANCH   2   3
HETATM    3  C   UNL     1      -9.219   9.761  65.202  1.00  0.00    -0.240 A  
HETATM    4  C   UNL     1      -9.963   9.286  66.286  1.00  0.00    -0.357 A  
HETATM    5  C   UNL     1      -9.771   7.992  66.789  1.00  0.00    -0.305 A  
HETATM    6  C   UNL     1      -8.879   7.139  66.128  1.00  0.00    -0.171 A  
HETATM    7  H   UNL     1      -6.992   8.758  63.059  1.00  0.00     0.000 HD 
HETATM    8  O   UNL     1      -7.599   9.346  63.494  1.00  0.00    -0.109 OA 
HETATM    9  C   UNL     1      -8.159   7.587  65.015  1.00  0.00    -0.127 A  
HETATM   10  C   UNL     1      -8.326   8.896  64.563  1.00  0.00    -0.170 A  
BRANCH   5  11
HETATM   11  C   UNL     1     -10.507   7.507  67.966  1.00  0.00    -0.253 C  
HETATM   12  C   UNL     1     -10.036   6.560  68.795  1.00  0.00    -0.178 C  
BRANCH  12  13
HETATM   13  C   UNL     1     -10.843   6.095  69.960  1.00  0.00    -0.341 C  
HETATM   14  O   UNL     1     -10.556   5.060  70.563  1.00  0.00    -0.209 OA 
BRANCH  13  15
HETATM   15  C   UNL     1     -12.006   6.945  70.388  1.00  0.00    -0.312 C  
BRANCH  15  16
HETATM   16  C   UNL     1     -11.676   7.856  71.537  1.00  0.00    -0.283 C  
HETATM   17  O   UNL     1     -11.389   7.402  72.645  1.00  0.00    -0.300 OA 
BRANCH  16  18
HETATM   18  C   UNL     1     -11.658   9.324  71.266  1.00  0.00    -0.419 C  
HETATM   19  C   UNL     1     -12.723  10.072  71.591  1.00  0.00    -0.535 C  
BRANCH  19  20
HETATM   20  C   UNL     1     -12.824  11.532  71.429  1.00  0.00    -0.489 A  
HETATM   21  C   UNL     1     -12.151  12.229  70.409  1.00  0.00    -0.385 A  
HETATM   22  C   UNL     1     -12.196  13.625  70.350  1.00  0.00    -0.363 A  
HETATM   23  C   UNL     1     -13.543  12.262  72.390  1.00  0.00    -0.174 A  
HETATM   24  C   UNL     1     -12.923  14.319  71.320  1.00  0.00    -0.352 A  
HETATM   25  H   UNL     1     -13.467  16.158  71.961  1.00  0.00     0.000 HD 
HETATM   26  O   UNL     1     -12.972  15.687  71.301  1.00  0.00    -0.474 OA 
HETATM   27  C   UNL     1     -13.599  13.654  72.334  1.00  0.00    -0.703 A  
BRANCH  22  28
HETATM   28  O   UNL     1     -11.569  14.412  69.420  1.00  0.00    -0.268 OA 
HETATM   29  C   UNL     1     -10.841  13.742  68.398  1.00  0.00    -0.252 C  
ENDBRANCH  22  28
ENDBRANCH  19  20
ENDBRANCH  16  18
ENDBRANCH  15  16
ENDBRANCH  13  15
ENDBRANCH  12  13
ENDBRANCH   5  11
ENDBRANCH   2   3
TORSDOF 8
ENDMDL
MODEL       86
REMARK 921   NORMALIZED FREE ENERGY PREDICTED BY IDOCK:   -5.30 KCAL/MOL
REMARK 922        TOTAL FREE ENERGY PREDICTED BY IDOCK:   -9.33 KCAL/MOL
REMARK 923 INTER-LIGAND FREE ENERGY PREDICTED BY IDOCK:   -8.40 KCAL/MOL
REMARK 924 INTRA-LIGAND FREE ENERGY PREDICTED BY IDOCK:   -0.92 KCAL/MOL
REMARK 927      BINDING AFFINITY PREDICTED BY RF-SCORE:    0.00 PKD
ROOT
HETATM    1  C   UNL     1     -12.320  16.204  72.342  1.00  0.00    -0.475 C  
HETATM    2  O   UNL     1     -13.268  15.713  71.398  1.00  0.00    -0.489 OA 
ENDROOT
BRANCH   2   3
HETATM    3  C   UNL     1     -12.800  14.730  70.562  1.00  0.00    -0.322 A  
HETATM    4  C   UNL     1     -12.423  14.968  69.237  1.00  0.00    -0.017 A  
HETATM    5  C   UNL     1     -11.990  13.926  68.406  1.00  0.00    -0.391 A  
HETATM    6  C   UNL     1     -11.851  12.644  68.951  1.00  0.00    -0.345 A  
HETATM    7  H   UNL     1     -12.926  12.320  72.738  1.00  0.00     0.000 HD 
HETATM    8  O   UNL     1     -13.019  13.196  72.383  1.00  0.00    -0.309 OA 
HETATM    9  C   UNL     1     -12.184  12.400  70.288  1.00  0.00    -0.345 A  
HETATM   10  C   UNL     1     -12.664  13.440  71.084  1.00  0.00    -0.328 A  
BRANCH   5  11
HETATM   11  C   UNL     1     -11.649  14.159  66.994  1.00  0.00    -0.404 C  
HETATM   12  C   UNL     1     -12.568  14.268  66.019  1.00  0.00    -0.335 C  
BRANCH  12  13
HETATM   13  C   UNL     1     -12.156  14.482  64.603  1.00  0.00    -0.473 C  
HETATM   14  O   UNL     1     -12.596  15.425  63.945  1.00  0.00    -0.725 OA 
BRANCH  13  15
HETATM   15  C   UNL     1     -11.166  13.518  64.010  1.00  0.00    -0.259 C  
BRANCH  15  16
HETATM   16  C   UNL     1     -11.785  12.205  63.623  1.00  0.00    -0.498 C  
HETATM   17  O   UNL     1     -12.898  12.158  63.100  1.00  0.00    -0.662 OA 
BRANCH  16  18
HETATM   18  C   UNL     1     -10.975  10.971  63.848  1.00  0.00    -0.103 C  
HETATM   19  C   UNL     1     -10.301  10.821  64.999  1.00  0.00    -0.357 C  
BRANCH  19  20
HETATM   20  C   UNL     1      -9.507   9.640  65.376  1.00  0.00    -0.343 A  
HETATM   21  C   UNL     1      -9.911   8.746  66.384  1.00  0.00    -0.346 A  
HETATM   22  C   UNL     1      -9.080   7.692  66.778  1.00  0.00    -0.151 A  
HETATM   23  C   UNL     1      -8.254   9.457  64.768  1.00  0.00    -0.145 A  
HETATM   24  C   UNL     1      -7.841   7.539  66.151  1.00  0.00    -0.096 A  
HETATM   25  H   UNL     1      -6.155   6.424  66.099  1.00  0.00     0.000 HD 
HETATM   26  O   UNL     1      -6.998   6.528  66.526  1.00  0.00    -0.063 OA 
HETATM   27  C   UNL     1      -7.423   8.404  65.150  1.00  0.00    -0.084 A  
BRANCH  22  28
HETATM   28  O   UNL     1      -9.355   6.774  67.757  1.00  0.00    -0.119 OA 
HETATM   29  C   UNL     1     -10.380   5.829  67.482  1.00  0.00    -0.220 C  
ENDBRANCH  22  28
ENDBRANCH  19  20
ENDBRANCH  16  18
ENDBRANCH  15  16
ENDBRANCH  13  15
ENDBRANCH  12  13
ENDBRANCH   5  11
ENDBRANCH   2   3
TORSDOF 8
ENDMDL
MODEL       87
REMARK 921   NORMALIZED FREE ENERGY PREDICTED BY IDOCK:   -5.27 KCAL/MOL
REMARK 922        TOTAL FREE ENERGY PREDICTED BY IDOCK:   -9.28 KCAL/MOL
REMARK 923 INTER-LIGAND FREE ENERGY PREDICTED BY IDOCK:   -8.02 KCAL/MOL
REMARK 924 INTRA-LIGAND FREE ENERGY PREDICTED BY IDOCK:   -1.26 KCAL/MOL
REMARK 927      BINDING AFFINITY PREDICTED BY RF-SCORE:    0.00 PKD
ROOT
HETATM    1  C   UNL     1      -6.892  19.712  67.816  1.00  0.00    -0.242 C  
HETATM    2  O   UNL     1      -7.593  18.845  68.703  1.00  0.00    -0.309 OA 
ENDROOT
BRANCH   2   3
HETATM    3  C   UNL     1      -7.864  17.597  68.200  1.00  0.00    -0.257 A  
HETATM    4  C   UNL     1      -9.026  17.296  67.483  1.00  0.00    -0.222 A  
HETATM    5  C   UNL     1      -9.282  15.997  67.024  1.00  0.00    -0.229 A  
HETATM    6  C   UNL     1      -8.306  15.011  67.216  1.00  0.00    -0.228 A  
HETATM    7  H   UNL     1      -5.109  16.199  69.209  1.00  0.00     0.000 HD 
HETATM    8  O   UNL     1      -5.760  16.880  69.080  1.00  0.00    -0.143 OA 
HETATM    9  C   UNL     1      -7.119  15.309  67.894  1.00  0.00    -0.157 A  
HETATM   10  C   UNL     1      -6.907  16.595  68.390  1.00  0.00    -0.151 A  
BRANCH   5  11
HETATM   11  C   UNL     1     -10.530  15.661  66.323  1.00  0.00    -0.313 C  
HETATM   12  C   UNL     1     -10.599  15.445  64.998  1.00  0.00    -0.445 C  
BRANCH  12  13
HETATM   13  C   UNL     1     -11.900  15.130  64.343  1.00  0.00    -0.305 C  
HETATM   14  O   UNL     1     -12.618  16.021  63.887  1.00  0.00    -0.706 OA 
BRANCH  13  15
HETATM   15  C   UNL     1     -12.298  13.684  64.237  1.00  0.00    -0.388 C  
BRANCH  15  16
HETATM   16  C   UNL     1     -11.118  12.755  64.166  1.00  0.00    -0.389 C  
HETATM   17  O   UNL     1     -10.485  12.612  63.120  1.00  0.00    -0.195 OA 
BRANCH  16  18
HETATM   18  C   UNL     1     -10.717  12.058  65.424  1.00  0.00    -0.330 C  
HETATM   19  C   UNL     1     -11.560  12.037  66.468  1.00  0.00    -0.384 C  
BRANCH  19  20
HETATM   20  C   UNL     1     -11.319  11.348  67.747  1.00  0.00    -0.354 A  
HETATM   21  C   UNL     1     -12.132  11.545  68.877  1.00  0.00    -0.270 A  
HETATM   22  C   UNL     1     -11.811  10.946  70.100  1.00  0.00    -0.353 A  
HETATM   23  C   UNL     1     -10.177  10.539  67.864  1.00  0.00    -0.213 A  
HETATM   24  C   UNL     1     -10.669  10.145  70.179  1.00  0.00    -0.300 A  
HETATM   25  H   UNL     1      -9.541   9.014  71.419  1.00  0.00     0.000 HD 
HETATM   26  O   UNL     1     -10.318   9.559  71.365  1.00  0.00    -0.302 OA 
HETATM   27  C   UNL     1      -9.854   9.931  69.077  1.00  0.00    -0.193 A  
BRANCH  22  28
HETATM   28  O   UNL     1     -12.512  11.078  71.269  1.00  0.00    -0.370 OA 
HETATM   29  C   UNL     1     -12.879  12.398  71.652  1.00  0.00    -0.270 C  
ENDBRANCH  22  28
ENDBRANCH  19  20
ENDBRANCH  16  18
ENDBRANCH  15  16
ENDBRANCH  13  15
ENDBRANCH  12  13
ENDBRANCH   5  11
ENDBRANCH   2   3
TORSDOF 8
ENDMDL
MODEL       88
REMARK 921   NORMALIZED FREE ENERGY PREDICTED BY IDOCK:   -5.27 KCAL/MOL
REMARK 922        TOTAL FREE ENERGY PREDICTED BY IDOCK:   -9.28 KCAL/MOL
REMARK 923 INTER-LIGAND FREE ENERGY PREDICTED BY IDOCK:   -8.48 KCAL/MOL
REMARK 924 INTRA-LIGAND FREE ENERGY PREDICTED BY IDOCK:   -0.80 KCAL/MOL
REMARK 927      BINDING AFFINITY PREDICTED BY RF-SCORE:    0.00 PKD
ROOT
HETATM    1  C   UNL     1      -7.956   2.704  69.704  1.00  0.00    -0.041 C  
HETATM    2  O   UNL     1      -8.311   2.799  68.327  1.00  0.00    -0.067 OA 
ENDROOT
BRANCH   2   3
HETATM    3  C   UNL     1      -9.172   3.823  68.018  1.00  0.00    -0.167 A  
HETATM    4  C   UNL     1      -9.791   4.619  68.986  1.00  0.00    -0.224 A  
HETATM    5  C   UNL     1     -10.696   5.628  68.627  1.00  0.00    -0.249 A  
HETATM    6  C   UNL     1     -10.905   5.891  67.268  1.00  0.00    -0.351 A  
HETATM    7  H   UNL     1      -8.949   3.517  64.791  1.00  0.00     0.000 HD 
HETATM    8  O   UNL     1      -8.793   3.331  65.709  1.00  0.00    -0.124 OA 
HETATM    9  C   UNL     1     -10.258   5.130  66.288  1.00  0.00    -0.289 A  
HETATM   10  C   UNL     1      -9.402   4.096  66.667  1.00  0.00    -0.177 A  
BRANCH   5  11
HETATM   11  C   UNL     1     -11.397   6.429  69.642  1.00  0.00    -0.479 C  
HETATM   12  C   UNL     1     -11.038   6.461  70.937  1.00  0.00    -0.354 C  
BRANCH  12  13
HETATM   13  C   UNL     1     -11.805   7.277  71.921  1.00  0.00    -0.297 C  
HETATM   14  O   UNL     1     -11.296   7.645  72.980  1.00  0.00    -0.372 OA 
BRANCH  13  15
HETATM   15  C   UNL     1     -13.216   7.655  71.566  1.00  0.00    -0.380 C  
BRANCH  15  16
HETATM   16  C   UNL     1     -13.670   8.922  72.236  1.00  0.00    -0.471 C  
HETATM   17  O   UNL     1     -14.099   8.910  73.390  1.00  0.00    -0.158 OA 
BRANCH  16  18
HETATM   18  C   UNL     1     -13.529  10.193  71.468  1.00  0.00    -0.351 C  
HETATM   19  C   UNL     1     -12.400  10.433  70.783  1.00  0.00    -0.463 C  
BRANCH  19  20
HETATM   20  C   UNL     1     -12.143  11.615  69.944  1.00  0.00    -0.373 A  
HETATM   21  C   UNL     1     -12.262  12.929  70.431  1.00  0.00    -0.381 A  
HETATM   22  C   UNL     1     -12.104  14.024  69.575  1.00  0.00    -0.347 A  
HETATM   23  C   UNL     1     -11.863  11.418  68.582  1.00  0.00    -0.377 A  
HETATM   24  C   UNL     1     -11.823  13.791  68.226  1.00  0.00    -0.378 A  
HETATM   25  H   UNL     1     -11.490  14.682  66.442  1.00  0.00     0.000 HD 
HETATM   26  O   UNL     1     -11.681  14.840  67.359  1.00  0.00    -0.373 OA 
HETATM   27  C   UNL     1     -11.696  12.504  67.723  1.00  0.00    -0.419 A  
BRANCH  22  28
HETATM   28  O   UNL     1     -12.216  15.343  69.927  1.00  0.00    -0.342 OA 
HETATM   29  C   UNL     1     -12.663  15.620  71.248  1.00  0.00    -0.475 C  
ENDBRANCH  22  28
ENDBRANCH  19  20
ENDBRANCH  16  18
ENDBRANCH  15  16
ENDBRANCH  13  15
ENDBRANCH  12  13
ENDBRANCH   5  11
ENDBRANCH   2   3
TORSDOF 8
ENDMDL
MODEL       89
REMARK 921   NORMALIZED FREE ENERGY PREDICTED BY IDOCK:   -5.27 KCAL/MOL
REMARK 922        TOTAL FREE ENERGY PREDICTED BY IDOCK:   -9.28 KCAL/MOL
REMARK 923 INTER-LIGAND FREE ENERGY PREDICTED BY IDOCK:   -8.10 KCAL/MOL
REMARK 924 INTRA-LIGAND FREE ENERGY PREDICTED BY IDOCK:   -1.18 KCAL/MOL
REMARK 927      BINDING AFFINITY PREDICTED BY RF-SCORE:    0.00 PKD
ROOT
HETATM    1  C   UNL     1     -11.069   6.369  68.973  1.00  0.00    -0.358 C  
HETATM    2  O   UNL     1     -10.757   7.456  69.841  1.00  0.00    -0.235 OA 
ENDROOT
BRANCH   2   3
HETATM    3  C   UNL     1     -10.134   8.520  69.238  1.00  0.00    -0.202 A  
HETATM    4  C   UNL     1     -10.677   9.207  68.148  1.00  0.00    -0.186 A  
HETATM    5  C   UNL     1      -9.987  10.262  67.536  1.00  0.00    -0.226 A  
HETATM    6  C   UNL     1      -8.775  10.686  68.094  1.00  0.00    -0.130 A  
HETATM    7  H   UNL     1      -7.554   8.591  71.212  1.00  0.00     0.000 HD 
HETATM    8  O   UNL     1      -8.381   8.297  70.848  1.00  0.00    -0.115 OA 
HETATM    9  C   UNL     1      -8.241  10.036  69.212  1.00  0.00    -0.147 A  
HETATM   10  C   UNL     1      -8.918   8.953  69.774  1.00  0.00    -0.149 A  
BRANCH   5  11
HETATM   11  C   UNL     1     -10.525  10.948  66.352  1.00  0.00    -0.307 C  
HETATM   12  C   UNL     1     -10.004  10.815  65.120  1.00  0.00    -0.351 C  
BRANCH  12  13
HETATM   13  C   UNL     1     -10.582  11.557  63.963  1.00  0.00    -0.379 C  
HETATM   14  O   UNL     1      -9.942  11.717  62.923  1.00  0.00    -0.341 OA 
BRANCH  13  15
HETATM   15  C   UNL     1     -11.983  12.085  64.101  1.00  0.00    -0.461 C  
BRANCH  15  16
HETATM   16  C   UNL     1     -12.056  13.584  64.020  1.00  0.00    -0.441 C  
HETATM   17  O   UNL     1     -12.626  14.142  63.083  1.00  0.00    -0.686 OA 
BRANCH  16  18
HETATM   18  C   UNL     1     -11.458  14.362  65.146  1.00  0.00    -0.362 C  
HETATM   19  C   UNL     1     -10.293  15.003  64.965  1.00  0.00    -0.390 C  
BRANCH  19  20
HETATM   20  C   UNL     1      -9.616  15.845  65.965  1.00  0.00    -0.385 A  
HETATM   21  C   UNL     1      -9.893  17.216  66.111  1.00  0.00    -0.280 A  
HETATM   22  C   UNL     1      -9.158  18.000  67.007  1.00  0.00    -0.258 A  
HETATM   23  C   UNL     1      -8.589  15.273  66.733  1.00  0.00    -0.300 A  
HETATM   24  C   UNL     1      -8.145  17.397  67.757  1.00  0.00    -0.214 A  
HETATM   25  H   UNL     1      -6.707  17.731  69.139  1.00  0.00     0.000 HD 
HETATM   26  O   UNL     1      -7.396  18.141  68.629  1.00  0.00    -0.271 OA 
HETATM   27  C   UNL     1      -7.857  16.046  67.634  1.00  0.00    -0.161 A  
BRANCH  22  28
HETATM   28  O   UNL     1      -9.321  19.343  67.221  1.00  0.00    -0.302 OA 
HETATM   29  C   UNL     1     -10.489  19.944  66.676  1.00  0.00    -0.460 C  
ENDBRANCH  22  28
ENDBRANCH  19  20
ENDBRANCH  16  18
ENDBRANCH  15  16
ENDBRANCH  13  15
ENDBRANCH  12  13
ENDBRANCH   5  11
ENDBRANCH   2   3
TORSDOF 8
ENDMDL
MODEL       90
REMARK 921   NORMALIZED FREE ENERGY PREDICTED BY IDOCK:   -5.26 KCAL/MOL
REMARK 922        TOTAL FREE ENERGY PREDICTED BY IDOCK:   -9.27 KCAL/MOL
REMARK 923 INTER-LIGAND FREE ENERGY PREDICTED BY IDOCK:   -7.89 KCAL/MOL
REMARK 924 INTRA-LIGAND FREE ENERGY PREDICTED BY IDOCK:   -1.38 KCAL/MOL
REMARK 927      BINDING AFFINITY PREDICTED BY RF-SCORE:    0.00 PKD
ROOT
HETATM    1  C   UNL     1     -10.010  17.175  68.689  1.00  0.00    -0.313 C  
HETATM    2  O   UNL     1     -10.780  16.814  67.546  1.00  0.00    -0.328 OA 
ENDROOT
BRANCH   2   3
HETATM    3  C   UNL     1     -11.167  15.498  67.498  1.00  0.00    -0.272 A  
HETATM    4  C   UNL     1     -11.362  14.716  68.641  1.00  0.00    -0.305 A  
HETATM    5  C   UNL     1     -11.717  13.363  68.545  1.00  0.00    -0.392 A  
HETATM    6  C   UNL     1     -11.965  12.821  67.278  1.00  0.00    -0.345 A  
HETATM    7  H   UNL     1     -11.398  15.308  64.263  1.00  0.00     0.000 HD 
HETATM    8  O   UNL     1     -11.233  15.691  65.116  1.00  0.00    -0.340 OA 
HETATM    9  C   UNL     1     -11.815  13.604  66.128  1.00  0.00    -0.424 A  
HETATM   10  C   UNL     1     -11.410  14.934  66.242  1.00  0.00    -0.306 A  
BRANCH   5  11
HETATM   11  C   UNL     1     -11.865  12.521  69.741  1.00  0.00    -0.380 C  
HETATM   12  C   UNL     1     -12.420  11.297  69.720  1.00  0.00    -0.193 C  
BRANCH  12  13
HETATM   13  C   UNL     1     -12.561  10.501  70.972  1.00  0.00    -0.400 C  
HETATM   14  O   UNL     1     -13.108  10.973  71.970  1.00  0.00    -0.496 OA 
BRANCH  13  15
HETATM   15  C   UNL     1     -12.034   9.093  70.970  1.00  0.00    -0.344 C  
BRANCH  15  16
HETATM   16  C   UNL     1     -10.588   9.009  70.571  1.00  0.00    -0.227 C  
HETATM   17  O   UNL     1      -9.691   9.123  71.406  1.00  0.00    -0.295 OA 
BRANCH  16  18
HETATM   18  C   UNL     1     -10.287   8.728  69.136  1.00  0.00    -0.227 C  
HETATM   19  C   UNL     1      -9.718   9.679  68.379  1.00  0.00    -0.163 C  
BRANCH  19  20
HETATM   20  C   UNL     1      -9.320   9.526  66.969  1.00  0.00    -0.183 A  
HETATM   21  C   UNL     1      -9.918  10.262  65.930  1.00  0.00    -0.321 A  
HETATM   22  C   UNL     1      -9.579  10.015  64.596  1.00  0.00    -0.297 A  
HETATM   23  C   UNL     1      -8.375   8.539  66.647  1.00  0.00    -0.112 A  
HETATM   24  C   UNL     1      -8.633   9.027  64.311  1.00  0.00    -0.148 A  
HETATM   25  H   UNL     1      -7.649   8.078  62.821  1.00  0.00     0.000 HD 
HETATM   26  O   UNL     1      -8.293   8.750  63.015  1.00  0.00    -0.186 OA 
HETATM   27  C   UNL     1      -8.025   8.292  65.319  1.00  0.00    -0.128 A  
BRANCH  22  28
HETATM   28  O   UNL     1     -10.106  10.649  63.502  1.00  0.00    -0.323 OA 
HETATM   29  C   UNL     1     -10.240  12.063  63.581  1.00  0.00    -0.444 C  
ENDBRANCH  22  28
ENDBRANCH  19  20
ENDBRANCH  16  18
ENDBRANCH  15  16
ENDBRANCH  13  15
ENDBRANCH  12  13
ENDBRANCH   5  11
ENDBRANCH   2   3
TORSDOF 8
ENDMDL
MODEL       91
REMARK 921   NORMALIZED FREE ENERGY PREDICTED BY IDOCK:   -5.26 KCAL/MOL
REMARK 922        TOTAL FREE ENERGY PREDICTED BY IDOCK:   -9.27 KCAL/MOL
REMARK 923 INTER-LIGAND FREE ENERGY PREDICTED BY IDOCK:   -7.72 KCAL/MOL
REMARK 924 INTRA-LIGAND FREE ENERGY PREDICTED BY IDOCK:   -1.55 KCAL/MOL
REMARK 927      BINDING AFFINITY PREDICTED BY RF-SCORE:    0.00 PKD
ROOT
HETATM    1  C   UNL     1     -12.468  12.204  70.763  1.00  0.00    -0.271 C  
HETATM    2  O   UNL     1     -12.942  11.222  71.680  1.00  0.00    -0.448 OA 
ENDROOT
BRANCH   2   3
HETATM    3  C   UNL     1     -12.520   9.940  71.427  1.00  0.00    -0.398 A  
HETATM    4  C   UNL     1     -11.383   9.644  70.668  1.00  0.00    -0.379 A  
HETATM    5  C   UNL     1     -11.012   8.320  70.399  1.00  0.00    -0.244 A  
HETATM    6  C   UNL     1     -11.749   7.283  70.984  1.00  0.00    -0.340 A  
HETATM    7  H   UNL     1     -14.851   8.451  73.133  1.00  0.00     0.000 HD 
HETATM    8  O   UNL     1     -14.356   9.165  72.748  1.00  0.00    -0.563 OA 
HETATM    9  C   UNL     1     -12.864   7.565  71.782  1.00  0.00    -0.359 A  
HETATM   10  C   UNL     1     -13.248   8.889  71.993  1.00  0.00    -0.409 A  
BRANCH   5  11
HETATM   11  C   UNL     1      -9.853   8.003  69.551  1.00  0.00    -0.181 C  
HETATM   12  C   UNL     1      -9.826   6.971  68.691  1.00  0.00    -0.148 C  
BRANCH  12  13
HETATM   13  C   UNL     1      -8.610   6.689  67.875  1.00  0.00    -0.118 C  
HETATM   14  O   UNL     1      -7.534   6.414  68.407  1.00  0.00    -0.084 OA 
BRANCH  13  15
HETATM   15  C   UNL     1      -8.748   6.729  66.379  1.00  0.00    -0.142 C  
BRANCH  15  16
HETATM   16  C   UNL     1      -8.241   8.010  65.777  1.00  0.00    -0.132 C  
HETATM   17  O   UNL     1      -7.085   8.102  65.364  1.00  0.00    -0.062 OA 
BRANCH  16  18
HETATM   18  C   UNL     1      -9.208   9.140  65.652  1.00  0.00    -0.296 C  
HETATM   19  C   UNL     1      -9.287  10.056  66.629  1.00  0.00    -0.202 C  
BRANCH  19  20
HETATM   20  C   UNL     1     -10.155  11.246  66.617  1.00  0.00    -0.251 A  
HETATM   21  C   UNL     1     -11.120  11.468  65.619  1.00  0.00    -0.261 A  
HETATM   22  C   UNL     1     -11.856  12.658  65.591  1.00  0.00    -0.437 A  
HETATM   23  C   UNL     1      -9.939  12.238  67.587  1.00  0.00    -0.199 A  
HETATM   24  C   UNL     1     -11.617  13.622  66.573  1.00  0.00    -0.366 A  
HETATM   25  H   UNL     1     -12.145  15.460  67.230  1.00  0.00     0.000 HD 
HETATM   26  O   UNL     1     -12.307  14.804  66.562  1.00  0.00    -0.163 OA 
HETATM   27  C   UNL     1     -10.673  13.424  67.571  1.00  0.00    -0.263 A  
BRANCH  22  28
HETATM   28  O   UNL     1     -12.804  12.995  64.662  1.00  0.00    -0.700 OA 
HETATM   29  C   UNL     1     -12.385  13.044  63.304  1.00  0.00    -0.306 C  
ENDBRANCH  22  28
ENDBRANCH  19  20
ENDBRANCH  16  18
ENDBRANCH  15  16
ENDBRANCH  13  15
ENDBRANCH  12  13
ENDBRANCH   5  11
ENDBRANCH   2   3
TORSDOF 8
ENDMDL
MODEL       92
REMARK 921   NORMALIZED FREE ENERGY PREDICTED BY IDOCK:   -5.26 KCAL/MOL
REMARK 922        TOTAL FREE ENERGY PREDICTED BY IDOCK:   -9.26 KCAL/MOL
REMARK 923 INTER-LIGAND FREE ENERGY PREDICTED BY IDOCK:   -7.77 KCAL/MOL
REMARK 924 INTRA-LIGAND FREE ENERGY PREDICTED BY IDOCK:   -1.49 KCAL/MOL
REMARK 927      BINDING AFFINITY PREDICTED BY RF-SCORE:    0.00 PKD
ROOT
HETATM    1  C   UNL     1     -11.790  14.212  66.503  1.00  0.00    -0.419 C  
HETATM    2  O   UNL     1     -10.929  14.292  67.635  1.00  0.00    -0.267 OA 
ENDROOT
BRANCH   2   3
HETATM    3  C   UNL     1     -11.501  13.925  68.828  1.00  0.00    -0.292 A  
HETATM    4  C   UNL     1     -11.779  12.597  69.167  1.00  0.00    -0.375 A  
HETATM    5  C   UNL     1     -12.403  12.271  70.379  1.00  0.00    -0.309 A  
HETATM    6  C   UNL     1     -12.665  13.295  71.297  1.00  0.00    -0.411 A  
HETATM    7  H   UNL     1     -11.692  16.921  70.071  1.00  0.00     0.000 HD 
HETATM    8  O   UNL     1     -11.502  16.236  69.440  1.00  0.00    -0.308 OA 
HETATM    9  C   UNL     1     -12.352  14.623  70.989  1.00  0.00    -0.403 A  
HETATM   10  C   UNL     1     -11.780  14.933  69.755  1.00  0.00    -0.305 A  
BRANCH   5  11
HETATM   11  C   UNL     1     -12.752  10.883  70.714  1.00  0.00    -0.431 C  
HETATM   12  C   UNL     1     -13.119  10.489  71.946  1.00  0.00    -0.567 C  
BRANCH  12  13
HETATM   13  C   UNL     1     -13.440   9.060  72.227  1.00  0.00    -0.475 C  
HETATM   14  O   UNL     1     -14.362   8.749  72.981  1.00  0.00    -0.438 OA 
BRANCH  13  15
HETATM   15  C   UNL     1     -12.612   8.010  71.539  1.00  0.00    -0.332 C  
BRANCH  15  16
HETATM   16  C   UNL     1     -11.216   7.913  72.085  1.00  0.00    -0.307 C  
HETATM   17  O   UNL     1     -11.010   7.528  73.236  1.00  0.00    -0.393 OA 
BRANCH  16  18
HETATM   18  C   UNL     1     -10.093   8.249  71.161  1.00  0.00    -0.237 C  
HETATM   19  C   UNL     1     -10.333   8.986  70.066  1.00  0.00    -0.226 C  
BRANCH  19  20
HETATM   20  C   UNL     1      -9.318   9.434  69.097  1.00  0.00    -0.159 A  
HETATM   21  C   UNL     1      -9.434   9.198  67.716  1.00  0.00    -0.160 A  
HETATM   22  C   UNL     1      -8.402   9.554  66.842  1.00  0.00    -0.116 A  
HETATM   23  C   UNL     1      -8.148  10.036  69.588  1.00  0.00    -0.180 A  
HETATM   24  C   UNL     1      -7.252  10.153  67.365  1.00  0.00    -0.088 A  
HETATM   25  H   UNL     1      -5.435  10.905  66.894  1.00  0.00     0.000 HD 
HETATM   26  O   UNL     1      -6.217  10.498  66.539  1.00  0.00    -0.070 OA 
HETATM   27  C   UNL     1      -7.117  10.402  68.723  1.00  0.00    -0.074 A  
BRANCH  22  28
HETATM   28  O   UNL     1      -8.391   9.358  65.487  1.00  0.00    -0.124 OA 
HETATM   29  C   UNL     1      -9.422   9.987  64.738  1.00  0.00    -0.304 C  
ENDBRANCH  22  28
ENDBRANCH  19  20
ENDBRANCH  16  18
ENDBRANCH  15  16
ENDBRANCH  13  15
ENDBRANCH  12  13
ENDBRANCH   5  11
ENDBRANCH   2   3
TORSDOF 8
ENDMDL
MODEL       93
REMARK 921   NORMALIZED FREE ENERGY PREDICTED BY IDOCK:   -5.24 KCAL/MOL
REMARK 922        TOTAL FREE ENERGY PREDICTED BY IDOCK:   -9.23 KCAL/MOL
REMARK 923 INTER-LIGAND FREE ENERGY PREDICTED BY IDOCK:   -7.93 KCAL/MOL
REMARK 924 INTRA-LIGAND FREE ENERGY PREDICTED BY IDOCK:   -1.30 KCAL/MOL
REMARK 927      BINDING AFFINITY PREDICTED BY RF-SCORE:    0.00 PKD
ROOT
HETATM    1  C   UNL     1     -13.113  11.195  71.697  1.00  0.00    -0.424 C  
HETATM    2  O   UNL     1     -12.797   9.967  71.047  1.00  0.00    -0.337 OA 
ENDROOT
BRANCH   2   3
HETATM    3  C   UNL     1     -11.457   9.687  70.953  1.00  0.00    -0.353 A  
HETATM    4  C   UNL     1     -10.615  10.281  70.007  1.00  0.00    -0.321 A  
HETATM    5  C   UNL     1      -9.260   9.935  69.920  1.00  0.00    -0.245 A  
HETATM    6  C   UNL     1      -8.732   9.044  70.862  1.00  0.00    -0.280 A  
HETATM    7  H   UNL     1     -11.350   7.604  73.445  1.00  0.00     0.000 HD 
HETATM    8  O   UNL     1     -11.721   8.213  72.816  1.00  0.00    -0.403 OA 
HETATM    9  C   UNL     1      -9.553   8.475  71.842  1.00  0.00    -0.353 A  
HETATM   10  C   UNL     1     -10.910   8.792  71.878  1.00  0.00    -0.360 A  
BRANCH   5  11
HETATM   11  C   UNL     1      -8.384  10.511  68.889  1.00  0.00    -0.147 C  
HETATM   12  C   UNL     1      -7.052  10.623  69.027  1.00  0.00    -0.086 C  
BRANCH  12  13
HETATM   13  C   UNL     1      -6.222  11.238  67.953  1.00  0.00    -0.050 C  
HETATM   14  O   UNL     1      -6.221  10.784  66.808  1.00  0.00    -0.067 OA 
BRANCH  13  15
HETATM   15  C   UNL     1      -5.402  12.447  68.308  1.00  0.00    -0.058 C  
BRANCH  15  16
HETATM   16  C   UNL     1      -6.241  13.642  68.663  1.00  0.00    -0.088 C  
HETATM   17  O   UNL     1      -6.183  14.147  69.784  1.00  0.00    -0.121 OA 
BRANCH  16  18
HETATM   18  C   UNL     1      -7.102  14.219  67.589  1.00  0.00    -0.200 C  
HETATM   19  C   UNL     1      -8.435  14.093  67.667  1.00  0.00    -0.189 C  
BRANCH  19  20
HETATM   20  C   UNL     1      -9.405  14.654  66.712  1.00  0.00    -0.275 A  
HETATM   21  C   UNL     1     -10.159  13.849  65.839  1.00  0.00    -0.331 A  
HETATM   22  C   UNL     1     -10.997  14.429  64.880  1.00  0.00    -0.406 A  
HETATM   23  C   UNL     1      -9.506  16.051  66.607  1.00  0.00    -0.259 A  
HETATM   24  C   UNL     1     -11.075  15.822  64.806  1.00  0.00    -0.400 A  
HETATM   25  H   UNL     1     -11.926  17.366  63.816  1.00  0.00     0.000 HD 
HETATM   26  O   UNL     1     -11.872  16.419  63.867  1.00  0.00    -1.034 OA 
HETATM   27  C   UNL     1     -10.345  16.637  65.659  1.00  0.00    -0.310 A  
BRANCH  22  28
HETATM   28  O   UNL     1     -11.761  13.753  63.966  1.00  0.00    -0.389 OA 
HETATM   29  C   UNL     1     -12.439  12.591  64.429  1.00  0.00    -0.446 C  
ENDBRANCH  22  28
ENDBRANCH  19  20
ENDBRANCH  16  18
ENDBRANCH  15  16
ENDBRANCH  13  15
ENDBRANCH  12  13
ENDBRANCH   5  11
ENDBRANCH   2   3
TORSDOF 8
ENDMDL
MODEL       94
REMARK 921   NORMALIZED FREE ENERGY PREDICTED BY IDOCK:   -5.23 KCAL/MOL
REMARK 922        TOTAL FREE ENERGY PREDICTED BY IDOCK:   -9.22 KCAL/MOL
REMARK 923 INTER-LIGAND FREE ENERGY PREDICTED BY IDOCK:   -7.58 KCAL/MOL
REMARK 924 INTRA-LIGAND FREE ENERGY PREDICTED BY IDOCK:   -1.64 KCAL/MOL
REMARK 927      BINDING AFFINITY PREDICTED BY RF-SCORE:    0.00 PKD
ROOT
HETATM    1  C   UNL     1     -11.144  13.862  66.204  1.00  0.00    -0.299 C  
HETATM    2  O   UNL     1     -10.590  14.432  67.387  1.00  0.00    -0.266 OA 
ENDROOT
BRANCH   2   3
HETATM    3  C   UNL     1     -11.251  14.116  68.548  1.00  0.00    -0.260 A  
HETATM    4  C   UNL     1     -11.453  12.803  68.982  1.00  0.00    -0.360 A  
HETATM    5  C   UNL     1     -12.171  12.525  70.153  1.00  0.00    -0.307 A  
HETATM    6  C   UNL     1     -12.610  13.595  70.942  1.00  0.00    -0.421 A  
HETATM    7  H   UNL     1     -11.816  17.178  69.481  1.00  0.00     0.000 HD 
HETATM    8  O   UNL     1     -11.506  16.461  68.939  1.00  0.00    -0.311 OA 
HETATM    9  C   UNL     1     -12.377  14.916  70.543  1.00  0.00    -0.400 A  
HETATM   10  C   UNL     1     -11.707  15.170  69.346  1.00  0.00    -0.332 A  
BRANCH   5  11
HETATM   11  C   UNL     1     -12.439  11.144  70.582  1.00  0.00    -0.448 C  
HETATM   12  C   UNL     1     -12.824  10.818  71.828  1.00  0.00    -0.528 C  
BRANCH  12  13
HETATM   13  C   UNL     1     -13.057   9.395  72.206  1.00  0.00    -0.428 C  
HETATM   14  O   UNL     1     -14.197   8.956  72.367  1.00  0.00    -0.466 OA 
BRANCH  13  15
HETATM   15  C   UNL     1     -11.855   8.506  72.363  1.00  0.00    -0.437 C  
BRANCH  15  16
HETATM   16  C   UNL     1     -11.641   7.596  71.186  1.00  0.00    -0.280 C  
HETATM   17  O   UNL     1     -12.403   6.655  70.966  1.00  0.00    -0.352 OA 
BRANCH  16  18
HETATM   18  C   UNL     1     -10.504   7.911  70.272  1.00  0.00    -0.225 C  
HETATM   19  C   UNL     1     -10.733   8.599  69.142  1.00  0.00    -0.136 C  
BRANCH  19  20
HETATM   20  C   UNL     1      -9.705   9.023  68.177  1.00  0.00    -0.172 A  
HETATM   21  C   UNL     1      -8.871  10.133  68.399  1.00  0.00    -0.123 A  
HETATM   22  C   UNL     1      -7.975  10.560  67.413  1.00  0.00    -0.110 A  
HETATM   23  C   UNL     1      -9.625   8.347  66.949  1.00  0.00    -0.264 A  
HETATM   24  C   UNL     1      -7.919   9.863  66.204  1.00  0.00    -0.109 A  
HETATM   25  H   UNL     1      -7.028   9.792  64.390  1.00  0.00     0.000 HD 
HETATM   26  O   UNL     1      -7.066  10.266  65.213  1.00  0.00    -0.133 OA 
HETATM   27  C   UNL     1      -8.728   8.761  65.964  1.00  0.00    -0.193 A  
BRANCH  22  28
HETATM   28  O   UNL     1      -7.129  11.634  67.505  1.00  0.00    -0.094 OA 
HETATM   29  C   UNL     1      -7.520  12.686  68.379  1.00  0.00    -0.127 C  
ENDBRANCH  22  28
ENDBRANCH  19  20
ENDBRANCH  16  18
ENDBRANCH  15  16
ENDBRANCH  13  15
ENDBRANCH  12  13
ENDBRANCH   5  11
ENDBRANCH   2   3
TORSDOF 8
ENDMDL
MODEL       95
REMARK 921   NORMALIZED FREE ENERGY PREDICTED BY IDOCK:   -5.23 KCAL/MOL
REMARK 922        TOTAL FREE ENERGY PREDICTED BY IDOCK:   -9.22 KCAL/MOL
REMARK 923 INTER-LIGAND FREE ENERGY PREDICTED BY IDOCK:   -7.62 KCAL/MOL
REMARK 924 INTRA-LIGAND FREE ENERGY PREDICTED BY IDOCK:   -1.59 KCAL/MOL
REMARK 927      BINDING AFFINITY PREDICTED BY RF-SCORE:    0.00 PKD
ROOT
HETATM    1  C   UNL     1     -11.129  15.957  70.394  1.00  0.00    -0.370 C  
HETATM    2  O   UNL     1     -11.684  15.229  69.303  1.00  0.00    -0.301 OA 
ENDROOT
BRANCH   2   3
HETATM    3  C   UNL     1     -11.546  13.865  69.384  1.00  0.00    -0.297 A  
HETATM    4  C   UNL     1     -10.545  13.156  68.714  1.00  0.00    -0.225 A  
HETATM    5  C   UNL     1     -10.465  11.759  68.792  1.00  0.00    -0.221 A  
HETATM    6  C   UNL     1     -11.357  11.082  69.633  1.00  0.00    -0.363 A  
HETATM    7  H   UNL     1     -14.012  13.378  71.443  1.00  0.00     0.000 HD 
HETATM    8  O   UNL     1     -13.410  13.851  70.881  1.00  0.00    -0.213 OA 
HETATM    9  C   UNL     1     -12.337  11.783  70.344  1.00  0.00    -0.362 A  
HETATM   10  C   UNL     1     -12.432  13.168  70.211  1.00  0.00    -0.163 A  
BRANCH   5  11
HETATM   11  C   UNL     1      -9.452  11.003  68.042  1.00  0.00    -0.169 C  
HETATM   12  C   UNL     1      -9.401   9.660  68.014  1.00  0.00    -0.142 C  
BRANCH  12  13
HETATM   13  C   UNL     1      -8.333   8.953  67.251  1.00  0.00    -0.104 C  
HETATM   14  O   UNL     1      -7.145   9.080  67.549  1.00  0.00    -0.075 OA 
BRANCH  13  15
HETATM   15  C   UNL     1      -8.757   8.060  66.119  1.00  0.00    -0.177 C  
BRANCH  15  16
HETATM   16  C   UNL     1      -8.433   8.632  64.767  1.00  0.00    -0.149 C  
HETATM   17  O   UNL     1      -7.891   7.945  63.901  1.00  0.00    -0.134 OA 
BRANCH  16  18
HETATM   18  C   UNL     1      -8.842  10.043  64.503  1.00  0.00    -0.231 C  
HETATM   19  C   UNL     1     -10.145  10.360  64.463  1.00  0.00    -0.365 C  
BRANCH  19  20
HETATM   20  C   UNL     1     -10.691  11.713  64.264  1.00  0.00    -0.398 A  
HETATM   21  C   UNL     1     -10.143  12.849  64.887  1.00  0.00    -0.229 A  
HETATM   22  C   UNL     1     -10.751  14.101  64.748  1.00  0.00    -0.419 A  
HETATM   23  C   UNL     1     -11.860  11.854  63.499  1.00  0.00    -0.560 A  
HETATM   24  C   UNL     1     -11.912  14.205  63.978  1.00  0.00    -0.327 A  
HETATM   25  H   UNL     1     -13.330  15.485  63.313  1.00  0.00     0.000 HD 
HETATM   26  O   UNL     1     -12.541  15.413  63.837  1.00  0.00    -0.725 OA 
HETATM   27  C   UNL     1     -12.468  13.101  63.349  1.00  0.00    -0.328 A  
BRANCH  22  28
HETATM   28  O   UNL     1     -10.324  15.270  65.320  1.00  0.00    -0.369 OA 
HETATM   29  C   UNL     1      -9.093  15.226  66.030  1.00  0.00    -0.209 C  
ENDBRANCH  22  28
ENDBRANCH  19  20
ENDBRANCH  16  18
ENDBRANCH  15  16
ENDBRANCH  13  15
ENDBRANCH  12  13
ENDBRANCH   5  11
ENDBRANCH   2   3
TORSDOF 8
ENDMDL
MODEL       96
REMARK 921   NORMALIZED FREE ENERGY PREDICTED BY IDOCK:   -5.21 KCAL/MOL
REMARK 922        TOTAL FREE ENERGY PREDICTED BY IDOCK:   -9.20 KCAL/MOL
REMARK 923 INTER-LIGAND FREE ENERGY PREDICTED BY IDOCK:   -8.38 KCAL/MOL
REMARK 924 INTRA-LIGAND FREE ENERGY PREDICTED BY IDOCK:   -0.81 KCAL/MOL
REMARK 927      BINDING AFFINITY PREDICTED BY RF-SCORE:    0.00 PKD
ROOT
HETATM    1  C   UNL     1     -12.262  15.879  73.582  1.00  0.00    -0.528 C  
HETATM    2  O   UNL     1     -13.184  15.699  72.511  1.00  0.00    -0.423 OA 
ENDROOT
BRANCH   2   3
HETATM    3  C   UNL     1     -12.772  14.833  71.528  1.00  0.00    -0.330 A  
HETATM    4  C   UNL     1     -11.974  15.224  70.449  1.00  0.00    -0.374 A  
HETATM    5  C   UNL     1     -11.611  14.315  69.446  1.00  0.00    -0.354 A  
HETATM    6  C   UNL     1     -11.985  12.973  69.587  1.00  0.00    -0.367 A  
HETATM    7  H   UNL     1     -14.168  12.180  72.782  1.00  0.00     0.000 HD 
HETATM    8  O   UNL     1     -13.915  13.093  72.703  1.00  0.00    -0.708 OA 
HETATM    9  C   UNL     1     -12.747  12.559  70.685  1.00  0.00    -0.132 A  
HETATM   10  C   UNL     1     -13.143  13.491  71.645  1.00  0.00    -0.374 A  
BRANCH   5  11
HETATM   11  C   UNL     1     -10.823  14.734  68.277  1.00  0.00    -0.251 C  
HETATM   12  C   UNL     1     -11.372  15.110  67.110  1.00  0.00    -0.291 C  
BRANCH  12  13
HETATM   13  C   UNL     1     -10.516  15.502  65.954  1.00  0.00    -0.342 C  
HETATM   14  O   UNL     1     -10.052  16.638  65.860  1.00  0.00    -0.367 OA 
BRANCH  13  15
HETATM   15  C   UNL     1     -10.219  14.454  64.918  1.00  0.00    -0.357 C  
BRANCH  15  16
HETATM   16  C   UNL     1     -11.220  13.333  64.913  1.00  0.00    -0.318 C  
HETATM   17  O   UNL     1     -12.198  13.358  64.167  1.00  0.00    -0.485 OA 
BRANCH  16  18
HETATM   18  C   UNL     1     -10.949  12.168  65.807  1.00  0.00    -0.338 C  
HETATM   19  C   UNL     1     -10.403  11.053  65.297  1.00  0.00    -0.338 C  
BRANCH  19  20
HETATM   20  C   UNL     1     -10.036   9.852  66.066  1.00  0.00    -0.314 A  
HETATM   21  C   UNL     1      -9.042   8.954  65.638  1.00  0.00    -0.269 A  
HETATM   22  C   UNL     1      -8.792   7.775  66.348  1.00  0.00    -0.155 A  
HETATM   23  C   UNL     1     -10.775   9.548  67.221  1.00  0.00    -0.269 A  
HETATM   24  C   UNL     1      -9.545   7.506  67.494  1.00  0.00    -0.142 A  
HETATM   25  H   UNL     1      -9.849   6.169  68.980  1.00  0.00     0.000 HD 
HETATM   26  O   UNL     1      -9.337   6.352  68.201  1.00  0.00    -0.112 OA 
HETATM   27  C   UNL     1     -10.527   8.379  67.940  1.00  0.00    -0.255 A  
BRANCH  22  28
HETATM   28  O   UNL     1      -7.868   6.819  66.020  1.00  0.00    -0.096 OA 
HETATM   29  C   UNL     1      -7.455   6.765  64.660  1.00  0.00    -0.097 C  
ENDBRANCH  22  28
ENDBRANCH  19  20
ENDBRANCH  16  18
ENDBRANCH  15  16
ENDBRANCH  13  15
ENDBRANCH  12  13
ENDBRANCH   5  11
ENDBRANCH   2   3
TORSDOF 8
ENDMDL
MODEL       97
REMARK 921   NORMALIZED FREE ENERGY PREDICTED BY IDOCK:   -5.21 KCAL/MOL
REMARK 922        TOTAL FREE ENERGY PREDICTED BY IDOCK:   -9.19 KCAL/MOL
REMARK 923 INTER-LIGAND FREE ENERGY PREDICTED BY IDOCK:   -8.35 KCAL/MOL
REMARK 924 INTRA-LIGAND FREE ENERGY PREDICTED BY IDOCK:   -0.84 KCAL/MOL
REMARK 927      BINDING AFFINITY PREDICTED BY RF-SCORE:    0.00 PKD
ROOT
HETATM    1  C   UNL     1      -7.180   2.737  68.158  1.00  0.00    -0.049 C  
HETATM    2  O   UNL     1      -8.430   2.620  67.484  1.00  0.00    -0.084 OA 
ENDROOT
BRANCH   2   3
HETATM    3  C   UNL     1      -9.231   3.733  67.551  1.00  0.00    -0.182 A  
HETATM    4  C   UNL     1      -9.432   4.463  68.726  1.00  0.00    -0.227 A  
HETATM    5  C   UNL     1     -10.291   5.569  68.758  1.00  0.00    -0.271 A  
HETATM    6  C   UNL     1     -10.884   5.995  67.563  1.00  0.00    -0.393 A  
HETATM    7  H   UNL     1     -10.058   3.767  64.408  1.00  0.00     0.000 HD 
HETATM    8  O   UNL     1      -9.644   3.470  65.210  1.00  0.00    -0.162 OA 
HETATM    9  C   UNL     1     -10.658   5.300  66.370  1.00  0.00    -0.338 A  
HETATM   10  C   UNL     1      -9.841   4.169  66.371  1.00  0.00    -0.195 A  
BRANCH   5  11
HETATM   11  C   UNL     1     -10.553   6.304  70.004  1.00  0.00    -0.307 C  
HETATM   12  C   UNL     1     -11.661   7.036  70.214  1.00  0.00    -0.284 C  
BRANCH  12  13
HETATM   13  C   UNL     1     -11.857   7.777  71.492  1.00  0.00    -0.293 C  
HETATM   14  O   UNL     1     -11.822   7.197  72.578  1.00  0.00    -0.229 OA 
BRANCH  13  15
HETATM   15  C   UNL     1     -12.076   9.262  71.413  1.00  0.00    -0.424 C  
BRANCH  15  16
HETATM   16  C   UNL     1     -11.139   9.943  70.454  1.00  0.00    -0.319 C  
HETATM   17  O   UNL     1      -9.919   9.826  70.569  1.00  0.00    -0.265 OA 
BRANCH  16  18
HETATM   18  C   UNL     1     -11.749  10.716  69.333  1.00  0.00    -0.344 C  
HETATM   19  C   UNL     1     -10.962  11.439  68.521  1.00  0.00    -0.267 C  
BRANCH  19  20
HETATM   20  C   UNL     1     -11.417  12.206  67.349  1.00  0.00    -0.415 A  
HETATM   21  C   UNL     1     -11.399  11.678  66.045  1.00  0.00    -0.261 A  
HETATM   22  C   UNL     1     -11.749  12.474  64.949  1.00  0.00    -0.359 A  
HETATM   23  C   UNL     1     -11.793  13.546  67.535  1.00  0.00    -0.406 A  
HETATM   24  C   UNL     1     -12.120  13.803  65.171  1.00  0.00    -0.399 A  
HETATM   25  H   UNL     1     -12.703  15.515  64.268  1.00  0.00     0.000 HD 
HETATM   26  O   UNL     1     -12.450  14.612  64.118  1.00  0.00    -0.736 OA 
HETATM   27  C   UNL     1     -12.151  14.344  66.448  1.00  0.00    -0.390 A  
BRANCH  22  28
HETATM   28  O   UNL     1     -11.750  12.080  63.637  1.00  0.00    -0.435 OA 
HETATM   29  C   UNL     1     -10.509  11.644  63.096  1.00  0.00    -0.311 C  
ENDBRANCH  22  28
ENDBRANCH  19  20
ENDBRANCH  16  18
ENDBRANCH  15  16
ENDBRANCH  13  15
ENDBRANCH  12  13
ENDBRANCH   5  11
ENDBRANCH   2   3
TORSDOF 8
ENDMDL
MODEL       98
REMARK 921   NORMALIZED FREE ENERGY PREDICTED BY IDOCK:   -5.20 KCAL/MOL
REMARK 922        TOTAL FREE ENERGY PREDICTED BY IDOCK:   -9.18 KCAL/MOL
REMARK 923 INTER-LIGAND FREE ENERGY PREDICTED BY IDOCK:   -7.76 KCAL/MOL
REMARK 924 INTRA-LIGAND FREE ENERGY PREDICTED BY IDOCK:   -1.43 KCAL/MOL
REMARK 927      BINDING AFFINITY PREDICTED BY RF-SCORE:    0.00 PKD
ROOT
HETATM    1  C   UNL     1      -6.030  10.562  65.912  1.00  0.00    -0.121 C  
HETATM    2  O   UNL     1      -7.128  10.239  65.063  1.00  0.00    -0.136 OA 
ENDROOT
BRANCH   2   3
HETATM    3  C   UNL     1      -8.367  10.518  65.585  1.00  0.00    -0.167 A  
HETATM    4  C   UNL     1      -8.651  10.465  66.953  1.00  0.00    -0.127 A  
HETATM    5  C   UNL     1      -9.942  10.717  67.438  1.00  0.00    -0.213 A  
HETATM    6  C   UNL     1     -10.934  11.117  66.534  1.00  0.00    -0.270 A  
HETATM    7  H   UNL     1      -9.791  11.243  62.755  1.00  0.00     0.000 HD 
HETATM    8  O   UNL     1      -9.106  10.976  63.358  1.00  0.00    -0.213 OA 
HETATM    9  C   UNL     1     -10.652  11.216  65.167  1.00  0.00    -0.319 A  
HETATM   10  C   UNL     1      -9.375  10.909  64.698  1.00  0.00    -0.223 A  
BRANCH   5  11
HETATM   11  C   UNL     1     -10.261  10.603  68.868  1.00  0.00    -0.216 C  
HETATM   12  C   UNL     1     -11.505  10.401  69.335  1.00  0.00    -0.292 C  
BRANCH  12  13
HETATM   13  C   UNL     1     -11.766  10.318  70.801  1.00  0.00    -0.360 C  
HETATM   14  O   UNL     1     -10.977   9.755  71.559  1.00  0.00    -0.309 OA 
BRANCH  13  15
HETATM   15  C   UNL     1     -13.018  10.965  71.325  1.00  0.00    -0.492 C  
BRANCH  15  16
HETATM   16  C   UNL     1     -12.880  12.452  71.500  1.00  0.00    -0.274 C  
HETATM   17  O   UNL     1     -13.486  13.044  72.393  1.00  0.00    -0.567 OA 
BRANCH  16  18
HETATM   18  C   UNL     1     -11.942  13.166  70.585  1.00  0.00    -0.246 C  
HETATM   19  C   UNL     1     -12.416  13.755  69.477  1.00  0.00    -0.123 C  
BRANCH  19  20
HETATM   20  C   UNL     1     -11.618  14.535  68.515  1.00  0.00    -0.344 A  
HETATM   21  C   UNL     1     -11.816  14.451  67.125  1.00  0.00    -0.437 A  
HETATM   22  C   UNL     1     -10.972  15.134  66.242  1.00  0.00    -0.335 A  
HETATM   23  C   UNL     1     -10.560  15.316  69.005  1.00  0.00    -0.245 A  
HETATM   24  C   UNL     1      -9.930  15.904  66.765  1.00  0.00    -0.248 A  
HETATM   25  H   UNL     1      -8.368  17.094  66.283  1.00  0.00     0.000 HD 
HETATM   26  O   UNL     1      -9.076  16.570  65.927  1.00  0.00    -0.460 OA 
HETATM   27  C   UNL     1      -9.719  16.007  68.132  1.00  0.00    -0.217 A  
BRANCH  22  28
HETATM   28  O   UNL     1     -11.052  15.113  64.875  1.00  0.00    -0.389 OA 
HETATM   29  C   UNL     1     -12.216  14.524  64.308  1.00  0.00    -0.415 C  
ENDBRANCH  22  28
ENDBRANCH  19  20
ENDBRANCH  16  18
ENDBRANCH  15  16
ENDBRANCH  13  15
ENDBRANCH  12  13
ENDBRANCH   5  11
ENDBRANCH   2   3
TORSDOF 8
ENDMDL
MODEL       99
REMARK 921   NORMALIZED FREE ENERGY PREDICTED BY IDOCK:   -5.19 KCAL/MOL
REMARK 922        TOTAL FREE ENERGY PREDICTED BY IDOCK:   -9.17 KCAL/MOL
REMARK 923 INTER-LIGAND FREE ENERGY PREDICTED BY IDOCK:   -7.75 KCAL/MOL
REMARK 924 INTRA-LIGAND FREE ENERGY PREDICTED BY IDOCK:   -1.42 KCAL/MOL
REMARK 927      BINDING AFFINITY PREDICTED BY RF-SCORE:    0.00 PKD
ROOT
HETATM    1  C   UNL     1      -8.657   1.897  68.363  1.00  0.00    -0.067 C  
HETATM    2  O   UNL     1      -8.846   2.718  67.214  1.00  0.00    -0.118 OA 
ENDROOT
BRANCH   2   3
HETATM    3  C   UNL     1      -9.543   3.880  67.439  1.00  0.00    -0.172 A  
HETATM    4  C   UNL     1      -9.868   4.342  68.718  1.00  0.00    -0.149 A  
HETATM    5  C   UNL     1     -10.617   5.512  68.900  1.00  0.00    -0.258 A  
HETATM    6  C   UNL     1     -10.964   6.270  67.775  1.00  0.00    -0.427 A  
HETATM    7  H   UNL     1      -9.835   4.732  64.317  1.00  0.00     0.000 HD 
HETATM    8  O   UNL     1      -9.587   4.211  65.072  1.00  0.00    -0.159 OA 
HETATM    9  C   UNL     1     -10.609   5.842  66.492  1.00  0.00    -0.294 A  
HETATM   10  C   UNL     1      -9.908   4.647  66.329  1.00  0.00    -0.226 A  
BRANCH   5  11
HETATM   11  C   UNL     1     -11.013   5.971  70.240  1.00  0.00    -0.412 C  
HETATM   12  C   UNL     1     -10.390   5.590  71.367  1.00  0.00    -0.291 C  
BRANCH  12  13
HETATM   13  C   UNL     1     -10.855   6.074  72.698  1.00  0.00    -0.244 C  
HETATM   14  O   UNL     1     -11.050   5.292  73.630  1.00  0.00    -0.297 OA 
BRANCH  13  15
HETATM   15  C   UNL     1     -11.057   7.553  72.873  1.00  0.00    -0.426 C  
BRANCH  15  16
HETATM   16  C   UNL     1      -9.825   8.355  72.560  1.00  0.00    -0.289 C  
HETATM   17  O   UNL     1      -8.868   8.375  73.333  1.00  0.00    -0.253 OA 
BRANCH  16  18
HETATM   18  C   UNL     1      -9.790   9.078  71.254  1.00  0.00    -0.376 C  
HETATM   19  C   UNL     1     -10.909   9.650  70.782  1.00  0.00    -0.400 C  
BRANCH  19  20
HETATM   20  C   UNL     1     -11.009  10.434  69.540  1.00  0.00    -0.307 A  
HETATM   21  C   UNL     1     -11.515  11.746  69.513  1.00  0.00    -0.363 A  
HETATM   22  C   UNL     1     -11.684  12.420  68.298  1.00  0.00    -0.345 A  
HETATM   23  C   UNL     1     -10.673   9.810  68.328  1.00  0.00    -0.277 A  
HETATM   24  C   UNL     1     -11.338  11.769  67.112  1.00  0.00    -0.322 A  
HETATM   25  H   UNL     1     -11.272  11.952  65.099  1.00  0.00     0.000 HD 
HETATM   26  O   UNL     1     -11.508  12.394  65.906  1.00  0.00    -0.337 OA 
HETATM   27  C   UNL     1     -10.831  10.477  67.113  1.00  0.00    -0.319 A  
BRANCH  22  28
HETATM   28  O   UNL     1     -12.184  13.686  68.144  1.00  0.00    -0.322 OA 
HETATM   29  C   UNL     1     -11.915  14.615  69.186  1.00  0.00    -0.294 C  
ENDBRANCH  22  28
ENDBRANCH  19  20
ENDBRANCH  16  18
ENDBRANCH  15  16
ENDBRANCH  13  15
ENDBRANCH  12  13
ENDBRANCH   5  11
ENDBRANCH   2   3
TORSDOF 8
ENDMDL
MODEL      100
REMARK 921   NORMALIZED FREE ENERGY PREDICTED BY IDOCK:   -5.19 KCAL/MOL
REMARK 922        TOTAL FREE ENERGY PREDICTED BY IDOCK:   -9.16 KCAL/MOL
REMARK 923 INTER-LIGAND FREE ENERGY PREDICTED BY IDOCK:   -7.99 KCAL/MOL
REMARK 924 INTRA-LIGAND FREE ENERGY PREDICTED BY IDOCK:   -1.17 KCAL/MOL
REMARK 927      BINDING AFFINITY PREDICTED BY RF-SCORE:    0.00 PKD
ROOT
HETATM    1  C   UNL     1      -6.530   8.017  68.101  1.00  0.00    -0.055 C  
HETATM    2  O   UNL     1      -7.734   7.533  68.691  1.00  0.00    -0.113 OA 
ENDROOT
BRANCH   2   3
HETATM    3  C   UNL     1      -8.793   8.405  68.647  1.00  0.00    -0.136 A  
HETATM    4  C   UNL     1      -9.170   9.094  67.490  1.00  0.00    -0.144 A  
HETATM    5  C   UNL     1     -10.233  10.006  67.500  1.00  0.00    -0.260 A  
HETATM    6  C   UNL     1     -10.981  10.154  68.675  1.00  0.00    -0.273 A  
HETATM    7  H   UNL     1      -9.708   8.014  71.741  1.00  0.00     0.000 HD 
HETATM    8  O   UNL     1      -9.196   7.898  70.949  1.00  0.00    -0.150 OA 
HETATM    9  C   UNL     1     -10.642   9.439  69.829  1.00  0.00    -0.247 A  
HETATM   10  C   UNL     1      -9.547   8.575  69.812  1.00  0.00    -0.170 A  
BRANCH   5  11
HETATM   11  C   UNL     1     -10.596  10.778  66.303  1.00  0.00    -0.257 C  
HETATM   12  C   UNL     1     -10.083  10.538  65.084  1.00  0.00    -0.383 C  
BRANCH  12  13
HETATM   13  C   UNL     1     -10.475  11.373  63.912  1.00  0.00    -0.387 C  
HETATM   14  O   UNL     1      -9.642  11.741  63.083  1.00  0.00    -0.371 OA 
BRANCH  13  15
HETATM   15  C   UNL     1     -11.927  11.733  63.765  1.00  0.00    -0.468 C  
BRANCH  15  16
HETATM   16  C   UNL     1     -12.165  13.217  63.743  1.00  0.00    -0.456 C  
HETATM   17  O   UNL     1     -12.626  13.770  62.744  1.00  0.00    -0.447 OA 
BRANCH  16  18
HETATM   18  C   UNL     1     -11.872  13.978  64.993  1.00  0.00    -0.383 C  
HETATM   19  C   UNL     1     -11.070  15.052  64.943  1.00  0.00    -0.425 C  
BRANCH  19  20
HETATM   20  C   UNL     1     -10.736  15.924  66.082  1.00  0.00    -0.273 A  
HETATM   21  C   UNL     1     -10.812  15.486  67.417  1.00  0.00    -0.312 A  
HETATM   22  C   UNL     1     -10.580  16.375  68.472  1.00  0.00    -0.304 A  
HETATM   23  C   UNL     1     -10.424  17.268  65.824  1.00  0.00    -0.237 A  
HETATM   24  C   UNL     1     -10.269  17.705  68.178  1.00  0.00    -0.371 A  
HETATM   25  H   UNL     1      -9.843  19.508  68.989  1.00  0.00     0.000 HD 
HETATM   26  O   UNL     1     -10.055  18.603  69.189  1.00  0.00    -0.355 OA 
HETATM   27  C   UNL     1     -10.183  18.159  66.870  1.00  0.00    -0.380 A  
BRANCH  22  28
HETATM   28  O   UNL     1     -10.644  16.073  69.807  1.00  0.00    -0.280 OA 
HETATM   29  C   UNL     1     -11.849  15.479  70.274  1.00  0.00    -0.357 C  
ENDBRANCH  22  28
ENDBRANCH  19  20
ENDBRANCH  16  18
ENDBRANCH  15  16
ENDBRANCH  13  15
ENDBRANCH  12  13
ENDBRANCH   5  11
ENDBRANCH   2   3
TORSDOF 8
ENDMDL
MODEL      101
REMARK 921   NORMALIZED FREE ENERGY PREDICTED BY IDOCK:   -5.14 KCAL/MOL
REMARK 922        TOTAL FREE ENERGY PREDICTED BY IDOCK:   -9.09 KCAL/MOL
REMARK 923 INTER-LIGAND FREE ENERGY PREDICTED BY IDOCK:   -7.46 KCAL/MOL
REMARK 924 INTRA-LIGAND FREE ENERGY PREDICTED BY IDOCK:   -1.62 KCAL/MOL
REMARK 927      BINDING AFFINITY PREDICTED BY RF-SCORE:    0.00 PKD
ROOT
HETATM    1  C   UNL     1      -8.921   7.979  71.212  1.00  0.00    -0.139 C  
HETATM    2  O   UNL     1     -10.215   7.907  71.804  1.00  0.00    -0.186 OA 
ENDROOT
BRANCH   2   3
HETATM    3  C   UNL     1     -11.064   8.934  71.472  1.00  0.00    -0.326 A  
HETATM    4  C   UNL     1     -10.764   9.889  70.496  1.00  0.00    -0.382 A  
HETATM    5  C   UNL     1     -11.642  10.945  70.217  1.00  0.00    -0.426 A  
HETATM    6  C   UNL     1     -12.879  10.982  70.873  1.00  0.00    -0.393 A  
HETATM    7  H   UNL     1     -13.451   8.100  73.513  1.00  0.00     0.000 HD 
HETATM    8  O   UNL     1     -12.611   8.059  73.071  1.00  0.00     0.024 OA 
HETATM    9  C   UNL     1     -13.211  10.008  71.821  1.00  0.00    -0.540 A  
HETATM   10  C   UNL     1     -12.300   8.995  72.121  1.00  0.00    -0.372 A  
BRANCH   5  11
HETATM   11  C   UNL     1     -11.306  11.987  69.235  1.00  0.00    -0.330 C  
HETATM   12  C   UNL     1     -11.903  13.190  69.199  1.00  0.00    -0.364 C  
BRANCH  12  13
HETATM   13  C   UNL     1     -11.532  14.195  68.162  1.00  0.00    -0.310 C  
HETATM   14  O   UNL     1     -10.829  15.167  68.438  1.00  0.00    -0.241 OA 
BRANCH  13  15
HETATM   15  C   UNL     1     -12.028  13.969  66.761  1.00  0.00    -0.473 C  
BRANCH  15  16
HETATM   16  C   UNL     1     -10.915  13.800  65.765  1.00  0.00    -0.280 C  
HETATM   17  O   UNL     1     -10.656  14.683  64.948  1.00  0.00    -0.416 OA 
BRANCH  16  18
HETATM   18  C   UNL     1     -10.108  12.547  65.844  1.00  0.00    -0.270 C  
HETATM   19  C   UNL     1     -10.729  11.367  66.001  1.00  0.00    -0.318 C  
BRANCH  19  20
HETATM   20  C   UNL     1     -10.067  10.053  66.043  1.00  0.00    -0.318 A  
HETATM   21  C   UNL     1      -9.037   9.695  65.155  1.00  0.00    -0.279 A  
HETATM   22  C   UNL     1      -8.503   8.402  65.166  1.00  0.00    -0.160 A  
HETATM   23  C   UNL     1     -10.553   9.091  66.944  1.00  0.00    -0.243 A  
HETATM   24  C   UNL     1      -9.008   7.471  66.078  1.00  0.00    -0.127 A  
HETATM   25  H   UNL     1      -8.863   5.560  66.721  1.00  0.00     0.000 HD 
HETATM   26  O   UNL     1      -8.519   6.193  66.101  1.00  0.00    -0.125 OA 
HETATM   27  C   UNL     1     -10.020   7.802  66.967  1.00  0.00    -0.314 A  
BRANCH  22  28
HETATM   28  O   UNL     1      -7.516   7.932  64.341  1.00  0.00    -0.085 OA 
HETATM   29  C   UNL     1      -6.364   8.751  64.186  1.00  0.00    -0.072 C  
ENDBRANCH  22  28
ENDBRANCH  19  20
ENDBRANCH  16  18
ENDBRANCH  15  16
ENDBRANCH  13  15
ENDBRANCH  12  13
ENDBRANCH   5  11
ENDBRANCH   2   3
TORSDOF 8
ENDMDL
MODEL      102
REMARK 921   NORMALIZED FREE ENERGY PREDICTED BY IDOCK:   -5.13 KCAL/MOL
REMARK 922        TOTAL FREE ENERGY PREDICTED BY IDOCK:   -9.08 KCAL/MOL
REMARK 923 INTER-LIGAND FREE ENERGY PREDICTED BY IDOCK:   -8.25 KCAL/MOL
REMARK 924 INTRA-LIGAND FREE ENERGY PREDICTED BY IDOCK:   -0.83 KCAL/MOL
REMARK 927      BINDING AFFINITY PREDICTED BY RF-SCORE:    0.00 PKD
ROOT
HETATM    1  C   UNL     1     -10.383   7.140  73.234  1.00  0.00    -0.327 C  
HETATM    2  O   UNL     1     -11.644   7.619  72.773  1.00  0.00    -0.337 OA 
ENDROOT
BRANCH   2   3
HETATM    3  C   UNL     1     -11.578   8.581  71.796  1.00  0.00    -0.312 A  
HETATM    4  C   UNL     1     -10.471   8.746  70.958  1.00  0.00    -0.293 A  
HETATM    5  C   UNL     1     -10.428   9.768  70.001  1.00  0.00    -0.314 A  
HETATM    6  C   UNL     1     -11.560  10.576  69.830  1.00  0.00    -0.368 A  
HETATM    7  H   UNL     1     -14.545   9.807  72.299  1.00  0.00     0.000 HD 
HETATM    8  O   UNL     1     -13.787   9.247  72.422  1.00  0.00    -0.470 OA 
HETATM    9  C   UNL     1     -12.691  10.395  70.632  1.00  0.00    -0.417 A  
HETATM   10  C   UNL     1     -12.692   9.405  71.615  1.00  0.00    -0.374 A  
BRANCH   5  11
HETATM   11  C   UNL     1      -9.243   9.985  69.158  1.00  0.00    -0.196 C  
HETATM   12  C   UNL     1      -8.727   9.043  68.350  1.00  0.00    -0.130 C  
BRANCH  12  13
HETATM   13  C   UNL     1      -7.509   9.319  67.537  1.00  0.00    -0.088 C  
HETATM   14  O   UNL     1      -6.442   9.628  68.070  1.00  0.00    -0.056 OA 
BRANCH  13  15
HETATM   15  C   UNL     1      -7.619   9.183  66.044  1.00  0.00    -0.095 C  
BRANCH  15  16
HETATM   16  C   UNL     1      -9.005   9.458  65.531  1.00  0.00    -0.204 C  
HETATM   17  O   UNL     1      -9.890   8.607  65.610  1.00  0.00    -0.033 OA 
BRANCH  16  18
HETATM   18  C   UNL     1      -9.274  10.816  64.974  1.00  0.00    -0.241 C  
HETATM   19  C   UNL     1     -10.174  11.612  65.573  1.00  0.00    -0.302 C  
BRANCH  19  20
HETATM   20  C   UNL     1     -10.502  12.989  65.166  1.00  0.00    -0.335 A  
HETATM   21  C   UNL     1      -9.775  14.105  65.619  1.00  0.00    -0.210 A  
HETATM   22  C   UNL     1     -10.180  15.402  65.286  1.00  0.00    -0.357 A  
HETATM   23  C   UNL     1     -11.641  13.196  64.372  1.00  0.00    -0.422 A  
HETATM   24  C   UNL     1     -11.318  15.571  64.493  1.00  0.00    -0.314 A  
HETATM   25  H   UNL     1     -12.524  16.942  63.625  1.00  0.00     0.000 HD 
HETATM   26  O   UNL     1     -11.750  16.827  64.165  1.00  0.00    -1.033 OA 
HETATM   27  C   UNL     1     -12.048  14.485  64.029  1.00  0.00    -0.271 A  
BRANCH  22  28
HETATM   28  O   UNL     1      -9.569  16.562  65.683  1.00  0.00    -0.511 OA 
HETATM   29  C   UNL     1      -8.614  16.459  66.731  1.00  0.00    -0.235 C  
ENDBRANCH  22  28
ENDBRANCH  19  20
ENDBRANCH  16  18
ENDBRANCH  15  16
ENDBRANCH  13  15
ENDBRANCH  12  13
ENDBRANCH   5  11
ENDBRANCH   2   3
TORSDOF 8
ENDMDL
MODEL      103
REMARK 921   NORMALIZED FREE ENERGY PREDICTED BY IDOCK:   -5.13 KCAL/MOL
REMARK 922        TOTAL FREE ENERGY PREDICTED BY IDOCK:   -9.07 KCAL/MOL
REMARK 923 INTER-LIGAND FREE ENERGY PREDICTED BY IDOCK:   -7.54 KCAL/MOL
REMARK 924 INTRA-LIGAND FREE ENERGY PREDICTED BY IDOCK:   -1.53 KCAL/MOL
REMARK 927      BINDING AFFINITY PREDICTED BY RF-SCORE:    0.00 PKD
ROOT
HETATM    1  C   UNL     1      -9.252   4.802  71.558  1.00  0.00    -0.142 C  
HETATM    2  O   UNL     1      -8.957   6.106  72.051  1.00  0.00    -0.139 OA 
ENDROOT
BRANCH   2   3
HETATM    3  C   UNL     1      -9.676   7.122  71.470  1.00  0.00    -0.164 A  
HETATM    4  C   UNL     1      -9.529   7.495  70.131  1.00  0.00    -0.161 A  
HETATM    5  C   UNL     1     -10.253   8.566  69.590  1.00  0.00    -0.209 A  
HETATM    6  C   UNL     1     -11.204   9.208  70.394  1.00  0.00    -0.279 A  
HETATM    7  H   UNL     1     -11.428   7.870  74.103  1.00  0.00     0.000 HD 
HETATM    8  O   UNL     1     -10.784   7.421  73.568  1.00  0.00    -0.385 OA 
HETATM    9  C   UNL     1     -11.392   8.818  71.724  1.00  0.00    -0.409 A  
HETATM   10  C   UNL     1     -10.623   7.784  72.258  1.00  0.00    -0.259 A  
BRANCH   5  11
HETATM   11  C   UNL     1     -10.060   9.002  68.200  1.00  0.00    -0.229 C  
HETATM   12  C   UNL     1      -8.855   9.276  67.670  1.00  0.00    -0.122 C  
BRANCH  12  13
HETATM   13  C   UNL     1      -8.729   9.736  66.258  1.00  0.00    -0.139 C  
HETATM   14  O   UNL     1      -7.641  10.080  65.794  1.00  0.00    -0.109 OA 
BRANCH  13  15
HETATM   15  C   UNL     1      -9.971   9.743  65.411  1.00  0.00    -0.302 C  
BRANCH  15  16
HETATM   16  C   UNL     1     -10.290  11.100  64.851  1.00  0.00    -0.313 C  
HETATM   17  O   UNL     1     -10.422  11.271  63.639  1.00  0.00    -0.353 OA 
BRANCH  16  18
HETATM   18  C   UNL     1     -10.494  12.214  65.823  1.00  0.00    -0.287 C  
HETATM   19  C   UNL     1     -11.305  12.035  66.877  1.00  0.00    -0.400 C  
BRANCH  19  20
HETATM   20  C   UNL     1     -11.558  13.023  67.939  1.00  0.00    -0.385 A  
HETATM   21  C   UNL     1     -11.388  14.405  67.743  1.00  0.00    -0.331 A  
HETATM   22  C   UNL     1     -11.545  15.300  68.806  1.00  0.00    -0.362 A  
HETATM   23  C   UNL     1     -11.891  12.554  69.220  1.00  0.00    -0.360 A  
HETATM   24  C   UNL     1     -11.879  14.799  70.067  1.00  0.00    -0.311 A  
HETATM   25  H   UNL     1     -12.249  15.307  71.989  1.00  0.00     0.000 HD 
HETATM   26  O   UNL     1     -12.022  15.648  71.131  1.00  0.00    -0.336 OA 
HETATM   27  C   UNL     1     -12.058  13.440  70.284  1.00  0.00    -0.419 A  
BRANCH  22  28
HETATM   28  O   UNL     1     -11.386  16.659  68.743  1.00  0.00    -0.274 OA 
HETATM   29  C   UNL     1     -10.441  17.153  67.802  1.00  0.00    -0.362 C  
ENDBRANCH  22  28
ENDBRANCH  19  20
ENDBRANCH  16  18
ENDBRANCH  15  16
ENDBRANCH  13  15
ENDBRANCH  12  13
ENDBRANCH   5  11
ENDBRANCH   2   3
TORSDOF 8
ENDMDL
MODEL      104
REMARK 921   NORMALIZED FREE ENERGY PREDICTED BY IDOCK:   -5.10 KCAL/MOL
REMARK 922        TOTAL FREE ENERGY PREDICTED BY IDOCK:   -9.04 KCAL/MOL
REMARK 923 INTER-LIGAND FREE ENERGY PREDICTED BY IDOCK:   -7.48 KCAL/MOL
REMARK 924 INTRA-LIGAND FREE ENERGY PREDICTED BY IDOCK:   -1.56 KCAL/MOL
REMARK 927      BINDING AFFINITY PREDICTED BY RF-SCORE:    0.00 PKD
ROOT
HETATM    1  C   UNL     1     -11.673  10.904  70.225  1.00  0.00    -0.347 C  
HETATM    2  O   UNL     1     -12.519  11.712  71.038  1.00  0.00    -0.379 OA 
ENDROOT
BRANCH   2   3
HETATM    3  C   UNL     1     -12.472  13.057  70.767  1.00  0.00    -0.302 A  
HETATM    4  C   UNL     1     -11.842  13.589  69.638  1.00  0.00    -0.398 A  
HETATM    5  C   UNL     1     -11.782  14.972  69.422  1.00  0.00    -0.351 A  
HETATM    6  C   UNL     1     -12.449  15.822  70.314  1.00  0.00    -0.291 A  
HETATM    7  H   UNL     1     -14.197  14.004  73.354  1.00  0.00     0.000 HD 
HETATM    8  O   UNL     1     -13.754  13.415  72.754  1.00  0.00    -0.697 OA 
HETATM    9  C   UNL     1     -13.121  15.300  71.425  1.00  0.00    -0.529 A  
HETATM   10  C   UNL     1     -13.123  13.924  71.650  1.00  0.00    -0.367 A  
BRANCH   5  11
HETATM   11  C   UNL     1     -11.068  15.540  68.269  1.00  0.00    -0.322 C  
HETATM   12  C   UNL     1     -10.796  16.850  68.139  1.00  0.00    -0.351 C  
BRANCH  12  13
HETATM   13  C   UNL     1     -10.089  17.367  66.933  1.00  0.00    -0.314 C  
HETATM   14  O   UNL     1     -10.544  17.194  65.802  1.00  0.00    -0.405 OA 
BRANCH  13  15
HETATM   15  C   UNL     1      -8.809  18.127  67.145  1.00  0.00    -0.259 C  
BRANCH  15  16
HETATM   16  C   UNL     1      -7.758  17.319  67.854  1.00  0.00    -0.193 C  
HETATM   17  O   UNL     1      -7.207  17.747  68.869  1.00  0.00    -0.263 OA 
BRANCH  16  18
HETATM   18  C   UNL     1      -7.451  15.964  67.311  1.00  0.00    -0.244 C  
HETATM   19  C   UNL     1      -7.709  14.877  68.055  1.00  0.00    -0.128 C  
BRANCH  19  20
HETATM   20  C   UNL     1      -7.506  13.482  67.629  1.00  0.00    -0.187 A  
HETATM   21  C   UNL     1      -8.576  12.600  67.391  1.00  0.00    -0.189 A  
HETATM   22  C   UNL     1      -8.337  11.257  67.083  1.00  0.00    -0.151 A  
HETATM   23  C   UNL     1      -6.192  12.993  67.552  1.00  0.00    -0.143 A  
HETATM   24  C   UNL     1      -7.017  10.805  67.013  1.00  0.00    -0.100 A  
HETATM   25  H   UNL     1      -5.853   9.184  66.682  1.00  0.00     0.000 HD 
HETATM   26  O   UNL     1      -6.751   9.492  66.731  1.00  0.00    -0.071 OA 
HETATM   27  C   UNL     1      -5.945  11.656  67.237  1.00  0.00    -0.112 A  
BRANCH  22  28
HETATM   28  O   UNL     1      -9.292  10.302  66.852  1.00  0.00    -0.155 OA 
HETATM   29  C   UNL     1     -10.625  10.761  66.659  1.00  0.00    -0.232 C  
ENDBRANCH  22  28
ENDBRANCH  19  20
ENDBRANCH  16  18
ENDBRANCH  15  16
ENDBRANCH  13  15
ENDBRANCH  12  13
ENDBRANCH   5  11
ENDBRANCH   2   3
TORSDOF 8
ENDMDL
MODEL      105
REMARK 921   NORMALIZED FREE ENERGY PREDICTED BY IDOCK:   -5.10 KCAL/MOL
REMARK 922        TOTAL FREE ENERGY PREDICTED BY IDOCK:   -9.03 KCAL/MOL
REMARK 923 INTER-LIGAND FREE ENERGY PREDICTED BY IDOCK:   -8.35 KCAL/MOL
REMARK 924 INTRA-LIGAND FREE ENERGY PREDICTED BY IDOCK:   -0.69 KCAL/MOL
REMARK 927      BINDING AFFINITY PREDICTED BY RF-SCORE:    0.00 PKD
ROOT
HETATM    1  C   UNL     1      -8.421   6.369  74.240  1.00  0.00    -0.128 C  
HETATM    2  O   UNL     1      -9.823   6.542  74.431  1.00  0.00    -0.271 OA 
ENDROOT
BRANCH   2   3
HETATM    3  C   UNL     1     -10.516   6.943  73.315  1.00  0.00    -0.312 A  
HETATM    4  C   UNL     1     -10.343   8.194  72.715  1.00  0.00    -0.384 A  
HETATM    5  C   UNL     1     -11.102   8.577  71.601  1.00  0.00    -0.360 A  
HETATM    6  C   UNL     1     -11.981   7.647  71.034  1.00  0.00    -0.296 A  
HETATM    7  H   UNL     1     -12.182   4.181  72.919  1.00  0.00     0.000 HD 
HETATM    8  O   UNL     1     -11.577   4.800  73.310  1.00  0.00    -0.333 OA 
HETATM    9  C   UNL     1     -12.133   6.375  71.598  1.00  0.00    -0.319 A  
HETATM   10  C   UNL     1     -11.407   6.032  72.739  1.00  0.00    -0.242 A  
BRANCH   5  11
HETATM   11  C   UNL     1     -10.968   9.913  71.003  1.00  0.00    -0.360 C  
HETATM   12  C   UNL     1     -11.958  10.526  70.331  1.00  0.00    -0.425 C  
BRANCH  12  13
HETATM   13  C   UNL     1     -11.751  11.873  69.727  1.00  0.00    -0.331 C  
HETATM   14  O   UNL     1     -12.297  12.873  70.194  1.00  0.00    -0.270 OA 
BRANCH  13  15
HETATM   15  C   UNL     1     -10.833  11.974  68.540  1.00  0.00    -0.267 C  
BRANCH  15  16
HETATM   16  C   UNL     1     -11.403  12.809  67.428  1.00  0.00    -0.313 C  
HETATM   17  O   UNL     1     -12.237  12.346  66.650  1.00  0.00    -0.562 OA 
BRANCH  16  18
HETATM   18  C   UNL     1     -10.958  14.231  67.340  1.00  0.00    -0.301 C  
HETATM   19  C   UNL     1      -9.698  14.510  66.971  1.00  0.00    -0.247 C  
BRANCH  19  20
HETATM   20  C   UNL     1      -9.139  15.861  66.794  1.00  0.00    -0.275 A  
HETATM   21  C   UNL     1      -9.948  17.005  66.674  1.00  0.00    -0.307 A  
HETATM   22  C   UNL     1      -9.380  18.256  66.409  1.00  0.00    -0.273 A  
HETATM   23  C   UNL     1      -7.749  15.993  66.644  1.00  0.00    -0.239 A  
HETATM   24  C   UNL     1      -7.993  18.350  66.269  1.00  0.00    -0.235 A  
HETATM   25  H   UNL     1      -6.464  19.621  65.896  1.00  0.00     0.000 HD 
HETATM   26  O   UNL     1      -7.407  19.556  65.992  1.00  0.00    -0.267 OA 
HETATM   27  C   UNL     1      -7.173  17.237  66.388  1.00  0.00    -0.327 A  
BRANCH  22  28
HETATM   28  O   UNL     1     -10.063  19.433  66.252  1.00  0.00    -0.389 OA 
HETATM   29  C   UNL     1     -10.771  19.920  67.384  1.00  0.00    -0.313 C  
ENDBRANCH  22  28
ENDBRANCH  19  20
ENDBRANCH  16  18
ENDBRANCH  15  16
ENDBRANCH  13  15
ENDBRANCH  12  13
ENDBRANCH   5  11
ENDBRANCH   2   3
TORSDOF 8
ENDMDL
MODEL      106
REMARK 921   NORMALIZED FREE ENERGY PREDICTED BY IDOCK:   -5.10 KCAL/MOL
REMARK 922        TOTAL FREE ENERGY PREDICTED BY IDOCK:   -9.03 KCAL/MOL
REMARK 923 INTER-LIGAND FREE ENERGY PREDICTED BY IDOCK:   -8.18 KCAL/MOL
REMARK 924 INTRA-LIGAND FREE ENERGY PREDICTED BY IDOCK:   -0.84 KCAL/MOL
REMARK 927      BINDING AFFINITY PREDICTED BY RF-SCORE:    0.00 PKD
ROOT
HETATM    1  C   UNL     1      -7.868   1.865  67.427  1.00  0.00    -0.060 C  
HETATM    2  O   UNL     1      -8.860   2.356  66.530  1.00  0.00    -0.119 OA 
ENDROOT
BRANCH   2   3
HETATM    3  C   UNL     1      -9.430   3.551  66.892  1.00  0.00    -0.171 A  
HETATM    4  C   UNL     1      -9.618   3.937  68.223  1.00  0.00    -0.178 A  
HETATM    5  C   UNL     1     -10.243   5.149  68.548  1.00  0.00    -0.182 A  
HETATM    6  C   UNL     1     -10.598   6.021  67.511  1.00  0.00    -0.345 A  
HETATM    7  H   UNL     1      -9.865   4.670  63.873  1.00  0.00     0.000 HD 
HETATM    8  O   UNL     1      -9.613   4.071  64.566  1.00  0.00    -0.155 OA 
HETATM    9  C   UNL     1     -10.376   5.667  66.176  1.00  0.00    -0.091 A  
HETATM   10  C   UNL     1      -9.802   4.432  65.873  1.00  0.00    -0.228 A  
BRANCH   5  11
HETATM   11  C   UNL     1     -10.498   5.533  69.944  1.00  0.00    -0.386 C  
HETATM   12  C   UNL     1     -11.435   6.425  70.306  1.00  0.00    -0.468 C  
BRANCH  12  13
HETATM   13  C   UNL     1     -11.629   6.789  71.739  1.00  0.00    -0.297 C  
HETATM   14  O   UNL     1     -11.954   5.944  72.574  1.00  0.00    -0.274 OA 
BRANCH  13  15
HETATM   15  C   UNL     1     -11.392   8.220  72.135  1.00  0.00    -0.419 C  
BRANCH  15  16
HETATM   16  C   UNL     1     -12.616   9.080  71.988  1.00  0.00    -0.394 C  
HETATM   17  O   UNL     1     -13.725   8.667  72.325  1.00  0.00    -0.391 OA 
BRANCH  16  18
HETATM   18  C   UNL     1     -12.421  10.466  71.470  1.00  0.00    -0.508 C  
HETATM   19  C   UNL     1     -12.165  10.658  70.167  1.00  0.00    -0.398 C  
BRANCH  19  20
HETATM   20  C   UNL     1     -12.002  11.966  69.511  1.00  0.00    -0.355 A  
HETATM   21  C   UNL     1     -11.692  12.094  68.145  1.00  0.00    -0.402 A  
HETATM   22  C   UNL     1     -11.451  13.353  67.584  1.00  0.00    -0.319 A  
HETATM   23  C   UNL     1     -12.067  13.123  70.305  1.00  0.00    -0.399 A  
HETATM   24  C   UNL     1     -11.526  14.482  68.403  1.00  0.00    -0.302 A  
HETATM   25  H   UNL     1     -11.329  16.494  68.445  1.00  0.00     0.000 HD 
HETATM   26  O   UNL     1     -11.278  15.726  67.888  1.00  0.00    -0.341 OA 
HETATM   27  C   UNL     1     -11.836  14.382  69.752  1.00  0.00    -0.375 A  
BRANCH  22  28
HETATM   28  O   UNL     1     -11.122  13.601  66.278  1.00  0.00    -0.298 OA 
HETATM   29  C   UNL     1     -11.350  12.551  65.347  1.00  0.00    -0.325 C  
ENDBRANCH  22  28
ENDBRANCH  19  20
ENDBRANCH  16  18
ENDBRANCH  15  16
ENDBRANCH  13  15
ENDBRANCH  12  13
ENDBRANCH   5  11
ENDBRANCH   2   3
TORSDOF 8
ENDMDL
MODEL      107
REMARK 921   NORMALIZED FREE ENERGY PREDICTED BY IDOCK:   -5.08 KCAL/MOL
REMARK 922        TOTAL FREE ENERGY PREDICTED BY IDOCK:   -9.00 KCAL/MOL
REMARK 923 INTER-LIGAND FREE ENERGY PREDICTED BY IDOCK:   -8.12 KCAL/MOL
REMARK 924 INTRA-LIGAND FREE ENERGY PREDICTED BY IDOCK:   -0.88 KCAL/MOL
REMARK 927      BINDING AFFINITY PREDICTED BY RF-SCORE:    0.00 PKD
ROOT
HETATM    1  C   UNL     1     -10.992   7.210  69.510  1.00  0.00    -0.191 C  
HETATM    2  O   UNL     1      -9.798   7.467  68.775  1.00  0.00    -0.157 OA 
ENDROOT
BRANCH   2   3
HETATM    3  C   UNL     1      -9.567   8.789  68.486  1.00  0.00    -0.150 A  
HETATM    4  C   UNL     1     -10.358   9.529  67.602  1.00  0.00    -0.299 A  
HETATM    5  C   UNL     1     -10.062  10.866  67.304  1.00  0.00    -0.225 A  
HETATM    6  C   UNL     1      -9.004  11.486  67.981  1.00  0.00    -0.170 A  
HETATM    7  H   UNL     1      -7.016   9.148  70.467  1.00  0.00     0.000 HD 
HETATM    8  O   UNL     1      -7.735   8.715  70.020  1.00  0.00    -0.074 OA 
HETATM    9  C   UNL     1      -8.231  10.770  68.901  1.00  0.00    -0.149 A  
HETATM   10  C   UNL     1      -8.510   9.425  69.143  1.00  0.00    -0.134 A  
BRANCH   5  11
HETATM   11  C   UNL     1     -10.853  11.631  66.330  1.00  0.00    -0.333 C  
HETATM   12  C   UNL     1     -10.323  12.545  65.500  1.00  0.00    -0.303 C  
BRANCH  12  13
HETATM   13  C   UNL     1     -11.184  13.305  64.550  1.00  0.00    -0.362 C  
HETATM   14  O   UNL     1     -12.079  12.747  63.914  1.00  0.00    -0.414 OA 
BRANCH  13  15
HETATM   15  C   UNL     1     -10.938  14.781  64.410  1.00  0.00    -0.067 C  
BRANCH  15  16
HETATM   16  C   UNL     1     -10.881  15.494  65.732  1.00  0.00    -0.331 C  
HETATM   17  O   UNL     1     -10.343  16.596  65.836  1.00  0.00    -0.342 OA 
BRANCH  16  18
HETATM   18  C   UNL     1     -11.548  14.838  66.895  1.00  0.00    -0.337 C  
HETATM   19  C   UNL     1     -11.389  15.348  68.126  1.00  0.00    -0.353 C  
BRANCH  19  20
HETATM   20  C   UNL     1     -12.025  14.838  69.352  1.00  0.00    -0.339 A  
HETATM   21  C   UNL     1     -12.552  15.688  70.341  1.00  0.00    -0.376 A  
HETATM   22  C   UNL     1     -13.059  15.164  71.535  1.00  0.00    -0.403 A  
HETATM   23  C   UNL     1     -12.018  13.452  69.580  1.00  0.00    -0.377 A  
HETATM   24  C   UNL     1     -13.038  13.780  71.727  1.00  0.00    -0.379 A  
HETATM   25  H   UNL     1     -13.497  12.297  73.022  1.00  0.00     0.000 HD 
HETATM   26  O   UNL     1     -13.511  13.237  72.891  1.00  0.00    -0.560 OA 
HETATM   27  C   UNL     1     -12.530  12.921  70.763  1.00  0.00    -0.370 A  
BRANCH  22  28
HETATM   28  O   UNL     1     -13.577  15.889  72.575  1.00  0.00    -0.497 OA 
HETATM   29  C   UNL     1     -12.658  16.349  73.558  1.00  0.00    -0.430 C  
ENDBRANCH  22  28
ENDBRANCH  19  20
ENDBRANCH  16  18
ENDBRANCH  15  16
ENDBRANCH  13  15
ENDBRANCH  12  13
ENDBRANCH   5  11
ENDBRANCH   2   3
TORSDOF 8
ENDMDL
MODEL      108
REMARK 921   NORMALIZED FREE ENERGY PREDICTED BY IDOCK:   -5.05 KCAL/MOL
REMARK 922        TOTAL FREE ENERGY PREDICTED BY IDOCK:   -8.95 KCAL/MOL
REMARK 923 INTER-LIGAND FREE ENERGY PREDICTED BY IDOCK:   -8.31 KCAL/MOL
REMARK 924 INTRA-LIGAND FREE ENERGY PREDICTED BY IDOCK:   -0.64 KCAL/MOL
REMARK 927      BINDING AFFINITY PREDICTED BY RF-SCORE:    0.00 PKD
ROOT
HETATM    1  C   UNL     1      -6.135   6.664  73.175  1.00  0.00    -0.058 C  
HETATM    2  O   UNL     1      -7.056   6.353  74.216  1.00  0.00    -0.088 OA 
ENDROOT
BRANCH   2   3
HETATM    3  C   UNL     1      -8.376   6.342  73.840  1.00  0.00    -0.115 A  
HETATM    4  C   UNL     1      -9.030   7.458  73.307  1.00  0.00    -0.210 A  
HETATM    5  C   UNL     1     -10.390   7.415  72.974  1.00  0.00    -0.356 A  
HETATM    6  C   UNL     1     -11.074   6.199  73.098  1.00  0.00    -0.214 A  
HETATM    7  H   UNL     1      -8.929   3.222  74.559  1.00  0.00     0.000 HD 
HETATM    8  O   UNL     1      -8.450   4.038  74.474  1.00  0.00    -0.091 OA 
HETATM    9  C   UNL     1     -10.422   5.063  73.589  1.00  0.00    -0.292 A  
HETATM   10  C   UNL     1      -9.081   5.141  73.964  1.00  0.00    -0.118 A  
BRANCH   5  11
HETATM   11  C   UNL     1     -11.097   8.601  72.470  1.00  0.00    -0.234 C  
HETATM   12  C   UNL     1     -12.119   8.540  71.599  1.00  0.00    -0.373 C  
BRANCH  12  13
HETATM   13  C   UNL     1     -12.779   9.783  71.109  1.00  0.00    -0.340 C  
HETATM   14  O   UNL     1     -14.006   9.891  71.093  1.00  0.00    -0.105 OA 
BRANCH  13  15
HETATM   15  C   UNL     1     -11.896  10.911  70.654  1.00  0.00    -0.453 C  
BRANCH  15  16
HETATM   16  C   UNL     1     -11.539  10.827  69.197  1.00  0.00    -0.305 C  
HETATM   17  O   UNL     1     -11.234   9.752  68.680  1.00  0.00    -0.141 OA 
BRANCH  16  18
HETATM   18  C   UNL     1     -11.622  12.084  68.396  1.00  0.00    -0.368 C  
HETATM   19  C   UNL     1     -11.100  12.118  67.160  1.00  0.00    -0.345 C  
BRANCH  19  20
HETATM   20  C   UNL     1     -11.154  13.268  66.241  1.00  0.00    -0.306 A  
HETATM   21  C   UNL     1     -10.297  14.376  66.365  1.00  0.00    -0.289 A  
HETATM   22  C   UNL     1     -10.446  15.489  65.531  1.00  0.00    -0.386 A  
HETATM   23  C   UNL     1     -12.164  13.295  65.266  1.00  0.00    -0.492 A  
HETATM   24  C   UNL     1     -11.460  15.481  64.570  1.00  0.00    -0.308 A  
HETATM   25  H   UNL     1     -12.333  16.557  63.098  1.00  0.00     0.000 HD 
HETATM   26  O   UNL     1     -11.644  16.563  63.751  1.00  0.00    -1.109 OA 
HETATM   27  C   UNL     1     -12.315  14.398  64.425  1.00  0.00    -0.428 A  
BRANCH  22  28
HETATM   28  O   UNL     1      -9.689  16.630  65.570  1.00  0.00    -0.538 OA 
HETATM   29  C   UNL     1      -8.759  16.749  66.639  1.00  0.00    -0.248 C  
ENDBRANCH  22  28
ENDBRANCH  19  20
ENDBRANCH  16  18
ENDBRANCH  15  16
ENDBRANCH  13  15
ENDBRANCH  12  13
ENDBRANCH   5  11
ENDBRANCH   2   3
TORSDOF 8
ENDMDL
MODEL      109
REMARK 921   NORMALIZED FREE ENERGY PREDICTED BY IDOCK:   -5.05 KCAL/MOL
REMARK 922        TOTAL FREE ENERGY PREDICTED BY IDOCK:   -8.95 KCAL/MOL
REMARK 923 INTER-LIGAND FREE ENERGY PREDICTED BY IDOCK:   -8.25 KCAL/MOL
REMARK 924 INTRA-LIGAND FREE ENERGY PREDICTED BY IDOCK:   -0.70 KCAL/MOL
REMARK 927      BINDING AFFINITY PREDICTED BY RF-SCORE:    0.00 PKD
ROOT
HETATM    1  C   UNL     1     -10.585   5.700  67.019  1.00  0.00    -0.285 C  
HETATM    2  O   UNL     1      -9.960   6.157  68.216  1.00  0.00    -0.130 OA 
ENDROOT
BRANCH   2   3
HETATM    3  C   UNL     1     -10.269   7.445  68.577  1.00  0.00    -0.183 A  
HETATM    4  C   UNL     1     -10.602   8.440  67.653  1.00  0.00    -0.265 A  
HETATM    5  C   UNL     1     -10.870   9.753  68.062  1.00  0.00    -0.276 A  
HETATM    6  C   UNL     1     -10.890  10.039  69.433  1.00  0.00    -0.270 A  
HETATM    7  H   UNL     1      -9.983   6.996  71.783  1.00  0.00     0.000 HD 
HETATM    8  O   UNL     1      -9.972   6.786  70.856  1.00  0.00    -0.186 OA 
HETATM    9  C   UNL     1     -10.601   9.042  70.372  1.00  0.00    -0.258 A  
HETATM   10  C   UNL     1     -10.285   7.754  69.940  1.00  0.00    -0.213 A  
BRANCH   5  11
HETATM   11  C   UNL     1     -11.161  10.818  67.091  1.00  0.00    -0.297 C  
HETATM   12  C   UNL     1     -10.471  10.988  65.950  1.00  0.00    -0.300 C  
BRANCH  12  13
HETATM   13  C   UNL     1     -10.802  12.102  65.017  1.00  0.00    -0.300 C  
HETATM   14  O   UNL     1     -10.366  12.121  63.865  1.00  0.00    -0.348 OA 
BRANCH  13  15
HETATM   15  C   UNL     1     -11.705  13.192  65.522  1.00  0.00    -0.393 C  
BRANCH  15  16
HETATM   16  C   UNL     1     -11.910  14.295  64.522  1.00  0.00    -0.442 C  
HETATM   17  O   UNL     1     -12.601  14.120  63.518  1.00  0.00    -0.834 OA 
BRANCH  16  18
HETATM   18  C   UNL     1     -11.290  15.619  64.823  1.00  0.00    -0.348 C  
HETATM   19  C   UNL     1     -10.756  15.841  66.034  1.00  0.00    -0.311 C  
BRANCH  19  20
HETATM   20  C   UNL     1     -10.070  17.075  66.452  1.00  0.00    -0.325 A  
HETATM   21  C   UNL     1      -9.049  17.082  67.420  1.00  0.00    -0.225 A  
HETATM   22  C   UNL     1      -8.491  18.287  67.859  1.00  0.00    -0.254 A  
HETATM   23  C   UNL     1     -10.521  18.298  65.931  1.00  0.00    -0.324 A  
HETATM   24  C   UNL     1      -8.962  19.486  67.317  1.00  0.00    -0.306 A  
HETATM   25  H   UNL     1      -8.770  21.498  67.370  1.00  0.00     0.000 HD 
HETATM   26  O   UNL     1      -8.449  20.683  67.738  1.00  0.00    -0.171 OA 
HETATM   27  C   UNL     1      -9.964  19.504  66.357  1.00  0.00    -0.532 A  
BRANCH  22  28
HETATM   28  O   UNL     1      -7.511  18.422  68.806  1.00  0.00    -0.286 OA 
HETATM   29  C   UNL     1      -6.245  17.847  68.507  1.00  0.00    -0.189 C  
ENDBRANCH  22  28
ENDBRANCH  19  20
ENDBRANCH  16  18
ENDBRANCH  15  16
ENDBRANCH  13  15
ENDBRANCH  12  13
ENDBRANCH   5  11
ENDBRANCH   2   3
TORSDOF 8
ENDMDL
MODEL      110
REMARK 921   NORMALIZED FREE ENERGY PREDICTED BY IDOCK:   -5.03 KCAL/MOL
REMARK 922        TOTAL FREE ENERGY PREDICTED BY IDOCK:   -8.93 KCAL/MOL
REMARK 923 INTER-LIGAND FREE ENERGY PREDICTED BY IDOCK:   -7.48 KCAL/MOL
REMARK 924 INTRA-LIGAND FREE ENERGY PREDICTED BY IDOCK:   -1.45 KCAL/MOL
REMARK 927      BINDING AFFINITY PREDICTED BY RF-SCORE:    0.00 PKD
ROOT
HETATM    1  C   UNL     1     -12.802  12.410  71.550  1.00  0.00    -0.274 C  
HETATM    2  O   UNL     1     -13.150  11.132  71.025  1.00  0.00    -0.292 OA 
ENDROOT
BRANCH   2   3
HETATM    3  C   UNL     1     -12.182  10.167  71.155  1.00  0.00    -0.389 A  
HETATM    4  C   UNL     1     -10.966  10.205  70.466  1.00  0.00    -0.380 A  
HETATM    5  C   UNL     1     -10.023   9.177  70.597  1.00  0.00    -0.307 A  
HETATM    6  C   UNL     1     -10.277   8.144  71.507  1.00  0.00    -0.261 A  
HETATM    7  H   UNL     1     -13.764   8.366  73.349  1.00  0.00     0.000 HD 
HETATM    8  O   UNL     1     -13.602   9.077  72.740  1.00  0.00    -0.433 OA 
HETATM    9  C   UNL     1     -11.471   8.115  72.236  1.00  0.00    -0.435 A  
HETATM   10  C   UNL     1     -12.420   9.121  72.051  1.00  0.00    -0.382 A  
BRANCH   5  11
HETATM   11  C   UNL     1      -8.769   9.182  69.830  1.00  0.00    -0.155 C  
HETATM   12  C   UNL     1      -7.601   9.626  70.323  1.00  0.00    -0.175 C  
BRANCH  12  13
HETATM   13  C   UNL     1      -6.368   9.625  69.484  1.00  0.00    -0.044 C  
HETATM   14  O   UNL     1      -5.984   8.603  68.915  1.00  0.00    -0.042 OA 
BRANCH  13  15
HETATM   15  C   UNL     1      -5.621  10.921  69.338  1.00  0.00    -0.041 C  
BRANCH  15  16
HETATM   16  C   UNL     1      -6.529  12.106  69.163  1.00  0.00    -0.099 C  
HETATM   17  O   UNL     1      -6.389  13.119  69.848  1.00  0.00    -0.114 OA 
BRANCH  16  18
HETATM   18  C   UNL     1      -7.567  12.023  68.094  1.00  0.00    -0.120 C  
HETATM   19  C   UNL     1      -8.817  12.442  68.348  1.00  0.00    -0.129 C  
BRANCH  19  20
HETATM   20  C   UNL     1      -9.924  12.466  67.378  1.00  0.00    -0.203 A  
HETATM   21  C   UNL     1      -9.871  11.780  66.151  1.00  0.00    -0.254 A  
HETATM   22  C   UNL     1     -10.903  11.909  65.217  1.00  0.00    -0.297 A  
HETATM   23  C   UNL     1     -11.032  13.284  67.652  1.00  0.00    -0.281 A  
HETATM   24  C   UNL     1     -11.992  12.729  65.523  1.00  0.00    -0.449 A  
HETATM   25  H   UNL     1     -13.751  13.448  64.831  1.00  0.00     0.000 HD 
HETATM   26  O   UNL     1     -13.011  12.891  64.623  1.00  0.00    -0.734 OA 
HETATM   27  C   UNL     1     -12.070  13.412  66.729  1.00  0.00    -0.419 A  
BRANCH  22  28
HETATM   28  O   UNL     1     -10.954  11.310  63.986  1.00  0.00    -0.377 OA 
HETATM   29  C   UNL     1      -9.879  11.579  63.095  1.00  0.00    -0.390 C  
ENDBRANCH  22  28
ENDBRANCH  19  20
ENDBRANCH  16  18
ENDBRANCH  15  16
ENDBRANCH  13  15
ENDBRANCH  12  13
ENDBRANCH   5  11
ENDBRANCH   2   3
TORSDOF 8
ENDMDL
MODEL      111
REMARK 921   NORMALIZED FREE ENERGY PREDICTED BY IDOCK:   -5.02 KCAL/MOL
REMARK 922        TOTAL FREE ENERGY PREDICTED BY IDOCK:   -8.92 KCAL/MOL
REMARK 923 INTER-LIGAND FREE ENERGY PREDICTED BY IDOCK:   -8.26 KCAL/MOL
REMARK 924 INTRA-LIGAND FREE ENERGY PREDICTED BY IDOCK:   -0.66 KCAL/MOL
REMARK 927      BINDING AFFINITY PREDICTED BY RF-SCORE:    0.00 PKD
ROOT
HETATM    1  C   UNL     1     -14.213   8.406  71.999  1.00  0.00    -0.444 C  
HETATM    2  O   UNL     1     -13.125   9.113  72.588  1.00  0.00    -0.415 OA 
ENDROOT
BRANCH   2   3
HETATM    3  C   UNL     1     -12.091   9.404  71.733  1.00  0.00    -0.382 A  
HETATM    4  C   UNL     1     -12.227  10.249  70.627  1.00  0.00    -0.422 A  
HETATM    5  C   UNL     1     -11.155  10.486  69.756  1.00  0.00    -0.354 A  
HETATM    6  C   UNL     1      -9.906   9.933  70.062  1.00  0.00    -0.291 A  
HETATM    7  H   UNL     1      -9.835   7.660  73.291  1.00  0.00     0.000 HD 
HETATM    8  O   UNL     1     -10.687   8.034  73.100  1.00  0.00    -0.332 OA 
HETATM    9  C   UNL     1      -9.744   9.120  71.189  1.00  0.00    -0.360 A  
HETATM   10  C   UNL     1     -10.837   8.854  72.014  1.00  0.00    -0.334 A  
BRANCH   5  11
HETATM   11  C   UNL     1     -11.309  11.325  68.559  1.00  0.00    -0.341 C  
HETATM   12  C   UNL     1     -11.114  12.655  68.556  1.00  0.00    -0.300 C  
BRANCH  12  13
HETATM   13  C   UNL     1     -11.308  13.452  67.312  1.00  0.00    -0.319 C  
HETATM   14  O   UNL     1     -12.380  14.009  67.071  1.00  0.00    -0.397 OA 
BRANCH  13  15
HETATM   15  C   UNL     1     -10.142  13.574  66.370  1.00  0.00    -0.294 C  
BRANCH  15  16
HETATM   16  C   UNL     1      -8.823  13.686  67.081  1.00  0.00    -0.230 C  
HETATM   17  O   UNL     1      -8.224  12.683  67.469  1.00  0.00    -0.156 OA 
BRANCH  16  18
HETATM   18  C   UNL     1      -8.247  15.053  67.247  1.00  0.00    -0.236 C  
HETATM   19  C   UNL     1      -8.625  16.038  66.417  1.00  0.00    -0.369 C  
BRANCH  19  20
HETATM   20  C   UNL     1      -8.180  17.439  66.494  1.00  0.00    -0.311 A  
HETATM   21  C   UNL     1      -7.176  17.962  65.659  1.00  0.00    -0.048 A  
HETATM   22  C   UNL     1      -6.716  19.271  65.832  1.00  0.00    -0.248 A  
HETATM   23  C   UNL     1      -8.716  18.254  67.505  1.00  0.00    -0.256 A  
HETATM   24  C   UNL     1      -7.273  20.054  66.846  1.00  0.00    -0.238 A  
HETATM   25  H   UNL     1      -7.211  21.866  67.742  1.00  0.00     0.000 HD 
HETATM   26  O   UNL     1      -6.832  21.334  67.052  1.00  0.00    -0.450 OA 
HETATM   27  C   UNL     1      -8.269  19.563  67.678  1.00  0.00    -0.332 A  
BRANCH  22  28
HETATM   28  O   UNL     1      -5.734  19.882  65.098  1.00  0.00    -0.167 OA 
HETATM   29  C   UNL     1      -6.000  20.093  63.717  1.00  0.00    -0.231 C  
ENDBRANCH  22  28
ENDBRANCH  19  20
ENDBRANCH  16  18
ENDBRANCH  15  16
ENDBRANCH  13  15
ENDBRANCH  12  13
ENDBRANCH   5  11
ENDBRANCH   2   3
TORSDOF 8
ENDMDL
MODEL      112
REMARK 921   NORMALIZED FREE ENERGY PREDICTED BY IDOCK:   -5.02 KCAL/MOL
REMARK 922        TOTAL FREE ENERGY PREDICTED BY IDOCK:   -8.91 KCAL/MOL
REMARK 923 INTER-LIGAND FREE ENERGY PREDICTED BY IDOCK:   -7.75 KCAL/MOL
REMARK 924 INTRA-LIGAND FREE ENERGY PREDICTED BY IDOCK:   -1.16 KCAL/MOL
REMARK 927      BINDING AFFINITY PREDICTED BY RF-SCORE:    0.00 PKD
ROOT
HETATM    1  C   UNL     1     -14.389   8.385  72.078  1.00  0.00    -0.464 C  
HETATM    2  O   UNL     1     -13.340   9.176  72.630  1.00  0.00    -0.454 OA 
ENDROOT
BRANCH   2   3
HETATM    3  C   UNL     1     -12.394   9.596  71.728  1.00  0.00    -0.392 A  
HETATM    4  C   UNL     1     -12.620  10.619  70.801  1.00  0.00    -0.479 A  
HETATM    5  C   UNL     1     -11.640  10.987  69.871  1.00  0.00    -0.416 A  
HETATM    6  C   UNL     1     -10.383  10.374  69.939  1.00  0.00    -0.231 A  
HETATM    7  H   UNL     1     -10.041   7.582  72.713  1.00  0.00     0.000 HD 
HETATM    8  O   UNL     1     -10.897   7.994  72.682  1.00  0.00    -0.319 OA 
HETATM    9  C   UNL     1     -10.128   9.379  70.889  1.00  0.00    -0.366 A  
HETATM   10  C   UNL     1     -11.135   8.989  71.773  1.00  0.00    -0.374 A  
BRANCH   5  11
HETATM   11  C   UNL     1     -11.892  12.020  68.855  1.00  0.00    -0.356 C  
HETATM   12  C   UNL     1     -11.110  13.100  68.686  1.00  0.00    -0.304 C  
BRANCH  12  13
HETATM   13  C   UNL     1     -11.434  14.123  67.652  1.00  0.00    -0.338 C  
HETATM   14  O   UNL     1     -12.118  15.111  67.924  1.00  0.00    -0.174 OA 
BRANCH  13  15
HETATM   15  C   UNL     1     -10.879  13.921  66.270  1.00  0.00    -0.290 C  
BRANCH  15  16
HETATM   16  C   UNL     1     -11.297  12.615  65.655  1.00  0.00    -0.322 C  
HETATM   17  O   UNL     1     -12.483  12.364  65.443  1.00  0.00    -0.637 OA 
BRANCH  16  18
HETATM   18  C   UNL     1     -10.215  11.663  65.264  1.00  0.00    -0.316 C  
HETATM   19  C   UNL     1     -10.198  10.428  65.788  1.00  0.00    -0.305 C  
BRANCH  19  20
HETATM   20  C   UNL     1      -9.226   9.372  65.456  1.00  0.00    -0.292 A  
HETATM   21  C   UNL     1      -8.226   9.544  64.481  1.00  0.00    -0.152 A  
HETATM   22  C   UNL     1      -7.385   8.483  64.128  1.00  0.00    -0.103 A  
HETATM   23  C   UNL     1      -9.368   8.118  66.071  1.00  0.00    -0.184 A  
HETATM   24  C   UNL     1      -7.553   7.249  64.762  1.00  0.00    -0.104 A  
HETATM   25  H   UNL     1      -6.872   5.348  64.858  1.00  0.00     0.000 HD 
HETATM   26  O   UNL     1      -6.759   6.186  64.427  1.00  0.00    -0.040 OA 
HETATM   27  C   UNL     1      -8.529   7.057  65.730  1.00  0.00    -0.154 A  
BRANCH  22  28
HETATM   28  O   UNL     1      -6.393   8.522  63.184  1.00  0.00    -0.085 OA 
HETATM   29  C   UNL     1      -5.759   9.777  62.972  1.00  0.00    -0.096 C  
ENDBRANCH  22  28
ENDBRANCH  19  20
ENDBRANCH  16  18
ENDBRANCH  15  16
ENDBRANCH  13  15
ENDBRANCH  12  13
ENDBRANCH   5  11
ENDBRANCH   2   3
TORSDOF 8
ENDMDL
MODEL      113
REMARK 921   NORMALIZED FREE ENERGY PREDICTED BY IDOCK:   -5.02 KCAL/MOL
REMARK 922        TOTAL FREE ENERGY PREDICTED BY IDOCK:   -8.91 KCAL/MOL
REMARK 923 INTER-LIGAND FREE ENERGY PREDICTED BY IDOCK:   -7.98 KCAL/MOL
REMARK 924 INTRA-LIGAND FREE ENERGY PREDICTED BY IDOCK:   -0.93 KCAL/MOL
REMARK 927      BINDING AFFINITY PREDICTED BY RF-SCORE:    0.00 PKD
ROOT
HETATM    1  C   UNL     1     -10.844  16.085  69.376  1.00  0.00    -0.300 C  
HETATM    2  O   UNL     1     -12.000  15.515  68.769  1.00  0.00    -0.336 OA 
ENDROOT
BRANCH   2   3
HETATM    3  C   UNL     1     -11.887  14.188  68.435  1.00  0.00    -0.353 A  
HETATM    4  C   UNL     1     -12.015  13.151  69.363  1.00  0.00    -0.347 A  
HETATM    5  C   UNL     1     -11.851  11.812  68.986  1.00  0.00    -0.379 A  
HETATM    6  C   UNL     1     -11.643  11.515  67.634  1.00  0.00    -0.320 A  
HETATM    7  H   UNL     1     -11.404  14.660  65.256  1.00  0.00     0.000 HD 
HETATM    8  O   UNL     1     -11.552  14.876  66.169  1.00  0.00    -0.324 OA 
HETATM    9  C   UNL     1     -11.555  12.540  66.686  1.00  0.00    -0.442 A  
HETATM   10  C   UNL     1     -11.669  13.870  67.091  1.00  0.00    -0.388 A  
BRANCH   5  11
HETATM   11  C   UNL     1     -11.925  10.721  69.969  1.00  0.00    -0.427 C  
HETATM   12  C   UNL     1     -12.829  10.680  70.963  1.00  0.00    -0.496 C  
BRANCH  12  13
HETATM   13  C   UNL     1     -12.837   9.556  71.942  1.00  0.00    -0.420 C  
HETATM   14  O   UNL     1     -13.818   9.334  72.652  1.00  0.00    -0.449 OA 
BRANCH  13  15
HETATM   15  C   UNL     1     -11.613   8.686  72.018  1.00  0.00    -0.440 C  
BRANCH  15  16
HETATM   16  C   UNL     1     -11.783   7.370  71.313  1.00  0.00    -0.289 C  
HETATM   17  O   UNL     1     -12.484   6.480  71.793  1.00  0.00    -0.345 OA 
BRANCH  16  18
HETATM   18  C   UNL     1     -11.115   7.210  69.988  1.00  0.00    -0.288 C  
HETATM   19  C   UNL     1     -10.636   6.009  69.628  1.00  0.00    -0.367 C  
BRANCH  19  20
HETATM   20  C   UNL     1     -10.002   5.694  68.337  1.00  0.00    -0.201 A  
HETATM   21  C   UNL     1      -9.477   6.686  67.489  1.00  0.00    -0.135 A  
HETATM   22  C   UNL     1      -8.971   6.353  66.228  1.00  0.00    -0.156 A  
HETATM   23  C   UNL     1     -10.010   4.360  67.898  1.00  0.00    -0.087 A  
HETATM   24  C   UNL     1      -8.993   5.015  65.825  1.00  0.00    -0.145 A  
HETATM   25  H   UNL     1      -8.537   3.749  64.316  1.00  0.00     0.000 HD 
HETATM   26  O   UNL     1      -8.522   4.658  64.590  1.00  0.00    -0.122 OA 
HETATM   27  C   UNL     1      -9.501   4.018  66.645  1.00  0.00    -0.214 A  
BRANCH  22  28
HETATM   28  O   UNL     1      -8.455   7.229  65.311  1.00  0.00    -0.133 OA 
HETATM   29  C   UNL     1      -7.289   7.947  65.694  1.00  0.00    -0.079 C  
ENDBRANCH  22  28
ENDBRANCH  19  20
ENDBRANCH  16  18
ENDBRANCH  15  16
ENDBRANCH  13  15
ENDBRANCH  12  13
ENDBRANCH   5  11
ENDBRANCH   2   3
TORSDOF 8
ENDMDL
MODEL      114
REMARK 921   NORMALIZED FREE ENERGY PREDICTED BY IDOCK:   -4.99 KCAL/MOL
REMARK 922        TOTAL FREE ENERGY PREDICTED BY IDOCK:   -8.88 KCAL/MOL
REMARK 923 INTER-LIGAND FREE ENERGY PREDICTED BY IDOCK:   -7.86 KCAL/MOL
REMARK 924 INTRA-LIGAND FREE ENERGY PREDICTED BY IDOCK:   -1.02 KCAL/MOL
REMARK 927      BINDING AFFINITY PREDICTED BY RF-SCORE:    0.00 PKD
ROOT
HETATM    1  C   UNL     1      -9.111   4.189  64.217  1.00  0.00    -0.147 C  
HETATM    2  O   UNL     1      -8.468   4.388  65.473  1.00  0.00    -0.113 OA 
ENDROOT
BRANCH   2   3
HETATM    3  C   UNL     1      -9.111   5.252  66.324  1.00  0.00    -0.139 A  
HETATM    4  C   UNL     1      -9.236   6.622  66.075  1.00  0.00    -0.068 A  
HETATM    5  C   UNL     1      -9.865   7.474  66.992  1.00  0.00    -0.280 A  
HETATM    6  C   UNL     1     -10.455   6.917  68.133  1.00  0.00    -0.243 A  
HETATM    7  H   UNL     1      -9.992   3.012  68.508  1.00  0.00     0.000 HD 
HETATM    8  O   UNL     1      -9.593   3.376  67.726  1.00  0.00    -0.200 OA 
HETATM    9  C   UNL     1     -10.375   5.541  68.375  1.00  0.00    -0.243 A  
HETATM   10  C   UNL     1      -9.698   4.717  67.475  1.00  0.00    -0.171 A  
BRANCH   5  11
HETATM   11  C   UNL     1      -9.946   8.925  66.764  1.00  0.00    -0.338 C  
HETATM   12  C   UNL     1      -9.289   9.557  65.776  1.00  0.00    -0.293 C  
BRANCH  12  13
HETATM   13  C   UNL     1      -9.396  11.034  65.612  1.00  0.00    -0.214 C  
HETATM   14  O   UNL     1      -8.567  11.794  66.114  1.00  0.00    -0.125 OA 
BRANCH  13  15
HETATM   15  C   UNL     1     -10.538  11.566  64.792  1.00  0.00    -0.362 C  
BRANCH  15  16
HETATM   16  C   UNL     1     -11.197  12.767  65.413  1.00  0.00    -0.292 C  
HETATM   17  O   UNL     1     -11.284  13.830  64.799  1.00  0.00    -0.337 OA 
BRANCH  16  18
HETATM   18  C   UNL     1     -11.784  12.600  66.775  1.00  0.00    -0.460 C  
HETATM   19  C   UNL     1     -11.311  13.330  67.796  1.00  0.00    -0.327 C  
BRANCH  19  20
HETATM   20  C   UNL     1     -11.826  13.307  69.175  1.00  0.00    -0.378 A  
HETATM   21  C   UNL     1     -12.011  12.113  69.894  1.00  0.00    -0.380 A  
HETATM   22  C   UNL     1     -12.594  12.129  71.165  1.00  0.00    -0.260 A  
HETATM   23  C   UNL     1     -12.236  14.519  69.754  1.00  0.00    -0.360 A  
HETATM   24  C   UNL     1     -12.988  13.353  71.712  1.00  0.00    -0.342 A  
HETATM   25  H   UNL     1     -13.845  14.233  73.318  1.00  0.00     0.000 HD 
HETATM   26  O   UNL     1     -13.577  13.401  72.946  1.00  0.00    -0.608 OA 
HETATM   27  C   UNL     1     -12.811  14.545  71.024  1.00  0.00    -0.418 A  
BRANCH  22  28
HETATM   28  O   UNL     1     -12.843  11.034  71.950  1.00  0.00    -0.416 OA 
HETATM   29  C   UNL     1     -13.400   9.895  71.306  1.00  0.00    -0.342 C  
ENDBRANCH  22  28
ENDBRANCH  19  20
ENDBRANCH  16  18
ENDBRANCH  15  16
ENDBRANCH  13  15
ENDBRANCH  12  13
ENDBRANCH   5  11
ENDBRANCH   2   3
TORSDOF 8
ENDMDL
MODEL      115
REMARK 921   NORMALIZED FREE ENERGY PREDICTED BY IDOCK:   -4.99 KCAL/MOL
REMARK 922        TOTAL FREE ENERGY PREDICTED BY IDOCK:   -8.87 KCAL/MOL
REMARK 923 INTER-LIGAND FREE ENERGY PREDICTED BY IDOCK:   -7.44 KCAL/MOL
REMARK 924 INTRA-LIGAND FREE ENERGY PREDICTED BY IDOCK:   -1.43 KCAL/MOL
REMARK 927      BINDING AFFINITY PREDICTED BY RF-SCORE:    0.00 PKD
ROOT
HETATM    1  C   UNL     1     -13.062  12.521  71.361  1.00  0.00    -0.210 C  
HETATM    2  O   UNL     1     -13.326  11.368  72.155  1.00  0.00    -0.469 OA 
ENDROOT
BRANCH   2   3
HETATM    3  C   UNL     1     -12.760  10.204  71.697  1.00  0.00    -0.447 A  
HETATM    4  C   UNL     1     -11.664  10.176  70.829  1.00  0.00    -0.446 A  
HETATM    5  C   UNL     1     -11.144   8.966  70.352  1.00  0.00    -0.270 A  
HETATM    6  C   UNL     1     -11.685   7.766  70.833  1.00  0.00    -0.281 A  
HETATM    7  H   UNL     1     -14.719   8.187  73.326  1.00  0.00     0.000 HD 
HETATM    8  O   UNL     1     -14.358   9.009  73.014  1.00  0.00    -0.462 OA 
HETATM    9  C   UNL     1     -12.754   7.779  71.735  1.00  0.00    -0.354 A  
HETATM   10  C   UNL     1     -13.292   8.995  72.156  1.00  0.00    -0.455 A  
BRANCH   5  11
HETATM   11  C   UNL     1     -10.031   8.931  69.393  1.00  0.00    -0.192 C  
HETATM   12  C   UNL     1     -10.066   8.238  68.242  1.00  0.00    -0.231 C  
BRANCH  12  13
HETATM   13  C   UNL     1      -8.893   8.225  67.322  1.00  0.00    -0.130 C  
HETATM   14  O   UNL     1      -7.761   7.970  67.734  1.00  0.00    -0.106 OA 
BRANCH  13  15
HETATM   15  C   UNL     1      -9.143   8.513  65.868  1.00  0.00    -0.237 C  
BRANCH  15  16
HETATM   16  C   UNL     1      -8.586   9.837  65.427  1.00  0.00    -0.149 C  
HETATM   17  O   UNL     1      -7.547   9.902  64.771  1.00  0.00    -0.128 OA 
BRANCH  16  18
HETATM   18  C   UNL     1      -9.371  11.060  65.770  1.00  0.00    -0.236 C  
HETATM   19  C   UNL     1      -8.947  11.866  66.756  1.00  0.00    -0.196 C  
BRANCH  19  20
HETATM   20  C   UNL     1      -9.589  13.126  67.166  1.00  0.00    -0.235 A  
HETATM   21  C   UNL     1      -9.326  14.351  66.529  1.00  0.00    -0.300 A  
HETATM   22  C   UNL     1      -9.883  15.540  67.012  1.00  0.00    -0.232 A  
HETATM   23  C   UNL     1     -10.421  13.112  68.297  1.00  0.00    -0.258 A  
HETATM   24  C   UNL     1     -10.708  15.489  68.139  1.00  0.00    -0.282 A  
HETATM   25  H   UNL     1     -11.815  16.603  69.412  1.00  0.00     0.000 HD 
HETATM   26  O   UNL     1     -11.254  16.637  68.647  1.00  0.00    -0.328 OA 
HETATM   27  C   UNL     1     -10.987  14.292  68.781  1.00  0.00    -0.271 A  
BRANCH  22  28
HETATM   28  O   UNL     1      -9.685  16.791  66.491  1.00  0.00    -0.255 OA 
HETATM   29  C   UNL     1      -8.338  17.226  66.357  1.00  0.00    -0.280 C  
ENDBRANCH  22  28
ENDBRANCH  19  20
ENDBRANCH  16  18
ENDBRANCH  15  16
ENDBRANCH  13  15
ENDBRANCH  12  13
ENDBRANCH   5  11
ENDBRANCH   2   3
TORSDOF 8
ENDMDL
MODEL      116
REMARK 921   NORMALIZED FREE ENERGY PREDICTED BY IDOCK:   -4.98 KCAL/MOL
REMARK 922        TOTAL FREE ENERGY PREDICTED BY IDOCK:   -8.85 KCAL/MOL
REMARK 923 INTER-LIGAND FREE ENERGY PREDICTED BY IDOCK:   -7.29 KCAL/MOL
REMARK 924 INTRA-LIGAND FREE ENERGY PREDICTED BY IDOCK:   -1.56 KCAL/MOL
REMARK 927      BINDING AFFINITY PREDICTED BY RF-SCORE:    0.00 PKD
ROOT
HETATM    1  C   UNL     1      -8.819  19.026  66.485  1.00  0.00    -0.327 C  
HETATM    2  O   UNL     1      -7.478  19.358  66.833  1.00  0.00    -0.217 OA 
ENDROOT
BRANCH   2   3
HETATM    3  C   UNL     1      -6.931  18.594  67.834  1.00  0.00    -0.221 A  
HETATM    4  C   UNL     1      -6.836  17.201  67.768  1.00  0.00    -0.165 A  
HETATM    5  C   UNL     1      -6.309  16.456  68.831  1.00  0.00    -0.150 A  
HETATM    6  C   UNL     1      -5.787  17.139  69.937  1.00  0.00    -0.236 A  
HETATM    7  H   UNL     1      -6.139  21.070  69.783  1.00  0.00     0.000 HD 
HETATM    8  O   UNL     1      -6.491  20.621  69.024  1.00  0.00    -0.244 OA 
HETATM    9  C   UNL     1      -5.836  18.536  69.997  1.00  0.00    -0.223 A  
HETATM   10  C   UNL     1      -6.414  19.256  68.951  1.00  0.00    -0.274 A  
BRANCH   5  11
HETATM   11  C   UNL     1      -6.262  14.987  68.793  1.00  0.00    -0.083 C  
HETATM   12  C   UNL     1      -6.154  14.221  69.892  1.00  0.00    -0.141 C  
BRANCH  12  13
HETATM   13  C   UNL     1      -6.088  12.736  69.783  1.00  0.00    -0.131 C  
HETATM   14  O   UNL     1      -6.281  12.015  70.763  1.00  0.00    -0.236 OA 
BRANCH  13  15
HETATM   15  C   UNL     1      -5.802  12.145  68.431  1.00  0.00    -0.053 C  
BRANCH  15  16
HETATM   16  C   UNL     1      -6.994  11.459  67.825  1.00  0.00    -0.076 C  
HETATM   17  O   UNL     1      -7.316  10.323  68.172  1.00  0.00    -0.083 OA 
BRANCH  16  18
HETATM   18  C   UNL     1      -7.797  12.230  66.831  1.00  0.00    -0.045 C  
HETATM   19  C   UNL     1      -8.857  12.942  67.244  1.00  0.00    -0.206 C  
BRANCH  19  20
HETATM   20  C   UNL     1      -9.706  13.787  66.387  1.00  0.00    -0.304 A  
HETATM   21  C   UNL     1     -10.716  13.256  65.564  1.00  0.00    -0.299 A  
HETATM   22  C   UNL     1     -11.434  14.083  64.693  1.00  0.00    -0.383 A  
HETATM   23  C   UNL     1      -9.428  15.162  66.321  1.00  0.00    -0.341 A  
HETATM   24  C   UNL     1     -11.132  15.447  64.656  1.00  0.00    -0.347 A  
HETATM   25  H   UNL     1     -11.600  17.207  63.777  1.00  0.00     0.000 HD 
HETATM   26  O   UNL     1     -11.804  16.279  63.802  1.00  0.00    -0.955 OA 
HETATM   27  C   UNL     1     -10.144  15.995  65.462  1.00  0.00    -0.336 A  
BRANCH  22  28
HETATM   28  O   UNL     1     -12.421  13.681  63.834  1.00  0.00    -0.680 OA 
HETATM   29  C   UNL     1     -12.492  12.291  63.541  1.00  0.00    -0.534 C  
ENDBRANCH  22  28
ENDBRANCH  19  20
ENDBRANCH  16  18
ENDBRANCH  15  16
ENDBRANCH  13  15
ENDBRANCH  12  13
ENDBRANCH   5  11
ENDBRANCH   2   3
TORSDOF 8
ENDMDL
MODEL      117
REMARK 921   NORMALIZED FREE ENERGY PREDICTED BY IDOCK:   -4.96 KCAL/MOL
REMARK 922        TOTAL FREE ENERGY PREDICTED BY IDOCK:   -8.82 KCAL/MOL
REMARK 923 INTER-LIGAND FREE ENERGY PREDICTED BY IDOCK:   -8.15 KCAL/MOL
REMARK 924 INTRA-LIGAND FREE ENERGY PREDICTED BY IDOCK:   -0.67 KCAL/MOL
REMARK 927      BINDING AFFINITY PREDICTED BY RF-SCORE:    0.00 PKD
ROOT
HETATM    1  C   UNL     1     -11.271   6.412  69.634  1.00  0.00    -0.418 C  
HETATM    2  O   UNL     1     -10.919   5.752  68.421  1.00  0.00    -0.233 OA 
ENDROOT
BRANCH   2   3
HETATM    3  C   UNL     1     -10.197   6.512  67.535  1.00  0.00    -0.176 A  
HETATM    4  C   UNL     1     -10.483   7.855  67.268  1.00  0.00    -0.390 A  
HETATM    5  C   UNL     1      -9.746   8.582  66.324  1.00  0.00    -0.300 A  
HETATM    6  C   UNL     1      -8.647   7.967  65.711  1.00  0.00    -0.174 A  
HETATM    7  H   UNL     1      -8.060   4.198  66.736  1.00  0.00     0.000 HD 
HETATM    8  O   UNL     1      -8.804   4.604  67.165  1.00  0.00    -0.107 OA 
HETATM    9  C   UNL     1      -8.322   6.637  66.001  1.00  0.00    -0.134 A  
HETATM   10  C   UNL     1      -9.102   5.915  66.904  1.00  0.00    -0.120 A  
BRANCH   5  11
HETATM   11  C   UNL     1     -10.079   9.975  65.995  1.00  0.00    -0.318 C  
HETATM   12  C   UNL     1     -10.128  10.447  64.737  1.00  0.00    -0.387 C  
BRANCH  12  13
HETATM   13  C   UNL     1     -10.451  11.878  64.471  1.00  0.00    -0.296 C  
HETATM   14  O   UNL     1     -10.392  12.345  63.333  1.00  0.00    -0.413 OA 
BRANCH  13  15
HETATM   15  C   UNL     1     -10.874  12.728  65.637  1.00  0.00    -0.300 C  
BRANCH  15  16
HETATM   16  C   UNL     1     -11.451  14.051  65.219  1.00  0.00    -0.322 C  
HETATM   17  O   UNL     1     -12.631  14.151  64.883  1.00  0.00    -0.587 OA 
BRANCH  16  18
HETATM   18  C   UNL     1     -10.553  15.242  65.281  1.00  0.00    -0.438 C  
HETATM   19  C   UNL     1     -10.744  16.168  66.233  1.00  0.00    -0.213 C  
BRANCH  19  20
HETATM   20  C   UNL     1      -9.908  17.362  66.445  1.00  0.00    -0.311 A  
HETATM   21  C   UNL     1      -8.538  17.281  66.752  1.00  0.00    -0.275 A  
HETATM   22  C   UNL     1      -7.803  18.436  67.041  1.00  0.00    -0.227 A  
HETATM   23  C   UNL     1     -10.529  18.622  66.432  1.00  0.00    -0.463 A  
HETATM   24  C   UNL     1      -8.452  19.673  67.017  1.00  0.00    -0.310 A  
HETATM   25  H   UNL     1      -8.206  21.660  67.296  1.00  0.00     0.000 HD 
HETATM   26  O   UNL     1      -7.765  20.819  67.313  1.00  0.00    -0.348 OA 
HETATM   27  C   UNL     1      -9.802  19.778  66.712  1.00  0.00    -0.528 A  
BRANCH  22  28
HETATM   28  O   UNL     1      -6.474  18.482  67.372  1.00  0.00    -0.191 OA 
HETATM   29  C   UNL     1      -5.626  17.519  66.758  1.00  0.00    -0.172 C  
ENDBRANCH  22  28
ENDBRANCH  19  20
ENDBRANCH  16  18
ENDBRANCH  15  16
ENDBRANCH  13  15
ENDBRANCH  12  13
ENDBRANCH   5  11
ENDBRANCH   2   3
TORSDOF 8
ENDMDL
MODEL      118
REMARK 921   NORMALIZED FREE ENERGY PREDICTED BY IDOCK:   -4.95 KCAL/MOL
REMARK 922        TOTAL FREE ENERGY PREDICTED BY IDOCK:   -8.82 KCAL/MOL
REMARK 923 INTER-LIGAND FREE ENERGY PREDICTED BY IDOCK:   -8.60 KCAL/MOL
REMARK 924 INTRA-LIGAND FREE ENERGY PREDICTED BY IDOCK:   -0.21 KCAL/MOL
REMARK 927      BINDING AFFINITY PREDICTED BY RF-SCORE:    0.00 PKD
ROOT
HETATM    1  C   UNL     1      -6.660  16.294  69.575  1.00  0.00    -0.202 C  
HETATM    2  O   UNL     1      -6.905  17.626  69.130  1.00  0.00    -0.248 OA 
ENDROOT
BRANCH   2   3
HETATM    3  C   UNL     1      -7.930  17.757  68.227  1.00  0.00    -0.282 A  
HETATM    4  C   UNL     1      -8.665  16.672  67.740  1.00  0.00    -0.201 A  
HETATM    5  C   UNL     1      -9.677  16.847  66.786  1.00  0.00    -0.274 A  
HETATM    6  C   UNL     1     -10.009  18.148  66.391  1.00  0.00    -0.376 A  
HETATM    7  H   UNL     1      -7.801  20.996  68.007  1.00  0.00     0.000 HD 
HETATM    8  O   UNL     1      -7.569  20.119  68.289  1.00  0.00    -0.268 OA 
HETATM    9  C   UNL     1      -9.312  19.248  66.903  1.00  0.00    -0.371 A  
HETATM   10  C   UNL     1      -8.272  19.047  67.811  1.00  0.00    -0.276 A  
BRANCH   5  11
HETATM   11  C   UNL     1     -10.411  15.704  66.225  1.00  0.00    -0.313 C  
HETATM   12  C   UNL     1     -11.466  15.132  66.831  1.00  0.00    -0.215 C  
BRANCH  12  13
HETATM   13  C   UNL     1     -12.154  13.959  66.219  1.00  0.00    -0.451 C  
HETATM   14  O   UNL     1     -13.060  14.107  65.398  1.00  0.00    -0.743 OA 
BRANCH  13  15
HETATM   15  C   UNL     1     -11.689  12.588  66.622  1.00  0.00    -0.453 C  
BRANCH  15  16
HETATM   16  C   UNL     1     -11.812  12.336  68.099  1.00  0.00    -0.311 C  
HETATM   17  O   UNL     1     -12.094  13.248  68.876  1.00  0.00    -0.316 OA 
BRANCH  16  18
HETATM   18  C   UNL     1     -11.632  10.933  68.573  1.00  0.00    -0.360 C  
HETATM   19  C   UNL     1     -11.515  10.686  69.887  1.00  0.00    -0.393 C  
BRANCH  19  20
HETATM   20  C   UNL     1     -11.384   9.353  70.499  1.00  0.00    -0.328 A  
HETATM   21  C   UNL     1     -10.870   8.247  69.799  1.00  0.00    -0.186 A  
HETATM   22  C   UNL     1     -10.855   6.977  70.386  1.00  0.00    -0.254 A  
HETATM   23  C   UNL     1     -11.882   9.165  71.798  1.00  0.00    -0.453 A  
HETATM   24  C   UNL     1     -11.355   6.826  71.682  1.00  0.00    -0.266 A  
HETATM   25  H   UNL     1     -11.711   5.491  73.158  1.00  0.00     0.000 HD 
HETATM   26  O   UNL     1     -11.370   5.594  72.277  1.00  0.00    -0.272 OA 
HETATM   27  C   UNL     1     -11.862   7.903  72.394  1.00  0.00    -0.402 A  
BRANCH  22  28
HETATM   28  O   UNL     1     -10.400   5.825  69.799  1.00  0.00    -0.213 OA 
HETATM   29  C   UNL     1     -10.651   5.671  68.408  1.00  0.00    -0.179 C  
ENDBRANCH  22  28
ENDBRANCH  19  20
ENDBRANCH  16  18
ENDBRANCH  15  16
ENDBRANCH  13  15
ENDBRANCH  12  13
ENDBRANCH   5  11
ENDBRANCH   2   3
TORSDOF 8
ENDMDL
MODEL      119
REMARK 921   NORMALIZED FREE ENERGY PREDICTED BY IDOCK:   -4.95 KCAL/MOL
REMARK 922        TOTAL FREE ENERGY PREDICTED BY IDOCK:   -8.82 KCAL/MOL
REMARK 923 INTER-LIGAND FREE ENERGY PREDICTED BY IDOCK:   -7.31 KCAL/MOL
REMARK 924 INTRA-LIGAND FREE ENERGY PREDICTED BY IDOCK:   -1.50 KCAL/MOL
REMARK 927      BINDING AFFINITY PREDICTED BY RF-SCORE:    0.00 PKD
ROOT
HETATM    1  C   UNL     1      -7.839   8.524  65.955  1.00  0.00    -0.098 C  
HETATM    2  O   UNL     1      -8.515   7.430  65.341  1.00  0.00    -0.142 OA 
ENDROOT
BRANCH   2   3
HETATM    3  C   UNL     1      -8.978   6.472  66.208  1.00  0.00    -0.156 A  
HETATM    4  C   UNL     1      -9.367   6.753  67.521  1.00  0.00    -0.129 A  
HETATM    5  C   UNL     1      -9.795   5.737  68.387  1.00  0.00    -0.174 A  
HETATM    6  C   UNL     1      -9.917   4.435  67.886  1.00  0.00    -0.087 A  
HETATM    7  H   UNL     1      -8.812   3.987  64.120  1.00  0.00     0.000 HD 
HETATM    8  O   UNL     1      -8.731   4.877  64.444  1.00  0.00    -0.147 OA 
HETATM    9  C   UNL     1      -9.572   4.147  66.561  1.00  0.00    -0.220 A  
HETATM   10  C   UNL     1      -9.098   5.163  65.732  1.00  0.00    -0.156 A  
BRANCH   5  11
HETATM   11  C   UNL     1     -10.147   6.016  69.786  1.00  0.00    -0.246 C  
HETATM   12  C   UNL     1     -11.395   6.312  70.191  1.00  0.00    -0.476 C  
BRANCH  12  13
HETATM   13  C   UNL     1     -11.682   6.608  71.623  1.00  0.00    -0.316 C  
HETATM   14  O   UNL     1     -11.790   5.705  72.453  1.00  0.00    -0.261 OA 
BRANCH  13  15
HETATM   15  C   UNL     1     -11.815   8.051  72.026  1.00  0.00    -0.376 C  
BRANCH  15  16
HETATM   16  C   UNL     1     -10.517   8.805  71.942  1.00  0.00    -0.353 C  
HETATM   17  O   UNL     1      -9.659   8.690  72.817  1.00  0.00    -0.224 OA 
BRANCH  16  18
HETATM   18  C   UNL     1     -10.293   9.650  70.733  1.00  0.00    -0.356 C  
HETATM   19  C   UNL     1     -11.339  10.026  69.981  1.00  0.00    -0.334 C  
BRANCH  19  20
HETATM   20  C   UNL     1     -11.273  10.897  68.796  1.00  0.00    -0.329 A  
HETATM   21  C   UNL     1     -11.670  12.246  68.826  1.00  0.00    -0.390 A  
HETATM   22  C   UNL     1     -11.683  13.011  67.655  1.00  0.00    -0.366 A  
HETATM   23  C   UNL     1     -10.886  10.329  67.572  1.00  0.00    -0.355 A  
HETATM   24  C   UNL     1     -11.290  12.413  66.454  1.00  0.00    -0.342 A  
HETATM   25  H   UNL     1     -11.040  12.724  64.472  1.00  0.00     0.000 HD 
HETATM   26  O   UNL     1     -11.308  13.130  65.288  1.00  0.00    -0.291 OA 
HETATM   27  C   UNL     1     -10.888  11.087  66.401  1.00  0.00    -0.253 A  
BRANCH  22  28
HETATM   28  O   UNL     1     -12.067  14.322  67.554  1.00  0.00    -0.385 OA 
HETATM   29  C   UNL     1     -11.540  15.222  68.521  1.00  0.00    -0.352 C  
ENDBRANCH  22  28
ENDBRANCH  19  20
ENDBRANCH  16  18
ENDBRANCH  15  16
ENDBRANCH  13  15
ENDBRANCH  12  13
ENDBRANCH   5  11
ENDBRANCH   2   3
TORSDOF 8
ENDMDL
MODEL      120
REMARK 921   NORMALIZED FREE ENERGY PREDICTED BY IDOCK:   -4.94 KCAL/MOL
REMARK 922        TOTAL FREE ENERGY PREDICTED BY IDOCK:   -8.80 KCAL/MOL
REMARK 923 INTER-LIGAND FREE ENERGY PREDICTED BY IDOCK:   -7.00 KCAL/MOL
REMARK 924 INTRA-LIGAND FREE ENERGY PREDICTED BY IDOCK:   -1.80 KCAL/MOL
REMARK 927      BINDING AFFINITY PREDICTED BY RF-SCORE:    0.00 PKD
ROOT
HETATM    1  C   UNL     1     -11.429  15.835  64.582  1.00  0.00    -0.282 C  
HETATM    2  O   UNL     1     -12.220  14.722  64.988  1.00  0.00    -0.342 OA 
ENDROOT
BRANCH   2   3
HETATM    3  C   UNL     1     -11.602  13.501  64.882  1.00  0.00    -0.335 A  
HETATM    4  C   UNL     1     -10.753  12.984  65.865  1.00  0.00    -0.292 A  
HETATM    5  C   UNL     1     -10.109  11.751  65.697  1.00  0.00    -0.278 A  
HETATM    6  C   UNL     1     -10.401  10.990  64.558  1.00  0.00    -0.420 A  
HETATM    7  H   UNL     1     -12.894  12.694  62.011  1.00  0.00     0.000 HD 
HETATM    8  O   UNL     1     -12.710  13.218  62.782  1.00  0.00    -0.317 OA 
HETATM    9  C   UNL     1     -11.283  11.475  63.585  1.00  0.00    -0.451 A  
HETATM   10  C   UNL     1     -11.872  12.729  63.747  1.00  0.00    -0.499 A  
BRANCH   5  11
HETATM   11  C   UNL     1      -9.168  11.231  66.700  1.00  0.00    -0.191 C  
HETATM   12  C   UNL     1      -7.981  10.684  66.387  1.00  0.00    -0.142 C  
BRANCH  12  13
HETATM   13  C   UNL     1      -7.082  10.153  67.451  1.00  0.00    -0.084 C  
HETATM   14  O   UNL     1      -6.543   9.051  67.341  1.00  0.00    -0.063 OA 
BRANCH  13  15
HETATM   15  C   UNL     1      -6.836  11.019  68.655  1.00  0.00    -0.064 C  
BRANCH  15  16
HETATM   16  C   UNL     1      -6.291  12.375  68.301  1.00  0.00    -0.057 C  
HETATM   17  O   UNL     1      -5.147  12.505  67.866  1.00  0.00    -0.070 OA 
BRANCH  16  18
HETATM   18  C   UNL     1      -7.209  13.542  68.448  1.00  0.00    -0.109 C  
HETATM   19  C   UNL     1      -7.418  14.357  67.402  1.00  0.00    -0.183 C  
BRANCH  19  20
HETATM   20  C   UNL     1      -8.332  15.512  67.387  1.00  0.00    -0.202 A  
HETATM   21  C   UNL     1      -8.121  16.633  66.565  1.00  0.00    -0.337 A  
HETATM   22  C   UNL     1      -8.959  17.749  66.653  1.00  0.00    -0.266 A  
HETATM   23  C   UNL     1      -9.400  15.528  68.298  1.00  0.00    -0.192 A  
HETATM   24  C   UNL     1     -10.014  17.731  67.569  1.00  0.00    -0.324 A  
HETATM   25  H   UNL     1     -11.558  18.802  68.315  1.00  0.00     0.000 HD 
HETATM   26  O   UNL     1     -10.841  18.814  67.692  1.00  0.00    -0.426 OA 
HETATM   27  C   UNL     1     -10.246  16.634  68.387  1.00  0.00    -0.284 A  
BRANCH  22  28
HETATM   28  O   UNL     1      -8.842  18.903  65.923  1.00  0.00    -0.460 OA 
HETATM   29  C   UNL     1      -7.813  19.805  66.308  1.00  0.00    -0.328 C  
ENDBRANCH  22  28
ENDBRANCH  19  20
ENDBRANCH  16  18
ENDBRANCH  15  16
ENDBRANCH  13  15
ENDBRANCH  12  13
ENDBRANCH   5  11
ENDBRANCH   2   3
TORSDOF 8
ENDMDL
MODEL      121
REMARK 921   NORMALIZED FREE ENERGY PREDICTED BY IDOCK:   -4.94 KCAL/MOL
REMARK 922        TOTAL FREE ENERGY PREDICTED BY IDOCK:   -8.80 KCAL/MOL
REMARK 923 INTER-LIGAND FREE ENERGY PREDICTED BY IDOCK:   -7.98 KCAL/MOL
REMARK 924 INTRA-LIGAND FREE ENERGY PREDICTED BY IDOCK:   -0.82 KCAL/MOL
REMARK 927      BINDING AFFINITY PREDICTED BY RF-SCORE:    0.00 PKD
ROOT
HETATM    1  C   UNL     1     -10.372   5.631  69.083  1.00  0.00    -0.258 C  
HETATM    2  O   UNL     1     -10.237   6.058  70.436  1.00  0.00    -0.185 OA 
ENDROOT
BRANCH   2   3
HETATM    3  C   UNL     1     -10.825   7.264  70.725  1.00  0.00    -0.241 A  
HETATM    4  C   UNL     1     -10.695   8.394  69.912  1.00  0.00    -0.227 A  
HETATM    5  C   UNL     1     -11.279   9.617  70.268  1.00  0.00    -0.324 A  
HETATM    6  C   UNL     1     -12.080   9.672  71.415  1.00  0.00    -0.472 A  
HETATM    7  H   UNL     1     -12.307   6.294  73.450  1.00  0.00     0.000 HD 
HETATM    8  O   UNL     1     -11.766   6.240  72.671  1.00  0.00    -0.228 OA 
HETATM    9  C   UNL     1     -12.255   8.537  72.215  1.00  0.00    -0.454 A  
HETATM   10  C   UNL     1     -11.621   7.343  71.872  1.00  0.00    -0.272 A  
BRANCH   5  11
HETATM   11  C   UNL     1     -11.096  10.824  69.449  1.00  0.00    -0.324 C  
HETATM   12  C   UNL     1     -11.778  11.060  68.315  1.00  0.00    -0.301 C  
BRANCH  12  13
HETATM   13  C   UNL     1     -11.529  12.294  67.516  1.00  0.00    -0.347 C  
HETATM   14  O   UNL     1     -12.048  12.455  66.411  1.00  0.00    -0.607 OA 
BRANCH  13  15
HETATM   15  C   UNL     1     -10.639  13.347  68.116  1.00  0.00    -0.255 C  
BRANCH  15  16
HETATM   16  C   UNL     1      -9.313  13.462  67.419  1.00  0.00    -0.221 C  
HETATM   17  O   UNL     1      -8.770  12.475  66.923  1.00  0.00    -0.200 OA 
BRANCH  16  18
HETATM   18  C   UNL     1      -8.712  14.823  67.307  1.00  0.00    -0.226 C  
HETATM   19  C   UNL     1      -9.513  15.894  67.191  1.00  0.00    -0.221 C  
BRANCH  19  20
HETATM   20  C   UNL     1      -9.063  17.295  67.123  1.00  0.00    -0.234 A  
HETATM   21  C   UNL     1      -7.857  17.673  66.507  1.00  0.00    -0.307 A  
HETATM   22  C   UNL     1      -7.420  19.001  66.551  1.00  0.00    -0.246 A  
HETATM   23  C   UNL     1      -9.826  18.272  67.783  1.00  0.00    -0.328 A  
HETATM   24  C   UNL     1      -8.205  19.948  67.214  1.00  0.00    -0.313 A  
HETATM   25  H   UNL     1      -8.330  21.896  67.740  1.00  0.00     0.000 HD 
HETATM   26  O   UNL     1      -7.796  21.252  67.289  1.00  0.00    -0.313 OA 
HETATM   27  C   UNL     1      -9.401  19.600  67.824  1.00  0.00    -0.427 A  
BRANCH  22  28
HETATM   28  O   UNL     1      -6.259  19.484  66.008  1.00  0.00    -0.177 OA 
HETATM   29  C   UNL     1      -5.866  18.949  64.751  1.00  0.00    -0.274 C  
ENDBRANCH  22  28
ENDBRANCH  19  20
ENDBRANCH  16  18
ENDBRANCH  15  16
ENDBRANCH  13  15
ENDBRANCH  12  13
ENDBRANCH   5  11
ENDBRANCH   2   3
TORSDOF 8
ENDMDL
MODEL      122
REMARK 921   NORMALIZED FREE ENERGY PREDICTED BY IDOCK:   -4.94 KCAL/MOL
REMARK 922        TOTAL FREE ENERGY PREDICTED BY IDOCK:   -8.80 KCAL/MOL
REMARK 923 INTER-LIGAND FREE ENERGY PREDICTED BY IDOCK:   -7.34 KCAL/MOL
REMARK 924 INTRA-LIGAND FREE ENERGY PREDICTED BY IDOCK:   -1.45 KCAL/MOL
REMARK 927      BINDING AFFINITY PREDICTED BY RF-SCORE:    0.00 PKD
ROOT
HETATM    1  C   UNL     1      -5.526  10.935  67.760  1.00  0.00    -0.039 C  
HETATM    2  O   UNL     1      -6.138  11.033  66.477  1.00  0.00    -0.106 OA 
ENDROOT
BRANCH   2   3
HETATM    3  C   UNL     1      -7.240  10.235  66.296  1.00  0.00    -0.117 A  
HETATM    4  C   UNL     1      -8.119   9.898  67.330  1.00  0.00    -0.113 A  
HETATM    5  C   UNL     1      -9.210   9.046  67.110  1.00  0.00    -0.164 A  
HETATM    6  C   UNL     1      -9.464   8.604  65.806  1.00  0.00    -0.192 A  
HETATM    7  H   UNL     1      -6.842   9.792  63.102  1.00  0.00     0.000 HD 
HETATM    8  O   UNL     1      -6.661  10.105  63.980  1.00  0.00    -0.129 OA 
HETATM    9  C   UNL     1      -8.618   8.968  64.753  1.00  0.00    -0.201 A  
HETATM   10  C   UNL     1      -7.507   9.774  65.004  1.00  0.00    -0.127 A  
BRANCH   5  11
HETATM   11  C   UNL     1     -10.102   8.640  68.206  1.00  0.00    -0.225 C  
HETATM   12  C   UNL     1      -9.858   8.913  69.499  1.00  0.00    -0.180 C  
BRANCH  12  13
HETATM   13  C   UNL     1     -10.792   8.453  70.566  1.00  0.00    -0.232 C  
HETATM   14  O   UNL     1     -11.200   7.291  70.600  1.00  0.00    -0.261 OA 
BRANCH  13  15
HETATM   15  C   UNL     1     -11.203   9.450  71.613  1.00  0.00    -0.431 C  
BRANCH  15  16
HETATM   16  C   UNL     1     -12.281  10.385  71.142  1.00  0.00    -0.394 C  
HETATM   17  O   UNL     1     -13.439  10.272  71.545  1.00  0.00    -0.329 OA 
BRANCH  16  18
HETATM   18  C   UNL     1     -11.880  11.483  70.214  1.00  0.00    -0.431 C  
HETATM   19  C   UNL     1     -12.059  11.332  68.892  1.00  0.00    -0.292 C  
BRANCH  19  20
HETATM   20  C   UNL     1     -11.759  12.347  67.868  1.00  0.00    -0.421 A  
HETATM   21  C   UNL     1     -11.294  12.011  66.583  1.00  0.00    -0.399 A  
HETATM   22  C   UNL     1     -10.928  13.009  65.674  1.00  0.00    -0.273 A  
HETATM   23  C   UNL     1     -11.851  13.702  68.224  1.00  0.00    -0.404 A  
HETATM   24  C   UNL     1     -11.035  14.347  66.062  1.00  0.00    -0.316 A  
HETATM   25  H   UNL     1     -10.740  16.256  65.464  1.00  0.00     0.000 HD 
HETATM   26  O   UNL     1     -10.668  15.346  65.201  1.00  0.00    -0.384 OA 
HETATM   27  C   UNL     1     -11.495  14.703  67.321  1.00  0.00    -0.386 A  
BRANCH  22  28
HETATM   28  O   UNL     1     -10.445  12.805  64.408  1.00  0.00    -0.346 OA 
HETATM   29  C   UNL     1     -11.326  12.192  63.476  1.00  0.00    -0.453 C  
ENDBRANCH  22  28
ENDBRANCH  19  20
ENDBRANCH  16  18
ENDBRANCH  15  16
ENDBRANCH  13  15
ENDBRANCH  12  13
ENDBRANCH   5  11
ENDBRANCH   2   3
TORSDOF 8
ENDMDL
MODEL      123
REMARK 921   NORMALIZED FREE ENERGY PREDICTED BY IDOCK:   -4.92 KCAL/MOL
REMARK 922        TOTAL FREE ENERGY PREDICTED BY IDOCK:   -8.77 KCAL/MOL
REMARK 923 INTER-LIGAND FREE ENERGY PREDICTED BY IDOCK:   -6.91 KCAL/MOL
REMARK 924 INTRA-LIGAND FREE ENERGY PREDICTED BY IDOCK:   -1.86 KCAL/MOL
REMARK 927      BINDING AFFINITY PREDICTED BY RF-SCORE:    0.00 PKD
ROOT
HETATM    1  C   UNL     1      -8.682   3.273  65.675  1.00  0.00    -0.124 C  
HETATM    2  O   UNL     1      -8.064   4.169  66.595  1.00  0.00    -0.100 OA 
ENDROOT
BRANCH   2   3
HETATM    3  C   UNL     1      -8.917   5.053  67.206  1.00  0.00    -0.113 A  
HETATM    4  C   UNL     1      -9.307   6.265  66.628  1.00  0.00    -0.167 A  
HETATM    5  C   UNL     1     -10.147   7.158  67.306  1.00  0.00    -0.278 A  
HETATM    6  C   UNL     1     -10.672   6.777  68.547  1.00  0.00    -0.280 A  
HETATM    7  H   UNL     1      -9.438   3.265  69.870  1.00  0.00     0.000 HD 
HETATM    8  O   UNL     1      -9.079   3.508  69.024  1.00  0.00    -0.113 OA 
HETATM    9  C   UNL     1     -10.325   5.548  69.119  1.00  0.00    -0.318 A  
HETATM   10  C   UNL     1      -9.444   4.697  68.451  1.00  0.00    -0.145 A  
BRANCH   5  11
HETATM   11  C   UNL     1     -10.512   8.460  66.729  1.00  0.00    -0.315 C  
HETATM   12  C   UNL     1      -9.616   9.316  66.209  1.00  0.00    -0.313 C  
BRANCH  12  13
HETATM   13  C   UNL     1     -10.049  10.633  65.659  1.00  0.00    -0.272 C  
HETATM   14  O   UNL     1      -9.543  11.095  64.636  1.00  0.00    -0.234 OA 
BRANCH  13  15
HETATM   15  C   UNL     1     -11.141  11.369  66.385  1.00  0.00    -0.301 C  
BRANCH  15  16
HETATM   16  C   UNL     1     -10.634  12.172  67.549  1.00  0.00    -0.214 C  
HETATM   17  O   UNL     1     -10.517  13.395  67.473  1.00  0.00    -0.234 OA 
BRANCH  16  18
HETATM   18  C   UNL     1     -10.331  11.436  68.811  1.00  0.00    -0.222 C  
HETATM   19  C   UNL     1     -11.244  10.599  69.327  1.00  0.00    -0.332 C  
BRANCH  19  20
HETATM   20  C   UNL     1     -11.063   9.772  70.532  1.00  0.00    -0.384 A  
HETATM   21  C   UNL     1      -9.813   9.249  70.910  1.00  0.00    -0.363 A  
HETATM   22  C   UNL     1      -9.703   8.388  72.007  1.00  0.00    -0.283 A  
HETATM   23  C   UNL     1     -12.201   9.417  71.274  1.00  0.00    -0.425 A  
HETATM   24  C   UNL     1     -10.856   8.058  72.724  1.00  0.00    -0.369 A  
HETATM   25  H   UNL     1     -11.567   6.980  74.280  1.00  0.00     0.000 HD 
HETATM   26  O   UNL     1     -10.784   7.205  73.792  1.00  0.00    -0.361 OA 
HETATM   27  C   UNL     1     -12.099   8.565  72.374  1.00  0.00    -0.436 A  
BRANCH  22  28
HETATM   28  O   UNL     1      -8.549   7.803  72.457  1.00  0.00    -0.115 OA 
HETATM   29  C   UNL     1      -7.959   6.817  71.619  1.00  0.00    -0.102 C  
ENDBRANCH  22  28
ENDBRANCH  19  20
ENDBRANCH  16  18
ENDBRANCH  15  16
ENDBRANCH  13  15
ENDBRANCH  12  13
ENDBRANCH   5  11
ENDBRANCH   2   3
TORSDOF 8
ENDMDL
MODEL      124
REMARK 921   NORMALIZED FREE ENERGY PREDICTED BY IDOCK:   -4.92 KCAL/MOL
REMARK 922        TOTAL FREE ENERGY PREDICTED BY IDOCK:   -8.77 KCAL/MOL
REMARK 923 INTER-LIGAND FREE ENERGY PREDICTED BY IDOCK:   -6.99 KCAL/MOL
REMARK 924 INTRA-LIGAND FREE ENERGY PREDICTED BY IDOCK:   -1.78 KCAL/MOL
REMARK 927      BINDING AFFINITY PREDICTED BY RF-SCORE:    0.00 PKD
ROOT
HETATM    1  C   UNL     1      -6.266   4.911  66.750  1.00  0.00    -0.032 C  
HETATM    2  O   UNL     1      -7.395   4.212  67.267  1.00  0.00    -0.067 OA 
ENDROOT
BRANCH   2   3
HETATM    3  C   UNL     1      -8.539   4.961  67.383  1.00  0.00    -0.104 A  
HETATM    4  C   UNL     1      -8.722   5.932  68.373  1.00  0.00    -0.112 A  
HETATM    5  C   UNL     1      -9.923   6.645  68.480  1.00  0.00    -0.152 A  
HETATM    6  C   UNL     1     -10.917   6.436  67.516  1.00  0.00    -0.454 A  
HETATM    7  H   UNL     1     -10.064   3.686  64.813  1.00  0.00     0.000 HD 
HETATM    8  O   UNL     1      -9.378   3.822  65.456  1.00  0.00    -0.146 OA 
HETATM    9  C   UNL     1     -10.731   5.498  66.494  1.00  0.00    -0.309 A  
HETATM   10  C   UNL     1      -9.548   4.761  66.437  1.00  0.00    -0.177 A  
BRANCH   5  11
HETATM   11  C   UNL     1     -10.144   7.623  69.555  1.00  0.00    -0.192 C  
HETATM   12  C   UNL     1     -11.344   7.848  70.117  1.00  0.00    -0.099 C  
BRANCH  12  13
HETATM   13  C   UNL     1     -11.506   8.871  71.188  1.00  0.00    -0.301 C  
HETATM   14  O   UNL     1     -10.737   8.917  72.149  1.00  0.00    -0.342 OA 
BRANCH  13  15
HETATM   15  C   UNL     1     -12.628   9.861  71.046  1.00  0.00    -0.431 C  
BRANCH  15  16
HETATM   16  C   UNL     1     -12.228  11.097  70.290  1.00  0.00    -0.352 C  
HETATM   17  O   UNL     1     -12.055  12.168  70.871  1.00  0.00    -0.303 OA 
BRANCH  16  18
HETATM   18  C   UNL     1     -11.998  10.958  68.821  1.00  0.00    -0.230 C  
HETATM   19  C   UNL     1     -10.760  11.107  68.327  1.00  0.00    -0.234 C  
BRANCH  19  20
HETATM   20  C   UNL     1     -10.378  10.949  66.913  1.00  0.00    -0.285 A  
HETATM   21  C   UNL     1     -10.931  11.736  65.888  1.00  0.00    -0.354 A  
HETATM   22  C   UNL     1     -10.614  11.487  64.548  1.00  0.00    -0.329 A  
HETATM   23  C   UNL     1      -9.501   9.907  66.572  1.00  0.00    -0.230 A  
HETATM   24  C   UNL     1      -9.736  10.444  64.245  1.00  0.00    -0.326 A  
HETATM   25  H   UNL     1      -8.822   9.455  62.737  1.00  0.00     0.000 HD 
HETATM   26  O   UNL     1      -9.419  10.164  62.943  1.00  0.00    -0.299 OA 
HETATM   27  C   UNL     1      -9.173   9.657  65.240  1.00  0.00    -0.295 A  
BRANCH  22  28
HETATM   28  O   UNL     1     -11.103  12.170  63.466  1.00  0.00    -0.415 OA 
HETATM   29  C   UNL     1     -12.437  12.654  63.560  1.00  0.00    -0.418 C  
ENDBRANCH  22  28
ENDBRANCH  19  20
ENDBRANCH  16  18
ENDBRANCH  15  16
ENDBRANCH  13  15
ENDBRANCH  12  13
ENDBRANCH   5  11
ENDBRANCH   2   3
TORSDOF 8
ENDMDL
MODEL      125
REMARK 921   NORMALIZED FREE ENERGY PREDICTED BY IDOCK:   -4.90 KCAL/MOL
REMARK 922        TOTAL FREE ENERGY PREDICTED BY IDOCK:   -8.73 KCAL/MOL
REMARK 923 INTER-LIGAND FREE ENERGY PREDICTED BY IDOCK:   -8.25 KCAL/MOL
REMARK 924 INTRA-LIGAND FREE ENERGY PREDICTED BY IDOCK:   -0.48 KCAL/MOL
REMARK 927      BINDING AFFINITY PREDICTED BY RF-SCORE:    0.00 PKD
ROOT
HETATM    1  C   UNL     1      -6.855  14.499  67.550  1.00  0.00    -0.143 C  
HETATM    2  O   UNL     1      -6.968  15.697  66.788  1.00  0.00    -0.203 OA 
ENDROOT
BRANCH   2   3
HETATM    3  C   UNL     1      -8.123  16.410  66.994  1.00  0.00    -0.201 A  
HETATM    4  C   UNL     1      -9.162  15.963  67.817  1.00  0.00    -0.201 A  
HETATM    5  C   UNL     1     -10.342  16.703  67.967  1.00  0.00    -0.303 A  
HETATM    6  C   UNL     1     -10.432  17.956  67.347  1.00  0.00    -0.390 A  
HETATM    7  H   UNL     1      -7.302  18.962  65.158  1.00  0.00     0.000 HD 
HETATM    8  O   UNL     1      -7.224  18.113  65.578  1.00  0.00    -0.539 OA 
HETATM    9  C   UNL     1      -9.383  18.436  66.555  1.00  0.00    -0.311 A  
HETATM   10  C   UNL     1      -8.238  17.659  66.377  1.00  0.00    -0.263 A  
BRANCH   5  11
HETATM   11  C   UNL     1     -11.461  16.210  68.782  1.00  0.00    -0.340 C  
HETATM   12  C   UNL     1     -11.299  15.481  69.899  1.00  0.00    -0.323 C  
BRANCH  12  13
HETATM   13  C   UNL     1     -12.478  14.991  70.669  1.00  0.00    -0.365 C  
HETATM   14  O   UNL     1     -13.510  15.657  70.748  1.00  0.00    -0.536 OA 
BRANCH  13  15
HETATM   15  C   UNL     1     -12.372  13.644  71.327  1.00  0.00    -0.359 C  
BRANCH  15  16
HETATM   16  C   UNL     1     -12.352  12.509  70.343  1.00  0.00    -0.232 C  
HETATM   17  O   UNL     1     -12.324  12.721  69.130  1.00  0.00    -0.099 OA 
BRANCH  16  18
HETATM   18  C   UNL     1     -12.315  11.122  70.894  1.00  0.00    -0.500 C  
HETATM   19  C   UNL     1     -11.316  10.296  70.545  1.00  0.00    -0.422 C  
BRANCH  19  20
HETATM   20  C   UNL     1     -11.124   8.926  71.048  1.00  0.00    -0.340 A  
HETATM   21  C   UNL     1     -10.996   7.817  70.193  1.00  0.00    -0.246 A  
HETATM   22  C   UNL     1     -10.913   6.521  70.714  1.00  0.00    -0.276 A  
HETATM   23  C   UNL     1     -11.168   8.714  72.436  1.00  0.00    -0.339 A  
HETATM   24  C   UNL     1     -10.957   6.347  72.100  1.00  0.00    -0.251 A  
HETATM   25  H   UNL     1     -10.925   4.972  73.582  1.00  0.00     0.000 HD 
HETATM   26  O   UNL     1     -10.896   5.090  72.640  1.00  0.00    -0.220 OA 
HETATM   27  C   UNL     1     -11.077   7.426  72.964  1.00  0.00    -0.390 A  
BRANCH  22  28
HETATM   28  O   UNL     1     -10.806   5.366  69.985  1.00  0.00    -0.293 OA 
HETATM   29  C   UNL     1      -9.857   5.361  68.925  1.00  0.00    -0.166 C  
ENDBRANCH  22  28
ENDBRANCH  19  20
ENDBRANCH  16  18
ENDBRANCH  15  16
ENDBRANCH  13  15
ENDBRANCH  12  13
ENDBRANCH   5  11
ENDBRANCH   2   3
TORSDOF 8
ENDMDL
MODEL      126
REMARK 921   NORMALIZED FREE ENERGY PREDICTED BY IDOCK:   -4.89 KCAL/MOL
REMARK 922        TOTAL FREE ENERGY PREDICTED BY IDOCK:   -8.72 KCAL/MOL
REMARK 923 INTER-LIGAND FREE ENERGY PREDICTED BY IDOCK:   -7.81 KCAL/MOL
REMARK 924 INTRA-LIGAND FREE ENERGY PREDICTED BY IDOCK:   -0.91 KCAL/MOL
REMARK 927      BINDING AFFINITY PREDICTED BY RF-SCORE:    0.00 PKD
ROOT
HETATM    1  C   UNL     1      -6.711  17.230  66.474  1.00  0.00    -0.251 C  
HETATM    2  O   UNL     1      -7.986  17.862  66.403  1.00  0.00    -0.251 OA 
ENDROOT
BRANCH   2   3
HETATM    3  C   UNL     1      -9.058  17.031  66.613  1.00  0.00    -0.254 A  
HETATM    4  C   UNL     1      -9.446  16.039  65.708  1.00  0.00    -0.283 A  
HETATM    5  C   UNL     1     -10.573  15.240  65.942  1.00  0.00    -0.345 A  
HETATM    6  C   UNL     1     -11.263  15.388  67.152  1.00  0.00    -0.256 A  
HETATM    7  H   UNL     1      -9.872  18.224  69.524  1.00  0.00     0.000 HD 
HETATM    8  O   UNL     1      -9.391  18.130  68.710  1.00  0.00    -0.302 OA 
HETATM    9  C   UNL     1     -10.860  16.349  68.086  1.00  0.00    -0.346 A  
HETATM   10  C   UNL     1      -9.767  17.170  67.810  1.00  0.00    -0.271 A  
BRANCH   5  11
HETATM   11  C   UNL     1     -11.021  14.236  64.966  1.00  0.00    -0.394 C  
HETATM   12  C   UNL     1     -11.920  13.277  65.249  1.00  0.00    -0.422 C  
BRANCH  12  13
HETATM   13  C   UNL     1     -12.315  12.274  64.220  1.00  0.00    -0.427 C  
HETATM   14  O   UNL     1     -13.481  11.891  64.117  1.00  0.00    -0.591 OA 
BRANCH  13  15
HETATM   15  C   UNL     1     -11.246  11.761  63.297  1.00  0.00    -0.357 C  
BRANCH  15  16
HETATM   16  C   UNL     1     -10.267  10.849  63.981  1.00  0.00    -0.357 C  
HETATM   17  O   UNL     1      -9.185  10.574  63.462  1.00  0.00    -0.222 OA 
BRANCH  16  18
HETATM   18  C   UNL     1     -10.635  10.339  65.335  1.00  0.00    -0.002 C  
HETATM   19  C   UNL     1      -9.731  10.372  66.326  1.00  0.00    -0.256 C  
BRANCH  19  20
HETATM   20  C   UNL     1      -9.970   9.952  67.717  1.00  0.00    -0.201 A  
HETATM   21  C   UNL     1     -10.769  10.695  68.604  1.00  0.00    -0.239 A  
HETATM   22  C   UNL     1     -10.891  10.312  69.944  1.00  0.00    -0.302 A  
HETATM   23  C   UNL     1      -9.296   8.818  68.196  1.00  0.00    -0.148 A  
HETATM   24  C   UNL     1     -10.208   9.176  70.386  1.00  0.00    -0.222 A  
HETATM   25  H   UNL     1      -9.828   8.013  71.996  1.00  0.00     0.000 HD 
HETATM   26  O   UNL     1     -10.293   8.785  71.695  1.00  0.00    -0.263 OA 
HETATM   27  C   UNL     1      -9.418   8.424  69.528  1.00  0.00    -0.166 A  
BRANCH  22  28
HETATM   28  O   UNL     1     -11.620  10.963  70.904  1.00  0.00    -0.271 OA 
HETATM   29  C   UNL     1     -12.964  10.535  71.090  1.00  0.00    -0.411 C  
ENDBRANCH  22  28
ENDBRANCH  19  20
ENDBRANCH  16  18
ENDBRANCH  15  16
ENDBRANCH  13  15
ENDBRANCH  12  13
ENDBRANCH   5  11
ENDBRANCH   2   3
TORSDOF 8
ENDMDL
MODEL      127
REMARK 921   NORMALIZED FREE ENERGY PREDICTED BY IDOCK:   -4.87 KCAL/MOL
REMARK 922        TOTAL FREE ENERGY PREDICTED BY IDOCK:   -8.69 KCAL/MOL
REMARK 923 INTER-LIGAND FREE ENERGY PREDICTED BY IDOCK:   -7.34 KCAL/MOL
REMARK 924 INTRA-LIGAND FREE ENERGY PREDICTED BY IDOCK:   -1.35 KCAL/MOL
REMARK 927      BINDING AFFINITY PREDICTED BY RF-SCORE:    0.00 PKD
ROOT
HETATM    1  C   UNL     1     -10.985  15.781  69.778  1.00  0.00    -0.316 C  
HETATM    2  O   UNL     1     -12.028  14.934  69.302  1.00  0.00    -0.306 OA 
ENDROOT
BRANCH   2   3
HETATM    3  C   UNL     1     -12.494  14.019  70.212  1.00  0.00    -0.338 A  
HETATM    4  C   UNL     1     -11.987  12.721  70.322  1.00  0.00    -0.358 A  
HETATM    5  C   UNL     1     -12.521  11.805  71.238  1.00  0.00    -0.351 A  
HETATM    6  C   UNL     1     -13.522  12.239  72.116  1.00  0.00    -0.431 A  
HETATM    7  H   UNL     1     -14.682  15.979  71.602  1.00  0.00     0.000 HD 
HETATM    8  O   UNL     1     -13.998  15.700  71.003  1.00  0.00    -0.534 OA 
HETATM    9  C   UNL     1     -14.009  13.549  72.047  1.00  0.00    -0.465 A  
HETATM   10  C   UNL     1     -13.500  14.429  71.092  1.00  0.00    -0.306 A  
BRANCH   5  11
HETATM   11  C   UNL     1     -12.033  10.420  71.316  1.00  0.00    -0.425 C  
HETATM   12  C   UNL     1     -12.562   9.493  72.133  1.00  0.00    -0.411 C  
BRANCH  12  13
HETATM   13  C   UNL     1     -12.005   8.111  72.181  1.00  0.00    -0.359 C  
HETATM   14  O   UNL     1     -11.406   7.699  73.175  1.00  0.00    -0.360 OA 
BRANCH  13  15
HETATM   15  C   UNL     1     -12.220   7.229  70.983  1.00  0.00    -0.350 C  
BRANCH  15  16
HETATM   16  C   UNL     1     -10.944   6.903  70.258  1.00  0.00    -0.281 C  
HETATM   17  O   UNL     1     -10.493   5.758  70.251  1.00  0.00    -0.234 OA 
BRANCH  16  18
HETATM   18  C   UNL     1     -10.281   8.009  69.506  1.00  0.00    -0.209 C  
HETATM   19  C   UNL     1      -8.964   8.218  69.658  1.00  0.00    -0.149 C  
BRANCH  19  20
HETATM   20  C   UNL     1      -8.172   9.234  68.944  1.00  0.00    -0.111 A  
HETATM   21  C   UNL     1      -8.549  10.588  68.891  1.00  0.00    -0.153 A  
HETATM   22  C   UNL     1      -7.821  11.501  68.122  1.00  0.00    -0.128 A  
HETATM   23  C   UNL     1      -7.051   8.812  68.212  1.00  0.00    -0.078 A  
HETATM   24  C   UNL     1      -6.709  11.047  67.408  1.00  0.00    -0.080 A  
HETATM   25  H   UNL     1      -5.230  11.603  66.146  1.00  0.00     0.000 HD 
HETATM   26  O   UNL     1      -5.987  11.912  66.632  1.00  0.00    -0.187 OA 
HETATM   27  C   UNL     1      -6.314   9.717  67.449  1.00  0.00    -0.068 A  
BRANCH  22  28
HETATM   28  O   UNL     1      -8.102  12.834  67.976  1.00  0.00    -0.140 OA 
HETATM   29  C   UNL     1      -9.347  13.167  67.376  1.00  0.00    -0.213 C  
ENDBRANCH  22  28
ENDBRANCH  19  20
ENDBRANCH  16  18
ENDBRANCH  15  16
ENDBRANCH  13  15
ENDBRANCH  12  13
ENDBRANCH   5  11
ENDBRANCH   2   3
TORSDOF 8
ENDMDL
MODEL      128
REMARK 921   NORMALIZED FREE ENERGY PREDICTED BY IDOCK:   -4.87 KCAL/MOL
REMARK 922        TOTAL FREE ENERGY PREDICTED BY IDOCK:   -8.69 KCAL/MOL
REMARK 923 INTER-LIGAND FREE ENERGY PREDICTED BY IDOCK:   -7.69 KCAL/MOL
REMARK 924 INTRA-LIGAND FREE ENERGY PREDICTED BY IDOCK:   -1.00 KCAL/MOL
REMARK 927      BINDING AFFINITY PREDICTED BY RF-SCORE:    0.00 PKD
ROOT
HETATM    1  C   UNL     1      -8.714  16.444  66.139  1.00  0.00    -0.312 C  
HETATM    2  O   UNL     1     -10.126  16.627  66.197  1.00  0.00    -0.312 OA 
ENDROOT
BRANCH   2   3
HETATM    3  C   UNL     1     -10.868  15.489  65.996  1.00  0.00    -0.300 A  
HETATM    4  C   UNL     1     -10.934  14.445  66.923  1.00  0.00    -0.308 A  
HETATM    5  C   UNL     1     -11.671  13.282  66.658  1.00  0.00    -0.425 A  
HETATM    6  C   UNL     1     -12.423  13.217  65.479  1.00  0.00    -0.531 A  
HETATM    7  H   UNL     1     -12.082  16.360  63.110  1.00  0.00     0.000 HD 
HETATM    8  O   UNL     1     -11.572  16.420  63.909  1.00  0.00    -1.100 OA 
HETATM    9  C   UNL     1     -12.401  14.274  64.562  1.00  0.00    -0.432 A  
HETATM   10  C   UNL     1     -11.619  15.400  64.820  1.00  0.00    -0.286 A  
BRANCH   5  11
HETATM   11  C   UNL     1     -11.695  12.155  67.602  1.00  0.00    -0.386 C  
HETATM   12  C   UNL     1     -11.853  12.304  68.928  1.00  0.00    -0.355 C  
BRANCH  12  13
HETATM   13  C   UNL     1     -11.846  11.121  69.835  1.00  0.00    -0.363 C  
HETATM   14  O   UNL     1     -12.876  10.733  70.387  1.00  0.00    -0.313 OA 
BRANCH  13  15
HETATM   15  C   UNL     1     -10.541  10.402  70.036  1.00  0.00    -0.282 C  
BRANCH  15  16
HETATM   16  C   UNL     1     -10.496   9.065  69.351  1.00  0.00    -0.222 C  
HETATM   17  O   UNL     1     -11.098   8.095  69.812  1.00  0.00    -0.183 OA 
BRANCH  16  18
HETATM   18  C   UNL     1      -9.740   8.977  68.067  1.00  0.00    -0.179 C  
HETATM   19  C   UNL     1      -9.543   7.780  67.493  1.00  0.00    -0.184 C  
BRANCH  19  20
HETATM   20  C   UNL     1      -8.863   7.550  66.207  1.00  0.00    -0.184 A  
HETATM   21  C   UNL     1      -8.767   8.541  65.214  1.00  0.00    -0.175 A  
HETATM   22  C   UNL     1      -8.199   8.250  63.969  1.00  0.00    -0.096 A  
HETATM   23  C   UNL     1      -8.379   6.261  65.931  1.00  0.00    -0.142 A  
HETATM   24  C   UNL     1      -7.724   6.958  63.730  1.00  0.00    -0.118 A  
HETATM   25  H   UNL     1      -6.856   5.758  62.353  1.00  0.00     0.000 HD 
HETATM   26  O   UNL     1      -7.179   6.637  62.516  1.00  0.00    -0.046 OA 
HETATM   27  C   UNL     1      -7.803   5.965  64.695  1.00  0.00    -0.114 A  
BRANCH  22  28
HETATM   28  O   UNL     1      -8.068   9.122  62.921  1.00  0.00    -0.139 OA 
HETATM   29  C   UNL     1      -8.765  10.358  63.023  1.00  0.00    -0.206 C  
ENDBRANCH  22  28
ENDBRANCH  19  20
ENDBRANCH  16  18
ENDBRANCH  15  16
ENDBRANCH  13  15
ENDBRANCH  12  13
ENDBRANCH   5  11
ENDBRANCH   2   3
TORSDOF 8
ENDMDL
MODEL      129
REMARK 921   NORMALIZED FREE ENERGY PREDICTED BY IDOCK:   -4.87 KCAL/MOL
REMARK 922        TOTAL FREE ENERGY PREDICTED BY IDOCK:   -8.69 KCAL/MOL
REMARK 923 INTER-LIGAND FREE ENERGY PREDICTED BY IDOCK:   -6.98 KCAL/MOL
REMARK 924 INTRA-LIGAND FREE ENERGY PREDICTED BY IDOCK:   -1.71 KCAL/MOL
REMARK 927      BINDING AFFINITY PREDICTED BY RF-SCORE:    0.00 PKD
ROOT
HETATM    1  C   UNL     1     -11.096   6.469  68.586  1.00  0.00    -0.270 C  
HETATM    2  O   UNL     1     -11.017   6.505  67.163  1.00  0.00    -0.356 OA 
ENDROOT
BRANCH   2   3
HETATM    3  C   UNL     1     -10.210   7.491  66.652  1.00  0.00    -0.190 A  
HETATM    4  C   UNL     1     -10.499   8.854  66.768  1.00  0.00    -0.269 A  
HETATM    5  C   UNL     1      -9.668   9.826  66.194  1.00  0.00    -0.309 A  
HETATM    6  C   UNL     1      -8.482   9.414  65.573  1.00  0.00    -0.153 A  
HETATM    7  H   UNL     1      -7.920   5.506  65.479  1.00  0.00     0.000 HD 
HETATM    8  O   UNL     1      -8.725   5.771  65.909  1.00  0.00    -0.141 OA 
HETATM    9  C   UNL     1      -8.158   8.056  65.488  1.00  0.00    -0.128 A  
HETATM   10  C   UNL     1      -9.025   7.102  66.019  1.00  0.00    -0.111 A  
BRANCH   5  11
HETATM   11  C   UNL     1      -9.998  11.257  66.260  1.00  0.00    -0.260 C  
HETATM   12  C   UNL     1      -9.194  12.177  66.819  1.00  0.00    -0.207 C  
BRANCH  12  13
HETATM   13  C   UNL     1      -9.597  13.611  66.875  1.00  0.00    -0.262 C  
HETATM   14  O   UNL     1      -9.467  14.349  65.898  1.00  0.00    -0.256 OA 
BRANCH  13  15
HETATM   15  C   UNL     1     -10.191  14.121  68.158  1.00  0.00    -0.241 C  
BRANCH  15  16
HETATM   16  C   UNL     1     -11.505  13.473  68.495  1.00  0.00    -0.310 C  
HETATM   17  O   UNL     1     -12.507  13.678  67.810  1.00  0.00    -0.117 OA 
BRANCH  16  18
HETATM   18  C   UNL     1     -11.531  12.535  69.655  1.00  0.00    -0.255 C  
HETATM   19  C   UNL     1     -11.310  11.226  69.456  1.00  0.00    -0.362 C  
BRANCH  19  20
HETATM   20  C   UNL     1     -11.254  10.198  70.508  1.00  0.00    -0.411 A  
HETATM   21  C   UNL     1     -10.111   9.412  70.738  1.00  0.00    -0.366 A  
HETATM   22  C   UNL     1     -10.134   8.380  71.683  1.00  0.00    -0.239 A  
HETATM   23  C   UNL     1     -12.421   9.933  71.243  1.00  0.00    -0.479 A  
HETATM   24  C   UNL     1     -11.311   8.146  72.398  1.00  0.00    -0.391 A  
HETATM   25  H   UNL     1     -12.172   6.974  73.803  1.00  0.00     0.000 HD 
HETATM   26  O   UNL     1     -11.371   7.133  73.316  1.00  0.00    -0.194 OA 
HETATM   27  C   UNL     1     -12.450   8.912  72.193  1.00  0.00    -0.459 A  
BRANCH  22  28
HETATM   28  O   UNL     1      -9.095   7.538  71.979  1.00  0.00    -0.126 OA 
HETATM   29  C   UNL     1      -8.175   7.259  70.931  1.00  0.00    -0.115 C  
ENDBRANCH  22  28
ENDBRANCH  19  20
ENDBRANCH  16  18
ENDBRANCH  15  16
ENDBRANCH  13  15
ENDBRANCH  12  13
ENDBRANCH   5  11
ENDBRANCH   2   3
TORSDOF 8
ENDMDL
MODEL      130
REMARK 921   NORMALIZED FREE ENERGY PREDICTED BY IDOCK:   -4.86 KCAL/MOL
REMARK 922        TOTAL FREE ENERGY PREDICTED BY IDOCK:   -8.68 KCAL/MOL
REMARK 923 INTER-LIGAND FREE ENERGY PREDICTED BY IDOCK:   -7.01 KCAL/MOL
REMARK 924 INTRA-LIGAND FREE ENERGY PREDICTED BY IDOCK:   -1.67 KCAL/MOL
REMARK 927      BINDING AFFINITY PREDICTED BY RF-SCORE:    0.00 PKD
ROOT
HETATM    1  C   UNL     1     -12.428  14.564  64.336  1.00  0.00    -0.309 C  
HETATM    2  O   UNL     1     -12.664  14.077  65.654  1.00  0.00    -0.526 OA 
ENDROOT
BRANCH   2   3
HETATM    3  C   UNL     1     -11.818  13.077  66.064  1.00  0.00    -0.417 A  
HETATM    4  C   UNL     1     -11.198  12.189  65.180  1.00  0.00    -0.378 A  
HETATM    5  C   UNL     1     -10.374  11.155  65.646  1.00  0.00    -0.311 A  
HETATM    6  C   UNL     1     -10.103  11.077  67.018  1.00  0.00    -0.232 A  
HETATM    7  H   UNL     1     -11.947  13.776  69.235  1.00  0.00     0.000 HD 
HETATM    8  O   UNL     1     -12.134  13.845  68.306  1.00  0.00    -0.366 OA 
HETATM    9  C   UNL     1     -10.683  11.986  67.910  1.00  0.00    -0.243 A  
HETATM   10  C   UNL     1     -11.542  12.975  67.431  1.00  0.00    -0.356 A  
BRANCH   5  11
HETATM   11  C   UNL     1      -9.768  10.181  64.726  1.00  0.00    -0.389 C  
HETATM   12  C   UNL     1      -8.468  10.198  64.382  1.00  0.00    -0.179 C  
BRANCH  12  13
HETATM   13  C   UNL     1      -7.919   9.195  63.426  1.00  0.00    -0.148 C  
HETATM   14  O   UNL     1      -7.306   9.544  62.417  1.00  0.00    -0.102 OA 
BRANCH  13  15
HETATM   15  C   UNL     1      -8.120   7.740  63.747  1.00  0.00    -0.051 C  
BRANCH  15  16
HETATM   16  C   UNL     1      -7.617   7.365  65.113  1.00  0.00    -0.104 C  
HETATM   17  O   UNL     1      -6.414   7.385  65.373  1.00  0.00    -0.043 OA 
BRANCH  16  18
HETATM   18  C   UNL     1      -8.636   7.024  66.149  1.00  0.00    -0.148 C  
HETATM   19  C   UNL     1      -8.656   7.700  67.308  1.00  0.00    -0.121 C  
BRANCH  19  20
HETATM   20  C   UNL     1      -9.631   7.507  68.394  1.00  0.00    -0.152 A  
HETATM   21  C   UNL     1      -9.952   8.522  69.312  1.00  0.00    -0.195 A  
HETATM   22  C   UNL     1     -10.810   8.266  70.387  1.00  0.00    -0.235 A  
HETATM   23  C   UNL     1     -10.187   6.229  68.571  1.00  0.00    -0.205 A  
HETATM   24  C   UNL     1     -11.347   6.984  70.532  1.00  0.00    -0.312 A  
HETATM   25  H   UNL     1     -12.540   5.825  71.681  1.00  0.00     0.000 HD 
HETATM   26  O   UNL     1     -12.175   6.697  71.583  1.00  0.00    -0.343 OA 
HETATM   27  C   UNL     1     -11.049   5.967  69.635  1.00  0.00    -0.474 A  
BRANCH  22  28
HETATM   28  O   UNL     1     -11.179   9.164  71.353  1.00  0.00    -0.292 OA 
HETATM   29  C   UNL     1     -11.901  10.311  70.922  1.00  0.00    -0.377 C  
ENDBRANCH  22  28
ENDBRANCH  19  20
ENDBRANCH  16  18
ENDBRANCH  15  16
ENDBRANCH  13  15
ENDBRANCH  12  13
ENDBRANCH   5  11
ENDBRANCH   2   3
TORSDOF 8
ENDMDL
MODEL      131
REMARK 921   NORMALIZED FREE ENERGY PREDICTED BY IDOCK:   -4.86 KCAL/MOL
REMARK 922        TOTAL FREE ENERGY PREDICTED BY IDOCK:   -8.67 KCAL/MOL
REMARK 923 INTER-LIGAND FREE ENERGY PREDICTED BY IDOCK:   -7.75 KCAL/MOL
REMARK 924 INTRA-LIGAND FREE ENERGY PREDICTED BY IDOCK:   -0.92 KCAL/MOL
REMARK 927      BINDING AFFINITY PREDICTED BY RF-SCORE:    0.00 PKD
ROOT
HETATM    1  C   UNL     1      -5.734  17.273  66.374  1.00  0.00    -0.181 C  
HETATM    2  O   UNL     1      -6.716  18.255  66.055  1.00  0.00    -0.220 OA 
ENDROOT
BRANCH   2   3
HETATM    3  C   UNL     1      -8.017  17.821  66.126  1.00  0.00    -0.202 A  
HETATM    4  C   UNL     1      -8.384  16.478  65.991  1.00  0.00    -0.164 A  
HETATM    5  C   UNL     1      -9.728  16.084  66.029  1.00  0.00    -0.376 A  
HETATM    6  C   UNL     1     -10.705  17.051  66.298  1.00  0.00    -0.086 A  
HETATM    7  H   UNL     1      -9.336  20.734  66.703  1.00  0.00     0.000 HD 
HETATM    8  O   UNL     1      -8.662  20.088  66.528  1.00  0.00    -0.329 OA 
HETATM    9  C   UNL     1     -10.348  18.392  66.477  1.00  0.00    -0.426 A  
HETATM   10  C   UNL     1      -9.009  18.771  66.383  1.00  0.00    -0.292 A  
BRANCH   5  11
HETATM   11  C   UNL     1     -10.125  14.683  65.827  1.00  0.00    -0.364 C  
HETATM   12  C   UNL     1     -10.678  13.925  66.789  1.00  0.00    -0.281 C  
BRANCH  12  13
HETATM   13  C   UNL     1     -11.037  12.502  66.528  1.00  0.00    -0.287 C  
HETATM   14  O   UNL     1     -12.154  12.063  66.805  1.00  0.00    -0.613 OA 
BRANCH  13  15
HETATM   15  C   UNL     1      -9.996  11.623  65.891  1.00  0.00    -0.264 C  
BRANCH  15  16
HETATM   16  C   UNL     1      -8.966  11.131  66.869  1.00  0.00    -0.161 C  
HETATM   17  O   UNL     1      -7.811  11.555  66.841  1.00  0.00    -0.154 OA 
BRANCH  16  18
HETATM   18  C   UNL     1      -9.415  10.154  67.905  1.00  0.00    -0.154 C  
HETATM   19  C   UNL     1      -9.204  10.419  69.203  1.00  0.00    -0.202 C  
BRANCH  19  20
HETATM   20  C   UNL     1      -9.637   9.574  70.329  1.00  0.00    -0.314 A  
HETATM   21  C   UNL     1     -10.962   9.563  70.801  1.00  0.00    -0.389 A  
HETATM   22  C   UNL     1     -11.308   8.820  71.935  1.00  0.00    -0.361 A  
HETATM   23  C   UNL     1      -8.665   8.827  71.014  1.00  0.00    -0.248 A  
HETATM   24  C   UNL     1     -10.316   8.086  72.590  1.00  0.00    -0.329 A  
HETATM   25  H   UNL     1      -9.944   6.864  74.157  1.00  0.00     0.000 HD 
HETATM   26  O   UNL     1     -10.619   7.363  73.712  1.00  0.00    -0.349 OA 
HETATM   27  C   UNL     1      -9.003   8.077  72.140  1.00  0.00    -0.221 A  
BRANCH  22  28
HETATM   28  O   UNL     1     -12.554   8.746  72.498  1.00  0.00    -0.391 OA 
HETATM   29  C   UNL     1     -13.504   9.722  72.087  1.00  0.00    -0.399 C  
ENDBRANCH  22  28
ENDBRANCH  19  20
ENDBRANCH  16  18
ENDBRANCH  15  16
ENDBRANCH  13  15
ENDBRANCH  12  13
ENDBRANCH   5  11
ENDBRANCH   2   3
TORSDOF 8
ENDMDL
MODEL      132
REMARK 921   NORMALIZED FREE ENERGY PREDICTED BY IDOCK:   -4.85 KCAL/MOL
REMARK 922        TOTAL FREE ENERGY PREDICTED BY IDOCK:   -8.66 KCAL/MOL
REMARK 923 INTER-LIGAND FREE ENERGY PREDICTED BY IDOCK:   -7.83 KCAL/MOL
REMARK 924 INTRA-LIGAND FREE ENERGY PREDICTED BY IDOCK:   -0.83 KCAL/MOL
REMARK 927      BINDING AFFINITY PREDICTED BY RF-SCORE:    0.00 PKD
ROOT
HETATM    1  C   UNL     1     -10.519  19.789  66.699  1.00  0.00    -0.497 C  
HETATM    2  O   UNL     1      -9.189  19.279  66.683  1.00  0.00    -0.308 OA 
ENDROOT
BRANCH   2   3
HETATM    3  C   UNL     1      -9.064  17.971  67.081  1.00  0.00    -0.256 A  
HETATM    4  C   UNL     1      -9.611  16.899  66.370  1.00  0.00    -0.305 A  
HETATM    5  C   UNL     1      -9.495  15.582  66.835  1.00  0.00    -0.244 A  
HETATM    6  C   UNL     1      -8.736  15.340  67.987  1.00  0.00    -0.160 A  
HETATM    7  H   UNL     1      -7.260  18.570  69.717  1.00  0.00     0.000 HD 
HETATM    8  O   UNL     1      -7.767  18.748  68.933  1.00  0.00    -0.314 OA 
HETATM    9  C   UNL     1      -8.146  16.400  68.685  1.00  0.00    -0.218 A  
HETATM   10  C   UNL     1      -8.318  17.708  68.234  1.00  0.00    -0.274 A  
BRANCH   5  11
HETATM   11  C   UNL     1     -10.121  14.457  66.125  1.00  0.00    -0.323 C  
HETATM   12  C   UNL     1     -10.581  13.356  66.742  1.00  0.00    -0.277 C  
BRANCH  12  13
HETATM   13  C   UNL     1     -11.185  12.239  65.961  1.00  0.00    -0.332 C  
HETATM   14  O   UNL     1     -12.373  12.256  65.636  1.00  0.00    -0.619 OA 
BRANCH  13  15
HETATM   15  C   UNL     1     -10.289  11.099  65.563  1.00  0.00    -0.326 C  
BRANCH  15  16
HETATM   16  C   UNL     1      -9.261  10.769  66.609  1.00  0.00    -0.166 C  
HETATM   17  O   UNL     1      -8.080  11.082  66.459  1.00  0.00    -0.151 OA 
BRANCH  16  18
HETATM   18  C   UNL     1      -9.739  10.097  67.853  1.00  0.00    -0.166 C  
HETATM   19  C   UNL     1     -10.195   8.837  67.794  1.00  0.00    -0.285 C  
BRANCH  19  20
HETATM   20  C   UNL     1     -10.649   8.036  68.944  1.00  0.00    -0.160 A  
HETATM   21  C   UNL     1     -11.230   8.615  70.086  1.00  0.00    -0.152 A  
HETATM   22  C   UNL     1     -11.558   7.828  71.195  1.00  0.00    -0.281 A  
HETATM   23  C   UNL     1     -10.401   6.654  68.933  1.00  0.00    -0.216 A  
HETATM   24  C   UNL     1     -11.300   6.456  71.149  1.00  0.00    -0.319 A  
HETATM   25  H   UNL     1     -11.417   4.729  72.194  1.00  0.00     0.000 HD 
HETATM   26  O   UNL     1     -11.592   5.662  72.225  1.00  0.00    -0.264 OA 
HETATM   27  C   UNL     1     -10.732   5.861  70.031  1.00  0.00    -0.396 A  
BRANCH  22  28
HETATM   28  O   UNL     1     -12.107   8.278  72.367  1.00  0.00    -0.360 OA 
HETATM   29  C   UNL     1     -13.191   9.193  72.258  1.00  0.00    -0.461 C  
ENDBRANCH  22  28
ENDBRANCH  19  20
ENDBRANCH  16  18
ENDBRANCH  15  16
ENDBRANCH  13  15
ENDBRANCH  12  13
ENDBRANCH   5  11
ENDBRANCH   2   3
TORSDOF 8
ENDMDL
MODEL      133
REMARK 921   NORMALIZED FREE ENERGY PREDICTED BY IDOCK:   -4.85 KCAL/MOL
REMARK 922        TOTAL FREE ENERGY PREDICTED BY IDOCK:   -8.66 KCAL/MOL
REMARK 923 INTER-LIGAND FREE ENERGY PREDICTED BY IDOCK:   -7.89 KCAL/MOL
REMARK 924 INTRA-LIGAND FREE ENERGY PREDICTED BY IDOCK:   -0.76 KCAL/MOL
REMARK 927      BINDING AFFINITY PREDICTED BY RF-SCORE:    0.00 PKD
ROOT
HETATM    1  C   UNL     1     -10.963  19.747  65.640  1.00  0.00    -0.105 C  
HETATM    2  O   UNL     1      -9.630  19.864  66.131  1.00  0.00    -0.398 OA 
ENDROOT
BRANCH   2   3
HETATM    3  C   UNL     1      -9.123  18.727  66.710  1.00  0.00    -0.312 A  
HETATM    4  C   UNL     1      -9.406  17.439  66.245  1.00  0.00    -0.240 A  
HETATM    5  C   UNL     1      -8.901  16.304  66.893  1.00  0.00    -0.242 A  
HETATM    6  C   UNL     1      -8.024  16.480  67.970  1.00  0.00    -0.161 A  
HETATM    7  H   UNL     1      -7.368  20.240  68.989  1.00  0.00     0.000 HD 
HETATM    8  O   UNL     1      -7.959  20.136  68.252  1.00  0.00    -0.235 OA 
HETATM    9  C   UNL     1      -7.697  17.764  68.420  1.00  0.00    -0.278 A  
HETATM   10  C   UNL     1      -8.253  18.880  67.794  1.00  0.00    -0.270 A  
BRANCH   5  11
HETATM   11  C   UNL     1      -9.244  14.946  66.445  1.00  0.00    -0.317 C  
HETATM   12  C   UNL     1      -9.977  14.692  65.348  1.00  0.00    -0.365 C  
BRANCH  12  13
HETATM   13  C   UNL     1     -10.309  13.291  64.961  1.00  0.00    -0.340 C  
HETATM   14  O   UNL     1     -10.650  13.011  63.811  1.00  0.00    -0.347 OA 
BRANCH  13  15
HETATM   15  C   UNL     1     -10.193  12.227  66.017  1.00  0.00    -0.267 C  
BRANCH  15  16
HETATM   16  C   UNL     1     -11.514  11.869  66.637  1.00  0.00    -0.314 C  
HETATM   17  O   UNL     1     -12.563  12.360  66.223  1.00  0.00    -0.298 OA 
BRANCH  16  18
HETATM   18  C   UNL     1     -11.505  10.857  67.734  1.00  0.00    -0.323 C  
HETATM   19  C   UNL     1     -11.084  11.209  68.959  1.00  0.00    -0.299 C  
BRANCH  19  20
HETATM   20  C   UNL     1     -11.068  10.334  70.142  1.00  0.00    -0.385 A  
HETATM   21  C   UNL     1      -9.951   9.554  70.493  1.00  0.00    -0.335 A  
HETATM   22  C   UNL     1     -10.013   8.663  71.569  1.00  0.00    -0.274 A  
HETATM   23  C   UNL     1     -12.249  10.204  70.891  1.00  0.00    -0.455 A  
HETATM   24  C   UNL     1     -11.203   8.562  72.294  1.00  0.00    -0.362 A  
HETATM   25  H   UNL     1     -12.111   7.617  73.834  1.00  0.00     0.000 HD 
HETATM   26  O   UNL     1     -11.302   7.686  73.341  1.00  0.00    -0.289 OA 
HETATM   27  C   UNL     1     -12.317   9.324  71.971  1.00  0.00    -0.433 A  
BRANCH  22  28
HETATM   28  O   UNL     1      -9.002   7.840  71.991  1.00  0.00    -0.122 OA 
HETATM   29  C   UNL     1      -8.450   6.954  71.026  1.00  0.00    -0.131 C  
ENDBRANCH  22  28
ENDBRANCH  19  20
ENDBRANCH  16  18
ENDBRANCH  15  16
ENDBRANCH  13  15
ENDBRANCH  12  13
ENDBRANCH   5  11
ENDBRANCH   2   3
TORSDOF 8
ENDMDL
MODEL      134
REMARK 921   NORMALIZED FREE ENERGY PREDICTED BY IDOCK:   -4.83 KCAL/MOL
REMARK 922        TOTAL FREE ENERGY PREDICTED BY IDOCK:   -8.64 KCAL/MOL
REMARK 923 INTER-LIGAND FREE ENERGY PREDICTED BY IDOCK:   -7.99 KCAL/MOL
REMARK 924 INTRA-LIGAND FREE ENERGY PREDICTED BY IDOCK:   -0.64 KCAL/MOL
REMARK 927      BINDING AFFINITY PREDICTED BY RF-SCORE:    0.00 PKD
ROOT
HETATM    1  C   UNL     1      -8.622  16.435  66.086  1.00  0.00    -0.308 C  
HETATM    2  O   UNL     1     -10.036  16.609  66.134  1.00  0.00    -0.305 OA 
ENDROOT
BRANCH   2   3
HETATM    3  C   UNL     1     -10.768  15.468  65.918  1.00  0.00    -0.339 A  
HETATM    4  C   UNL     1     -10.855  14.426  66.847  1.00  0.00    -0.301 A  
HETATM    5  C   UNL     1     -11.581  13.261  66.569  1.00  0.00    -0.392 A  
HETATM    6  C   UNL     1     -12.303  13.189  65.371  1.00  0.00    -0.532 A  
HETATM    7  H   UNL     1     -11.912  16.323  62.999  1.00  0.00     0.000 HD 
HETATM    8  O   UNL     1     -11.422  16.388  63.811  1.00  0.00    -1.002 OA 
HETATM    9  C   UNL     1     -12.261  14.242  64.451  1.00  0.00    -0.471 A  
HETATM   10  C   UNL     1     -11.489  15.371  64.724  1.00  0.00    -0.336 A  
BRANCH   5  11
HETATM   11  C   UNL     1     -11.625  12.137  67.516  1.00  0.00    -0.413 C  
HETATM   12  C   UNL     1     -11.733  12.295  68.847  1.00  0.00    -0.380 C  
BRANCH  12  13
HETATM   13  C   UNL     1     -11.750  11.114  69.756  1.00  0.00    -0.345 C  
HETATM   14  O   UNL     1     -12.761  10.812  70.392  1.00  0.00    -0.327 OA 
BRANCH  13  15
HETATM   15  C   UNL     1     -10.497  10.289  69.854  1.00  0.00    -0.304 C  
BRANCH  15  16
HETATM   16  C   UNL     1     -10.713   8.847  69.488  1.00  0.00    -0.199 C  
HETATM   17  O   UNL     1     -11.398   8.109  70.196  1.00  0.00    -0.200 OA 
BRANCH  16  18
HETATM   18  C   UNL     1     -10.112   8.367  68.209  1.00  0.00    -0.232 C  
HETATM   19  C   UNL     1     -10.096   7.053  67.935  1.00  0.00    -0.204 C  
BRANCH  19  20
HETATM   20  C   UNL     1      -9.585   6.444  66.696  1.00  0.00    -0.194 A  
HETATM   21  C   UNL     1     -10.024   5.191  66.232  1.00  0.00    -0.232 A  
HETATM   22  C   UNL     1      -9.441   4.605  65.103  1.00  0.00    -0.140 A  
HETATM   23  C   UNL     1      -8.552   7.100  66.008  1.00  0.00    -0.158 A  
HETATM   24  C   UNL     1      -8.417   5.287  64.441  1.00  0.00    -0.126 A  
HETATM   25  H   UNL     1      -7.119   5.196  62.894  1.00  0.00     0.000 HD 
HETATM   26  O   UNL     1      -7.815   4.732  63.344  1.00  0.00    -0.073 OA 
HETATM   27  C   UNL     1      -7.971   6.527  64.877  1.00  0.00    -0.124 A  
BRANCH  22  28
HETATM   28  O   UNL     1      -9.768   3.386  64.571  1.00  0.00    -0.155 OA 
HETATM   29  C   UNL     1     -10.846   3.359  63.643  1.00  0.00    -0.202 C  
ENDBRANCH  22  28
ENDBRANCH  19  20
ENDBRANCH  16  18
ENDBRANCH  15  16
ENDBRANCH  13  15
ENDBRANCH  12  13
ENDBRANCH   5  11
ENDBRANCH   2   3
TORSDOF 8
ENDMDL
MODEL      135
REMARK 921   NORMALIZED FREE ENERGY PREDICTED BY IDOCK:   -4.80 KCAL/MOL
REMARK 922        TOTAL FREE ENERGY PREDICTED BY IDOCK:   -8.58 KCAL/MOL
REMARK 923 INTER-LIGAND FREE ENERGY PREDICTED BY IDOCK:   -6.93 KCAL/MOL
REMARK 924 INTRA-LIGAND FREE ENERGY PREDICTED BY IDOCK:   -1.65 KCAL/MOL
REMARK 927      BINDING AFFINITY PREDICTED BY RF-SCORE:    0.00 PKD
ROOT
HETATM    1  C   UNL     1      -8.352   5.807  65.151  1.00  0.00    -0.146 C  
HETATM    2  O   UNL     1      -7.761   7.030  64.719  1.00  0.00    -0.101 OA 
ENDROOT
BRANCH   2   3
HETATM    3  C   UNL     1      -8.002   8.110  65.532  1.00  0.00    -0.112 A  
HETATM    4  C   UNL     1      -8.862   8.063  66.633  1.00  0.00    -0.166 A  
HETATM    5  C   UNL     1      -9.112   9.201  67.411  1.00  0.00    -0.142 A  
HETATM    6  C   UNL     1      -8.410  10.379  67.124  1.00  0.00    -0.126 A  
HETATM    7  H   UNL     1      -6.002  10.163  64.000  1.00  0.00     0.000 HD 
HETATM    8  O   UNL     1      -6.466   9.355  64.188  1.00  0.00    -0.088 OA 
HETATM    9  C   UNL     1      -7.513  10.429  66.051  1.00  0.00    -0.134 A  
HETATM   10  C   UNL     1      -7.320   9.299  65.256  1.00  0.00    -0.094 A  
BRANCH   5  11
HETATM   11  C   UNL     1     -10.061   9.173  68.533  1.00  0.00    -0.212 C  
HETATM   12  C   UNL     1      -9.721   9.472  69.799  1.00  0.00    -0.234 C  
BRANCH  12  13
HETATM   13  C   UNL     1     -10.727   9.403  70.896  1.00  0.00    -0.323 C  
HETATM   14  O   UNL     1     -10.413   9.028  72.027  1.00  0.00    -0.346 OA 
BRANCH  13  15
HETATM   15  C   UNL     1     -12.134   9.827  70.583  1.00  0.00    -0.311 C  
BRANCH  15  16
HETATM   16  C   UNL     1     -12.387  11.281  70.869  1.00  0.00    -0.388 C  
HETATM   17  O   UNL     1     -13.023  11.631  71.862  1.00  0.00    -0.427 OA 
BRANCH  16  18
HETATM   18  C   UNL     1     -11.790  12.278  69.932  1.00  0.00    -0.383 C  
HETATM   19  C   UNL     1     -11.999  12.156  68.612  1.00  0.00    -0.290 C  
BRANCH  19  20
HETATM   20  C   UNL     1     -11.517  13.090  67.580  1.00  0.00    -0.369 A  
HETATM   21  C   UNL     1     -10.250  13.698  67.642  1.00  0.00    -0.239 A  
HETATM   22  C   UNL     1      -9.870  14.653  66.693  1.00  0.00    -0.269 A  
HETATM   23  C   UNL     1     -12.397  13.456  66.549  1.00  0.00    -0.354 A  
HETATM   24  C   UNL     1     -10.770  14.991  65.679  1.00  0.00    -0.354 A  
HETATM   25  H   UNL     1     -11.047  16.165  64.057  1.00  0.00     0.000 HD 
HETATM   26  O   UNL     1     -10.435  15.935  64.746  1.00  0.00    -0.538 OA 
HETATM   27  C   UNL     1     -12.023  14.401  65.594  1.00  0.00    -0.356 A  
BRANCH  22  28
HETATM   28  O   UNL     1      -8.677  15.325  66.661  1.00  0.00    -0.263 OA 
HETATM   29  C   UNL     1      -7.725  14.992  67.664  1.00  0.00    -0.168 C  
ENDBRANCH  22  28
ENDBRANCH  19  20
ENDBRANCH  16  18
ENDBRANCH  15  16
ENDBRANCH  13  15
ENDBRANCH  12  13
ENDBRANCH   5  11
ENDBRANCH   2   3
TORSDOF 8
ENDMDL
MODEL      136
REMARK 921   NORMALIZED FREE ENERGY PREDICTED BY IDOCK:   -4.79 KCAL/MOL
REMARK 922        TOTAL FREE ENERGY PREDICTED BY IDOCK:   -8.57 KCAL/MOL
REMARK 923 INTER-LIGAND FREE ENERGY PREDICTED BY IDOCK:   -7.82 KCAL/MOL
REMARK 924 INTRA-LIGAND FREE ENERGY PREDICTED BY IDOCK:   -0.75 KCAL/MOL
REMARK 927      BINDING AFFINITY PREDICTED BY RF-SCORE:    0.00 PKD
ROOT
HETATM    1  C   UNL     1     -11.591   6.349  71.697  1.00  0.00    -0.310 C  
HETATM    2  O   UNL     1     -12.653   7.244  72.016  1.00  0.00    -0.288 OA 
ENDROOT
BRANCH   2   3
HETATM    3  C   UNL     1     -12.516   8.512  71.507  1.00  0.00    -0.317 A  
HETATM    4  C   UNL     1     -11.618   8.834  70.485  1.00  0.00    -0.170 A  
HETATM    5  C   UNL     1     -11.481  10.150  70.024  1.00  0.00    -0.344 A  
HETATM    6  C   UNL     1     -12.331  11.135  70.542  1.00  0.00    -0.454 A  
HETATM    7  H   UNL     1     -14.804   9.889  73.358  1.00  0.00     0.000 HD 
HETATM    8  O   UNL     1     -14.239   9.209  73.011  1.00  0.00    -0.429 OA 
HETATM    9  C   UNL     1     -13.264  10.819  71.535  1.00  0.00    -0.434 A  
HETATM   10  C   UNL     1     -13.347   9.513  72.017  1.00  0.00    -0.452 A  
BRANCH   5  11
HETATM   11  C   UNL     1     -10.496  10.505  68.992  1.00  0.00    -0.238 C  
HETATM   12  C   UNL     1     -10.808  10.665  67.694  1.00  0.00    -0.346 C  
BRANCH  12  13
HETATM   13  C   UNL     1      -9.757  11.004  66.693  1.00  0.00    -0.195 C  
HETATM   14  O   UNL     1      -9.075  10.127  66.161  1.00  0.00    -0.149 OA 
BRANCH  13  15
HETATM   15  C   UNL     1      -9.572  12.452  66.336  1.00  0.00    -0.249 C  
BRANCH  15  16
HETATM   16  C   UNL     1      -8.478  13.116  67.123  1.00  0.00    -0.169 C  
HETATM   17  O   UNL     1      -7.657  12.451  67.754  1.00  0.00    -0.111 OA 
BRANCH  16  18
HETATM   18  C   UNL     1      -8.398  14.606  67.065  1.00  0.00    -0.214 C  
HETATM   19  C   UNL     1      -9.440  15.343  67.479  1.00  0.00    -0.205 C  
BRANCH  19  20
HETATM   20  C   UNL     1      -9.481  16.815  67.525  1.00  0.00    -0.237 A  
HETATM   21  C   UNL     1      -8.542  17.575  68.245  1.00  0.00    -0.266 A  
HETATM   22  C   UNL     1      -8.674  18.964  68.343  1.00  0.00    -0.345 A  
HETATM   23  C   UNL     1     -10.555  17.472  66.904  1.00  0.00    -0.219 A  
HETATM   24  C   UNL     1      -9.754  19.585  67.711  1.00  0.00    -0.354 A  
HETATM   25  H   UNL     1     -10.656  21.363  67.373  1.00  0.00     0.000 HD 
HETATM   26  O   UNL     1      -9.922  20.941  67.803  1.00  0.00    -0.271 OA 
HETATM   27  C   UNL     1     -10.690  18.857  66.990  1.00  0.00    -0.477 A  
BRANCH  22  28
HETATM   28  O   UNL     1      -7.839  19.806  69.030  1.00  0.00    -0.292 OA 
HETATM   29  C   UNL     1      -6.448  19.693  68.757  1.00  0.00    -0.283 C  
ENDBRANCH  22  28
ENDBRANCH  19  20
ENDBRANCH  16  18
ENDBRANCH  15  16
ENDBRANCH  13  15
ENDBRANCH  12  13
ENDBRANCH   5  11
ENDBRANCH   2   3
TORSDOF 8
ENDMDL
MODEL      137
REMARK 921   NORMALIZED FREE ENERGY PREDICTED BY IDOCK:   -4.78 KCAL/MOL
REMARK 922        TOTAL FREE ENERGY PREDICTED BY IDOCK:   -8.56 KCAL/MOL
REMARK 923 INTER-LIGAND FREE ENERGY PREDICTED BY IDOCK:   -6.71 KCAL/MOL
REMARK 924 INTRA-LIGAND FREE ENERGY PREDICTED BY IDOCK:   -1.85 KCAL/MOL
REMARK 927      BINDING AFFINITY PREDICTED BY RF-SCORE:    0.00 PKD
ROOT
HETATM    1  C   UNL     1     -11.829  11.251  68.755  1.00  0.00    -0.329 C  
HETATM    2  O   UNL     1     -10.814  10.274  68.536  1.00  0.00    -0.213 OA 
ENDROOT
BRANCH   2   3
HETATM    3  C   UNL     1      -9.548  10.780  68.373  1.00  0.00    -0.176 A  
HETATM    4  C   UNL     1      -9.229  12.126  68.575  1.00  0.00    -0.100 A  
HETATM    5  C   UNL     1      -7.931  12.607  68.356  1.00  0.00    -0.134 A  
HETATM    6  C   UNL     1      -6.924  11.695  68.016  1.00  0.00    -0.078 A  
HETATM    7  H   UNL     1      -8.134   7.959  67.596  1.00  0.00     0.000 HD 
HETATM    8  O   UNL     1      -8.826   8.565  67.834  1.00  0.00    -0.136 OA 
HETATM    9  C   UNL     1      -7.220  10.338  67.853  1.00  0.00    -0.085 A  
HETATM   10  C   UNL     1      -8.529   9.888  68.024  1.00  0.00    -0.117 A  
BRANCH   5  11
HETATM   11  C   UNL     1      -7.603  14.032  68.508  1.00  0.00    -0.130 C  
HETATM   12  C   UNL     1      -6.674  14.661  67.769  1.00  0.00    -0.194 C  
BRANCH  12  13
HETATM   13  C   UNL     1      -6.372  16.105  67.988  1.00  0.00    -0.133 C  
HETATM   14  O   UNL     1      -5.593  16.467  68.871  1.00  0.00    -0.126 OA 
BRANCH  13  15
HETATM   15  C   UNL     1      -7.034  17.103  67.080  1.00  0.00    -0.211 C  
BRANCH  15  16
HETATM   16  C   UNL     1      -8.431  17.452  67.511  1.00  0.00    -0.214 C  
HETATM   17  O   UNL     1      -8.663  18.491  68.130  1.00  0.00    -0.292 OA 
BRANCH  16  18
HETATM   18  C   UNL     1      -9.525  16.520  67.111  1.00  0.00    -0.246 C  
HETATM   19  C   UNL     1      -9.442  15.859  65.946  1.00  0.00    -0.372 C  
BRANCH  19  20
HETATM   20  C   UNL     1     -10.417  14.875  65.449  1.00  0.00    -0.406 A  
HETATM   21  C   UNL     1     -10.257  13.490  65.637  1.00  0.00    -0.306 A  
HETATM   22  C   UNL     1     -11.157  12.584  65.065  1.00  0.00    -0.299 A  
HETATM   23  C   UNL     1     -11.496  15.336  64.678  1.00  0.00    -0.356 A  
HETATM   24  C   UNL     1     -12.220  13.078  64.305  1.00  0.00    -0.396 A  
HETATM   25  H   UNL     1     -13.831  12.553  63.201  1.00  0.00     0.000 HD 
HETATM   26  O   UNL     1     -13.107  12.217  63.718  1.00  0.00    -0.780 OA 
HETATM   27  C   UNL     1     -12.402  14.440  64.111  1.00  0.00    -0.340 A  
BRANCH  22  28
HETATM   28  O   UNL     1     -11.094  11.219  65.160  1.00  0.00    -0.197 OA 
HETATM   29  C   UNL     1      -9.969  10.585  64.564  1.00  0.00    -0.345 C  
ENDBRANCH  22  28
ENDBRANCH  19  20
ENDBRANCH  16  18
ENDBRANCH  15  16
ENDBRANCH  13  15
ENDBRANCH  12  13
ENDBRANCH   5  11
ENDBRANCH   2   3
TORSDOF 8
ENDMDL
MODEL      138
REMARK 921   NORMALIZED FREE ENERGY PREDICTED BY IDOCK:   -4.77 KCAL/MOL
REMARK 922        TOTAL FREE ENERGY PREDICTED BY IDOCK:   -8.55 KCAL/MOL
REMARK 923 INTER-LIGAND FREE ENERGY PREDICTED BY IDOCK:   -7.01 KCAL/MOL
REMARK 924 INTRA-LIGAND FREE ENERGY PREDICTED BY IDOCK:   -1.54 KCAL/MOL
REMARK 927      BINDING AFFINITY PREDICTED BY RF-SCORE:    0.00 PKD
ROOT
HETATM    1  C   UNL     1     -10.310   3.715  64.291  1.00  0.00    -0.227 C  
HETATM    2  O   UNL     1      -9.477   3.418  65.410  1.00  0.00    -0.158 OA 
ENDROOT
BRANCH   2   3
HETATM    3  C   UNL     1      -9.399   4.410  66.355  1.00  0.00    -0.157 A  
HETATM    4  C   UNL     1      -9.260   5.764  66.034  1.00  0.00    -0.155 A  
HETATM    5  C   UNL     1      -9.142   6.740  67.033  1.00  0.00    -0.139 A  
HETATM    6  C   UNL     1      -9.259   6.349  68.372  1.00  0.00    -0.120 A  
HETATM    7  H   UNL     1      -9.723   2.468  68.940  1.00  0.00     0.000 HD 
HETATM    8  O   UNL     1      -9.652   2.719  68.027  1.00  0.00    -0.198 OA 
HETATM    9  C   UNL     1      -9.442   5.003  68.707  1.00  0.00    -0.192 A  
HETATM   10  C   UNL     1      -9.504   4.040  67.699  1.00  0.00    -0.183 A  
BRANCH   5  11
HETATM   11  C   UNL     1      -8.934   8.157  66.702  1.00  0.00    -0.181 C  
HETATM   12  C   UNL     1      -8.735   8.604  65.450  1.00  0.00    -0.208 C  
BRANCH  12  13
HETATM   13  C   UNL     1      -8.507  10.053  65.184  1.00  0.00    -0.153 C  
HETATM   14  O   UNL     1      -7.381  10.546  65.255  1.00  0.00    -0.134 OA 
BRANCH  13  15
HETATM   15  C   UNL     1      -9.697  10.889  64.804  1.00  0.00    -0.323 C  
BRANCH  15  16
HETATM   16  C   UNL     1     -10.179  11.768  65.924  1.00  0.00    -0.237 C  
HETATM   17  O   UNL     1      -9.966  12.980  65.917  1.00  0.00    -0.275 OA 
BRANCH  16  18
HETATM   18  C   UNL     1     -10.970  11.120  67.013  1.00  0.00    -0.348 C  
HETATM   19  C   UNL     1     -10.516  11.158  68.275  1.00  0.00    -0.215 C  
BRANCH  19  20
HETATM   20  C   UNL     1     -11.212  10.609  69.451  1.00  0.00    -0.329 A  
HETATM   21  C   UNL     1     -12.098  11.374  70.230  1.00  0.00    -0.459 A  
HETATM   22  C   UNL     1     -12.663  10.843  71.395  1.00  0.00    -0.434 A  
HETATM   23  C   UNL     1     -10.901   9.302  69.859  1.00  0.00    -0.252 A  
HETATM   24  C   UNL     1     -12.334   9.538  71.770  1.00  0.00    -0.394 A  
HETATM   25  H   UNL     1     -12.632   8.108  73.168  1.00  0.00     0.000 HD 
HETATM   26  O   UNL     1     -12.855   8.996  72.913  1.00  0.00    -0.305 OA 
HETATM   27  C   UNL     1     -11.466   8.762  71.014  1.00  0.00    -0.337 A  
BRANCH  22  28
HETATM   28  O   UNL     1     -13.519  11.494  72.243  1.00  0.00    -0.368 OA 
HETATM   29  C   UNL     1     -13.474  12.915  72.234  1.00  0.00    -0.531 C  
ENDBRANCH  22  28
ENDBRANCH  19  20
ENDBRANCH  16  18
ENDBRANCH  15  16
ENDBRANCH  13  15
ENDBRANCH  12  13
ENDBRANCH   5  11
ENDBRANCH   2   3
TORSDOF 8
ENDMDL
MODEL      139
REMARK 921   NORMALIZED FREE ENERGY PREDICTED BY IDOCK:   -4.77 KCAL/MOL
REMARK 922        TOTAL FREE ENERGY PREDICTED BY IDOCK:   -8.55 KCAL/MOL
REMARK 923 INTER-LIGAND FREE ENERGY PREDICTED BY IDOCK:   -7.00 KCAL/MOL
REMARK 924 INTRA-LIGAND FREE ENERGY PREDICTED BY IDOCK:   -1.54 KCAL/MOL
REMARK 927      BINDING AFFINITY PREDICTED BY RF-SCORE:    0.00 PKD
ROOT
HETATM    1  C   UNL     1     -12.350  13.928  63.610  1.00  0.00    -0.122 C  
HETATM    2  O   UNL     1     -12.661  13.819  64.997  1.00  0.00    -0.630 OA 
ENDROOT
BRANCH   2   3
HETATM    3  C   UNL     1     -11.797  13.041  65.726  1.00  0.00    -0.404 A  
HETATM    4  C   UNL     1     -11.298  11.817  65.270  1.00  0.00    -0.284 A  
HETATM    5  C   UNL     1     -10.450  11.035  66.066  1.00  0.00    -0.304 A  
HETATM    6  C   UNL     1     -10.032  11.542  67.303  1.00  0.00    -0.212 A  
HETATM    7  H   UNL     1     -11.561  15.054  68.267  1.00  0.00     0.000 HD 
HETATM    8  O   UNL     1     -11.848  14.725  67.422  1.00  0.00    -0.377 OA 
HETATM    9  C   UNL     1     -10.490  12.785  67.754  1.00  0.00    -0.228 A  
HETATM   10  C   UNL     1     -11.375  13.524  66.969  1.00  0.00    -0.324 A  
BRANCH   5  11
HETATM   11  C   UNL     1      -9.970   9.720  65.617  1.00  0.00    -0.352 C  
HETATM   12  C   UNL     1      -8.675   9.361  65.629  1.00  0.00    -0.179 C  
BRANCH  12  13
HETATM   13  C   UNL     1      -8.250   8.019  65.138  1.00  0.00    -0.144 C  
HETATM   14  O   UNL     1      -7.937   7.840  63.960  1.00  0.00    -0.132 OA 
BRANCH  13  15
HETATM   15  C   UNL     1      -8.194   6.895  66.134  1.00  0.00    -0.121 C  
BRANCH  15  16
HETATM   16  C   UNL     1      -7.694   7.332  67.483  1.00  0.00    -0.111 C  
HETATM   17  O   UNL     1      -6.529   7.694  67.641  1.00  0.00    -0.054 OA 
BRANCH  16  18
HETATM   18  C   UNL     1      -8.680   7.358  68.604  1.00  0.00    -0.128 C  
HETATM   19  C   UNL     1      -9.065   8.535  69.121  1.00  0.00    -0.146 C  
BRANCH  19  20
HETATM   20  C   UNL     1     -10.063   8.715  70.189  1.00  0.00    -0.196 A  
HETATM   21  C   UNL     1     -10.168   7.836  71.282  1.00  0.00    -0.218 A  
HETATM   22  C   UNL     1     -11.192   7.986  72.222  1.00  0.00    -0.341 A  
HETATM   23  C   UNL     1     -11.003   9.749  70.056  1.00  0.00    -0.319 A  
HETATM   24  C   UNL     1     -12.109   9.028  72.060  1.00  0.00    -0.370 A  
HETATM   25  H   UNL     1     -13.757   9.900  72.843  1.00  0.00     0.000 HD 
HETATM   26  O   UNL     1     -13.133   9.192  72.953  1.00  0.00    -0.304 OA 
HETATM   27  C   UNL     1     -12.023   9.912  70.993  1.00  0.00    -0.456 A  
BRANCH  22  28
HETATM   28  O   UNL     1     -11.408   7.185  73.312  1.00  0.00    -0.194 OA 
HETATM   29  C   UNL     1     -10.258   6.637  73.944  1.00  0.00    -0.354 C  
ENDBRANCH  22  28
ENDBRANCH  19  20
ENDBRANCH  16  18
ENDBRANCH  15  16
ENDBRANCH  13  15
ENDBRANCH  12  13
ENDBRANCH   5  11
ENDBRANCH   2   3
TORSDOF 8
ENDMDL
MODEL      140
REMARK 921   NORMALIZED FREE ENERGY PREDICTED BY IDOCK:   -4.77 KCAL/MOL
REMARK 922        TOTAL FREE ENERGY PREDICTED BY IDOCK:   -8.54 KCAL/MOL
REMARK 923 INTER-LIGAND FREE ENERGY PREDICTED BY IDOCK:   -7.18 KCAL/MOL
REMARK 924 INTRA-LIGAND FREE ENERGY PREDICTED BY IDOCK:   -1.36 KCAL/MOL
REMARK 927      BINDING AFFINITY PREDICTED BY RF-SCORE:    0.00 PKD
ROOT
HETATM    1  C   UNL     1      -7.696   8.809  69.115  1.00  0.00    -0.093 C  
HETATM    2  O   UNL     1      -8.695   8.218  68.287  1.00  0.00    -0.135 OA 
ENDROOT
BRANCH   2   3
HETATM    3  C   UNL     1      -8.782   8.739  67.020  1.00  0.00    -0.123 A  
HETATM    4  C   UNL     1      -9.236  10.035  66.755  1.00  0.00    -0.173 A  
HETATM    5  C   UNL     1      -9.349  10.512  65.443  1.00  0.00    -0.255 A  
HETATM    6  C   UNL     1      -8.909   9.699  64.391  1.00  0.00    -0.263 A  
HETATM    7  H   UNL     1      -7.610   6.130  65.478  1.00  0.00     0.000 HD 
HETATM    8  O   UNL     1      -7.899   6.674  66.202  1.00  0.00    -0.096 OA 
HETATM    9  C   UNL     1      -8.411   8.416  64.645  1.00  0.00    -0.137 A  
HETATM   10  C   UNL     1      -8.357   7.940  65.955  1.00  0.00    -0.128 A  
BRANCH   5  11
HETATM   11  C   UNL     1      -9.883  11.851  65.154  1.00  0.00    -0.243 C  
HETATM   12  C   UNL     1     -10.915  12.073  64.323  1.00  0.00    -0.401 C  
BRANCH  12  13
HETATM   13  C   UNL     1     -11.395  13.459  64.054  1.00  0.00    -0.320 C  
HETATM   14  O   UNL     1     -12.561  13.678  63.723  1.00  0.00    -0.705 OA 
BRANCH  13  15
HETATM   15  C   UNL     1     -10.413  14.584  64.224  1.00  0.00     0.520 C  
BRANCH  15  16
HETATM   16  C   UNL     1     -10.923  15.678  65.120  1.00  0.00    -0.398 C  
HETATM   17  O   UNL     1     -10.796  16.862  64.809  1.00  0.00    -0.787 OA 
BRANCH  16  18
HETATM   18  C   UNL     1     -11.634  15.269  66.367  1.00  0.00     0.007 C  
HETATM   19  C   UNL     1     -10.934  14.762  67.394  1.00  0.00    -0.313 C  
BRANCH  19  20
HETATM   20  C   UNL     1     -11.493  14.366  68.697  1.00  0.00    -0.316 A  
HETATM   21  C   UNL     1     -11.445  13.042  69.169  1.00  0.00    -0.353 A  
HETATM   22  C   UNL     1     -12.075  12.690  70.368  1.00  0.00    -0.300 A  
HETATM   23  C   UNL     1     -12.182  15.332  69.448  1.00  0.00    -0.247 A  
HETATM   24  C   UNL     1     -12.749  13.678  71.091  1.00  0.00    -0.353 A  
HETATM   25  H   UNL     1     -13.849  14.033  72.751  1.00  0.00     0.000 HD 
HETATM   26  O   UNL     1     -13.390  13.362  72.259  1.00  0.00    -0.486 OA 
HETATM   27  C   UNL     1     -12.805  14.991  70.648  1.00  0.00    -0.413 A  
BRANCH  22  28
HETATM   28  O   UNL     1     -12.114  11.436  70.918  1.00  0.00    -0.351 OA 
HETATM   29  C   UNL     1     -11.527  10.385  70.162  1.00  0.00    -0.319 C  
ENDBRANCH  22  28
ENDBRANCH  19  20
ENDBRANCH  16  18
ENDBRANCH  15  16
ENDBRANCH  13  15
ENDBRANCH  12  13
ENDBRANCH   5  11
ENDBRANCH   2   3
TORSDOF 8
ENDMDL
MODEL      141
REMARK 921   NORMALIZED FREE ENERGY PREDICTED BY IDOCK:   -4.76 KCAL/MOL
REMARK 922        TOTAL FREE ENERGY PREDICTED BY IDOCK:   -8.54 KCAL/MOL
REMARK 923 INTER-LIGAND FREE ENERGY PREDICTED BY IDOCK:   -7.90 KCAL/MOL
REMARK 924 INTRA-LIGAND FREE ENERGY PREDICTED BY IDOCK:   -0.63 KCAL/MOL
REMARK 927      BINDING AFFINITY PREDICTED BY RF-SCORE:    0.00 PKD
ROOT
HETATM    1  C   UNL     1      -8.209   8.196  73.160  1.00  0.00    -0.193 C  
HETATM    2  O   UNL     1      -9.367   8.722  72.516  1.00  0.00    -0.326 OA 
ENDROOT
BRANCH   2   3
HETATM    3  C   UNL     1      -9.935   7.898  71.577  1.00  0.00    -0.173 A  
HETATM    4  C   UNL     1      -9.210   7.309  70.537  1.00  0.00    -0.158 A  
HETATM    5  C   UNL     1      -9.838   6.506  69.575  1.00  0.00    -0.167 A  
HETATM    6  C   UNL     1     -11.201   6.224  69.722  1.00  0.00    -0.499 A  
HETATM    7  H   UNL     1     -12.943   7.977  72.804  1.00  0.00     0.000 HD 
HETATM    8  O   UNL     1     -12.017   8.172  72.720  1.00  0.00    -0.365 OA 
HETATM    9  C   UNL     1     -11.931   6.771  70.783  1.00  0.00    -0.433 A  
HETATM   10  C   UNL     1     -11.297   7.610  71.700  1.00  0.00    -0.251 A  
BRANCH   5  11
HETATM   11  C   UNL     1      -9.092   5.934  68.445  1.00  0.00    -0.115 C  
HETATM   12  C   UNL     1      -8.563   6.674  67.456  1.00  0.00    -0.120 C  
BRANCH  12  13
HETATM   13  C   UNL     1      -7.837   6.030  66.325  1.00  0.00    -0.104 C  
HETATM   14  O   UNL     1      -6.982   5.166  66.524  1.00  0.00    -0.064 OA 
BRANCH  13  15
HETATM   15  C   UNL     1      -8.200   6.454  64.929  1.00  0.00    -0.110 C  
BRANCH  15  16
HETATM   16  C   UNL     1      -7.869   7.893  64.648  1.00  0.00    -0.133 C  
HETATM   17  O   UNL     1      -6.842   8.202  64.045  1.00  0.00    -0.065 OA 
BRANCH  16  18
HETATM   18  C   UNL     1      -8.860   8.922  65.082  1.00  0.00    -0.209 C  
HETATM   19  C   UNL     1      -9.214   9.901  64.235  1.00  0.00    -0.317 C  
BRANCH  19  20
HETATM   20  C   UNL     1     -10.213  10.948  64.508  1.00  0.00    -0.422 A  
HETATM   21  C   UNL     1     -10.650  11.256  65.809  1.00  0.00    -0.306 A  
HETATM   22  C   UNL     1     -11.671  12.190  66.016  1.00  0.00    -0.321 A  
HETATM   23  C   UNL     1     -10.818  11.593  63.417  1.00  0.00    -0.453 A  
HETATM   24  C   UNL     1     -12.248  12.815  64.907  1.00  0.00    -0.463 A  
HETATM   25  H   UNL     1     -13.654  14.145  64.322  1.00  0.00     0.000 HD 
HETATM   26  O   UNL     1     -13.261  13.720  65.075  1.00  0.00    -0.733 OA 
HETATM   27  C   UNL     1     -11.831  12.531  63.615  1.00  0.00    -0.610 A  
BRANCH  22  28
HETATM   28  O   UNL     1     -12.192  12.557  67.228  1.00  0.00    -0.454 OA 
HETATM   29  C   UNL     1     -11.544  13.624  67.910  1.00  0.00    -0.341 C  
ENDBRANCH  22  28
ENDBRANCH  19  20
ENDBRANCH  16  18
ENDBRANCH  15  16
ENDBRANCH  13  15
ENDBRANCH  12  13
ENDBRANCH   5  11
ENDBRANCH   2   3
TORSDOF 8
ENDMDL
MODEL      142
REMARK 921   NORMALIZED FREE ENERGY PREDICTED BY IDOCK:   -4.75 KCAL/MOL
REMARK 922        TOTAL FREE ENERGY PREDICTED BY IDOCK:   -8.52 KCAL/MOL
REMARK 923 INTER-LIGAND FREE ENERGY PREDICTED BY IDOCK:   -7.33 KCAL/MOL
REMARK 924 INTRA-LIGAND FREE ENERGY PREDICTED BY IDOCK:   -1.19 KCAL/MOL
REMARK 927      BINDING AFFINITY PREDICTED BY RF-SCORE:    0.00 PKD
ROOT
HETATM    1  C   UNL     1      -8.247   9.821  65.023  1.00  0.00    -0.142 C  
HETATM    2  O   UNL     1      -9.593  10.046  64.613  1.00  0.00    -0.289 OA 
ENDROOT
BRANCH   2   3
HETATM    3  C   UNL     1     -10.372  10.717  65.522  1.00  0.00    -0.241 A  
HETATM    4  C   UNL     1     -10.501  10.324  66.857  1.00  0.00    -0.291 A  
HETATM    5  C   UNL     1     -11.341  11.015  67.741  1.00  0.00    -0.365 A  
HETATM    6  C   UNL     1     -11.987  12.172  67.289  1.00  0.00    -0.158 A  
HETATM    7  H   UNL     1     -11.357  13.055  63.491  1.00  0.00     0.000 HD 
HETATM    8  O   UNL     1     -10.907  12.272  63.786  1.00  0.00    -0.366 OA 
HETATM    9  C   UNL     1     -11.833  12.602  65.967  1.00  0.00    -0.492 A  
HETATM   10  C   UNL     1     -11.034  11.870  65.088  1.00  0.00    -0.312 A  
BRANCH   5  11
HETATM   11  C   UNL     1     -11.528  10.571  69.130  1.00  0.00    -0.314 C  
HETATM   12  C   UNL     1     -12.622  10.854  69.857  1.00  0.00    -0.211 C  
BRANCH  12  13
HETATM   13  C   UNL     1     -12.741  10.393  71.270  1.00  0.00    -0.432 C  
HETATM   14  O   UNL     1     -12.955  11.189  72.185  1.00  0.00    -0.399 OA 
BRANCH  13  15
HETATM   15  C   UNL     1     -12.612   8.919  71.538  1.00  0.00    -0.385 C  
BRANCH  15  16
HETATM   16  C   UNL     1     -11.187   8.478  71.719  1.00  0.00    -0.309 C  
HETATM   17  O   UNL     1     -10.587   8.691  72.773  1.00  0.00    -0.155 OA 
BRANCH  16  18
HETATM   18  C   UNL     1     -10.553   7.728  70.596  1.00  0.00    -0.222 C  
HETATM   19  C   UNL     1     -11.240   6.756  69.975  1.00  0.00    -0.380 C  
BRANCH  19  20
HETATM   20  C   UNL     1     -10.762   5.972  68.824  1.00  0.00    -0.375 A  
HETATM   21  C   UNL     1      -9.879   4.886  68.963  1.00  0.00    -0.250 A  
HETATM   22  C   UNL     1      -9.373   4.230  67.836  1.00  0.00    -0.156 A  
HETATM   23  C   UNL     1     -11.129   6.389  67.535  1.00  0.00    -0.401 A  
HETATM   24  C   UNL     1      -9.762   4.670  66.568  1.00  0.00    -0.201 A  
HETATM   25  H   UNL     1      -9.535   4.359  64.583  1.00  0.00     0.000 HD 
HETATM   26  O   UNL     1      -9.270   4.060  65.445  1.00  0.00    -0.133 OA 
HETATM   27  C   UNL     1     -10.635   5.735  66.406  1.00  0.00    -0.219 A  
BRANCH  22  28
HETATM   28  O   UNL     1      -8.496   3.178  67.844  1.00  0.00    -0.082 OA 
HETATM   29  C   UNL     1      -7.557   3.133  68.911  1.00  0.00    -0.048 C  
ENDBRANCH  22  28
ENDBRANCH  19  20
ENDBRANCH  16  18
ENDBRANCH  15  16
ENDBRANCH  13  15
ENDBRANCH  12  13
ENDBRANCH   5  11
ENDBRANCH   2   3
TORSDOF 8
ENDMDL
MODEL      143
REMARK 921   NORMALIZED FREE ENERGY PREDICTED BY IDOCK:   -4.74 KCAL/MOL
REMARK 922        TOTAL FREE ENERGY PREDICTED BY IDOCK:   -8.51 KCAL/MOL
REMARK 923 INTER-LIGAND FREE ENERGY PREDICTED BY IDOCK:   -7.35 KCAL/MOL
REMARK 924 INTRA-LIGAND FREE ENERGY PREDICTED BY IDOCK:   -1.16 KCAL/MOL
REMARK 927      BINDING AFFINITY PREDICTED BY RF-SCORE:    0.00 PKD
ROOT
HETATM    1  C   UNL     1     -13.018  14.480  71.444  1.00  0.00    -0.333 C  
HETATM    2  O   UNL     1     -13.152  13.402  70.521  1.00  0.00     0.003 OA 
ENDROOT
BRANCH   2   3
HETATM    3  C   UNL     1     -12.013  13.091  69.822  1.00  0.00    -0.308 A  
HETATM    4  C   UNL     1     -10.964  13.995  69.627  1.00  0.00    -0.087 A  
HETATM    5  C   UNL     1      -9.836  13.648  68.871  1.00  0.00     0.019 A  
HETATM    6  C   UNL     1      -9.729  12.339  68.384  1.00  0.00    -0.191 A  
HETATM    7  H   UNL     1     -12.822  10.012  69.171  1.00  0.00     0.000 HD 
HETATM    8  O   UNL     1     -12.905  10.895  69.513  1.00  0.00    -0.211 OA 
HETATM    9  C   UNL     1     -10.752  11.411  68.609  1.00  0.00    -0.241 A  
HETATM   10  C   UNL     1     -11.890  11.792  69.319  1.00  0.00    -0.326 A  
BRANCH   5  11
HETATM   11  C   UNL     1      -8.757  14.613  68.611  1.00  0.00    -0.174 C  
HETATM   12  C   UNL     1      -8.697  15.828  69.183  1.00  0.00    -0.253 C  
BRANCH  12  13
HETATM   13  C   UNL     1      -7.588  16.770  68.860  1.00  0.00    -0.239 C  
HETATM   14  O   UNL     1      -6.653  16.948  69.641  1.00  0.00    -0.234 OA 
BRANCH  13  15
HETATM   15  C   UNL     1      -7.638  17.479  67.535  1.00  0.00    -0.209 C  
BRANCH  15  16
HETATM   16  C   UNL     1      -9.010  17.986  67.192  1.00  0.00    -0.255 C  
HETATM   17  O   UNL     1      -9.252  19.192  67.160  1.00  0.00    -0.288 OA 
BRANCH  16  18
HETATM   18  C   UNL     1     -10.048  16.972  66.839  1.00  0.00    -0.298 C  
HETATM   19  C   UNL     1      -9.770  16.030  65.925  1.00  0.00    -0.378 C  
BRANCH  19  20
HETATM   20  C   UNL     1     -10.674  14.941  65.518  1.00  0.00    -0.369 A  
HETATM   21  C   UNL     1     -10.345  14.023  64.504  1.00  0.00    -0.198 A  
HETATM   22  C   UNL     1     -11.272  13.064  64.082  1.00  0.00    -0.399 A  
HETATM   23  C   UNL     1     -11.950  14.881  66.101  1.00  0.00    -0.051 A  
HETATM   24  C   UNL     1     -12.532  13.032  64.686  1.00  0.00    -0.400 A  
HETATM   25  H   UNL     1     -14.323  12.095  64.694  1.00  0.00     0.000 HD 
HETATM   26  O   UNL     1     -13.467  12.117  64.283  1.00  0.00    -0.708 OA 
HETATM   27  C   UNL     1     -12.878  13.923  65.691  1.00  0.00    -0.467 A  
BRANCH  22  28
HETATM   28  O   UNL     1     -11.075  12.135  63.095  1.00  0.00    -0.359 OA 
HETATM   29  C   UNL     1      -9.980  11.243  63.262  1.00  0.00    -0.393 C  
ENDBRANCH  22  28
ENDBRANCH  19  20
ENDBRANCH  16  18
ENDBRANCH  15  16
ENDBRANCH  13  15
ENDBRANCH  12  13
ENDBRANCH   5  11
ENDBRANCH   2   3
TORSDOF 8
ENDMDL
MODEL      144
REMARK 921   NORMALIZED FREE ENERGY PREDICTED BY IDOCK:   -4.74 KCAL/MOL
REMARK 922        TOTAL FREE ENERGY PREDICTED BY IDOCK:   -8.50 KCAL/MOL
REMARK 923 INTER-LIGAND FREE ENERGY PREDICTED BY IDOCK:   -6.97 KCAL/MOL
REMARK 924 INTRA-LIGAND FREE ENERGY PREDICTED BY IDOCK:   -1.53 KCAL/MOL
REMARK 927      BINDING AFFINITY PREDICTED BY RF-SCORE:    0.00 PKD
ROOT
HETATM    1  C   UNL     1     -12.345  14.316  64.120  1.00  0.00    -0.327 C  
HETATM    2  O   UNL     1     -11.074  13.881  64.595  1.00  0.00    -0.362 OA 
ENDROOT
BRANCH   2   3
HETATM    3  C   UNL     1     -10.951  13.831  65.962  1.00  0.00    -0.284 A  
HETATM    4  C   UNL     1     -11.443  12.776  66.736  1.00  0.00    -0.399 A  
HETATM    5  C   UNL     1     -11.333  12.785  68.133  1.00  0.00    -0.329 A  
HETATM    6  C   UNL     1     -10.635  13.833  68.745  1.00  0.00    -0.253 A  
HETATM    7  H   UNL     1      -9.304  16.614  66.276  1.00  0.00     0.000 HD 
HETATM    8  O   UNL     1      -9.770  15.906  65.846  1.00  0.00    -0.310 OA 
HETATM    9  C   UNL     1     -10.099  14.874  67.979  1.00  0.00    -0.221 A  
HETATM   10  C   UNL     1     -10.266  14.872  66.594  1.00  0.00    -0.261 A  
BRANCH   5  11
HETATM   11  C   UNL     1     -11.902  11.709  68.957  1.00  0.00    -0.391 C  
HETATM   12  C   UNL     1     -11.620  11.547  70.261  1.00  0.00    -0.305 C  
BRANCH  12  13
HETATM   13  C   UNL     1     -12.213  10.420  71.036  1.00  0.00    -0.393 C  
HETATM   14  O   UNL     1     -13.058  10.620  71.909  1.00  0.00    -0.469 OA 
BRANCH  13  15
HETATM   15  C   UNL     1     -11.760   9.026  70.700  1.00  0.00    -0.237 C  
BRANCH  15  16
HETATM   16  C   UNL     1     -10.265   8.872  70.728  1.00  0.00    -0.226 C  
HETATM   17  O   UNL     1      -9.640   8.947  71.786  1.00  0.00    -0.287 OA 
BRANCH  16  18
HETATM   18  C   UNL     1      -9.582   8.572  69.436  1.00  0.00    -0.170 C  
HETATM   19  C   UNL     1     -10.138   8.975  68.282  1.00  0.00    -0.223 C  
BRANCH  19  20
HETATM   20  C   UNL     1      -9.553   8.795  66.943  1.00  0.00    -0.249 A  
HETATM   21  C   UNL     1      -8.572   7.825  66.670  1.00  0.00    -0.138 A  
HETATM   22  C   UNL     1      -7.974   7.752  65.407  1.00  0.00    -0.125 A  
HETATM   23  C   UNL     1      -9.925   9.691  65.927  1.00  0.00    -0.351 A  
HETATM   24  C   UNL     1      -8.369   8.658  64.420  1.00  0.00    -0.139 A  
HETATM   25  H   UNL     1      -8.059   9.240  62.508  1.00  0.00     0.000 HD 
HETATM   26  O   UNL     1      -7.790   8.624  63.180  1.00  0.00    -0.137 OA 
HETATM   27  C   UNL     1      -9.339   9.620  64.664  1.00  0.00    -0.271 A  
BRANCH  22  28
HETATM   28  O   UNL     1      -6.998   6.868  65.030  1.00  0.00    -0.049 OA 
HETATM   29  C   UNL     1      -7.144   5.523  65.468  1.00  0.00    -0.066 C  
ENDBRANCH  22  28
ENDBRANCH  19  20
ENDBRANCH  16  18
ENDBRANCH  15  16
ENDBRANCH  13  15
ENDBRANCH  12  13
ENDBRANCH   5  11
ENDBRANCH   2   3
TORSDOF 8
ENDMDL
MODEL      145
REMARK 921   NORMALIZED FREE ENERGY PREDICTED BY IDOCK:   -4.74 KCAL/MOL
REMARK 922        TOTAL FREE ENERGY PREDICTED BY IDOCK:   -8.50 KCAL/MOL
REMARK 923 INTER-LIGAND FREE ENERGY PREDICTED BY IDOCK:   -7.68 KCAL/MOL
REMARK 924 INTRA-LIGAND FREE ENERGY PREDICTED BY IDOCK:   -0.82 KCAL/MOL
REMARK 927      BINDING AFFINITY PREDICTED BY RF-SCORE:    0.00 PKD
ROOT
HETATM    1  C   UNL     1     -11.854  14.171  66.548  1.00  0.00    -0.419 C  
HETATM    2  O   UNL     1     -10.910  14.213  67.615  1.00  0.00    -0.255 OA 
ENDROOT
BRANCH   2   3
HETATM    3  C   UNL     1     -11.409  13.865  68.846  1.00  0.00    -0.282 A  
HETATM    4  C   UNL     1     -11.739  12.552  69.195  1.00  0.00    -0.375 A  
HETATM    5  C   UNL     1     -12.285  12.247  70.449  1.00  0.00    -0.371 A  
HETATM    6  C   UNL     1     -12.413  13.273  71.393  1.00  0.00    -0.284 A  
HETATM    7  H   UNL     1     -11.324  16.851  70.124  1.00  0.00     0.000 HD 
HETATM    8  O   UNL     1     -11.225  16.164  69.475  1.00  0.00    -0.317 OA 
HETATM    9  C   UNL     1     -12.047  14.585  71.073  1.00  0.00    -0.409 A  
HETATM   10  C   UNL     1     -11.555  14.876  69.800  1.00  0.00    -0.303 A  
BRANCH   5  11
HETATM   11  C   UNL     1     -12.690  10.878  70.799  1.00  0.00    -0.431 C  
HETATM   12  C   UNL     1     -12.914  10.473  72.061  1.00  0.00    -0.490 C  
BRANCH  12  13
HETATM   13  C   UNL     1     -13.301   9.063  72.353  1.00  0.00    -0.460 C  
HETATM   14  O   UNL     1     -14.080   8.790  73.266  1.00  0.00    -0.215 OA 
BRANCH  13  15
HETATM   15  C   UNL     1     -12.724   7.985  71.478  1.00  0.00    -0.325 C  
BRANCH  15  16
HETATM   16  C   UNL     1     -11.279   7.699  71.774  1.00  0.00    -0.247 C  
HETATM   17  O   UNL     1     -10.788   7.979  72.868  1.00  0.00    -0.366 OA 
BRANCH  16  18
HETATM   18  C   UNL     1     -10.483   7.016  70.712  1.00  0.00    -0.231 C  
HETATM   19  C   UNL     1     -11.052   6.050  69.974  1.00  0.00    -0.451 C  
BRANCH  19  20
HETATM   20  C   UNL     1     -10.406   5.330  68.864  1.00  0.00    -0.228 A  
HETATM   21  C   UNL     1      -9.659   4.154  69.058  1.00  0.00    -0.232 A  
HETATM   22  C   UNL     1      -8.982   3.555  67.991  1.00  0.00    -0.135 A  
HETATM   23  C   UNL     1     -10.461   5.896  67.580  1.00  0.00    -0.306 A  
HETATM   24  C   UNL     1      -9.061   4.144  66.726  1.00  0.00    -0.137 A  
HETATM   25  H   UNL     1      -8.448   3.993  64.805  1.00  0.00     0.000 HD 
HETATM   26  O   UNL     1      -8.394   3.593  65.665  1.00  0.00    -0.103 OA 
HETATM   27  C   UNL     1      -9.795   5.301  66.509  1.00  0.00    -0.204 A  
BRANCH  22  28
HETATM   28  O   UNL     1      -8.210   2.425  68.060  1.00  0.00    -0.061 OA 
HETATM   29  C   UNL     1      -6.903   2.572  68.601  1.00  0.00    -0.040 C  
ENDBRANCH  22  28
ENDBRANCH  19  20
ENDBRANCH  16  18
ENDBRANCH  15  16
ENDBRANCH  13  15
ENDBRANCH  12  13
ENDBRANCH   5  11
ENDBRANCH   2   3
TORSDOF 8
ENDMDL
MODEL      146
REMARK 921   NORMALIZED FREE ENERGY PREDICTED BY IDOCK:   -4.73 KCAL/MOL
REMARK 922        TOTAL FREE ENERGY PREDICTED BY IDOCK:   -8.48 KCAL/MOL
REMARK 923 INTER-LIGAND FREE ENERGY PREDICTED BY IDOCK:   -7.82 KCAL/MOL
REMARK 924 INTRA-LIGAND FREE ENERGY PREDICTED BY IDOCK:   -0.67 KCAL/MOL
REMARK 927      BINDING AFFINITY PREDICTED BY RF-SCORE:    0.00 PKD
ROOT
HETATM    1  C   UNL     1      -7.529   4.971  64.607  1.00  0.00    -0.075 C  
HETATM    2  O   UNL     1      -8.728   4.220  64.777  1.00  0.00    -0.124 OA 
ENDROOT
BRANCH   2   3
HETATM    3  C   UNL     1      -8.928   3.723  66.041  1.00  0.00    -0.136 A  
HETATM    4  C   UNL     1      -9.140   4.536  67.159  1.00  0.00    -0.136 A  
HETATM    5  C   UNL     1      -9.298   3.987  68.438  1.00  0.00    -0.218 A  
HETATM    6  C   UNL     1      -9.331   2.594  68.573  1.00  0.00    -0.251 A  
HETATM    7  H   UNL     1      -8.777   0.583  65.219  1.00  0.00     0.000 HD 
HETATM    8  O   UNL     1      -8.758   1.527  65.112  1.00  0.00    -0.100 OA 
HETATM    9  C   UNL     1      -9.163   1.767  67.457  1.00  0.00    -0.157 A  
HETATM   10  C   UNL     1      -8.954   2.334  66.199  1.00  0.00    -0.108 A  
BRANCH   5  11
HETATM   11  C   UNL     1      -9.461   4.839  69.626  1.00  0.00    -0.223 C  
HETATM   12  C   UNL     1     -10.656   5.262  70.075  1.00  0.00    -0.300 C  
BRANCH  12  13
HETATM   13  C   UNL     1     -10.752   6.144  71.273  1.00  0.00    -0.256 C  
HETATM   14  O   UNL     1     -10.053   5.948  72.268  1.00  0.00    -0.178 OA 
BRANCH  13  15
HETATM   15  C   UNL     1     -11.716   7.296  71.217  1.00  0.00    -0.328 C  
BRANCH  15  16
HETATM   16  C   UNL     1     -11.068   8.584  70.794  1.00  0.00    -0.254 C  
HETATM   17  O   UNL     1     -10.116   8.588  70.014  1.00  0.00    -0.186 OA 
BRANCH  16  18
HETATM   18  C   UNL     1     -11.659   9.852  71.312  1.00  0.00    -0.456 C  
HETATM   19  C   UNL     1     -11.808  10.901  70.488  1.00  0.00    -0.457 C  
BRANCH  19  20
HETATM   20  C   UNL     1     -12.419  12.191  70.848  1.00  0.00    -0.374 A  
HETATM   21  C   UNL     1     -12.107  13.389  70.179  1.00  0.00    -0.415 A  
HETATM   22  C   UNL     1     -12.637  14.608  70.615  1.00  0.00    -0.357 A  
HETATM   23  C   UNL     1     -13.273  12.237  71.962  1.00  0.00    -0.508 A  
HETATM   24  C   UNL     1     -13.485  14.616  71.726  1.00  0.00    -0.373 A  
HETATM   25  H   UNL     1     -14.582  15.800  72.944  1.00  0.00     0.000 HD 
HETATM   26  O   UNL     1     -14.005  15.794  72.189  1.00  0.00    -0.463 OA 
HETATM   27  C   UNL     1     -13.812  13.447  72.399  1.00  0.00    -0.665 A  
BRANCH  22  28
HETATM   28  O   UNL     1     -12.392  15.836  70.061  1.00  0.00    -0.354 OA 
HETATM   29  C   UNL     1     -11.030  16.179  69.836  1.00  0.00    -0.362 C  
ENDBRANCH  22  28
ENDBRANCH  19  20
ENDBRANCH  16  18
ENDBRANCH  15  16
ENDBRANCH  13  15
ENDBRANCH  12  13
ENDBRANCH   5  11
ENDBRANCH   2   3
TORSDOF 8
ENDMDL
MODEL      147
REMARK 921   NORMALIZED FREE ENERGY PREDICTED BY IDOCK:   -4.72 KCAL/MOL
REMARK 922        TOTAL FREE ENERGY PREDICTED BY IDOCK:   -8.48 KCAL/MOL
REMARK 923 INTER-LIGAND FREE ENERGY PREDICTED BY IDOCK:   -7.74 KCAL/MOL
REMARK 924 INTRA-LIGAND FREE ENERGY PREDICTED BY IDOCK:   -0.74 KCAL/MOL
REMARK 927      BINDING AFFINITY PREDICTED BY RF-SCORE:    0.00 PKD
ROOT
HETATM    1  C   UNL     1      -9.684  10.587  63.359  1.00  0.00    -0.316 C  
HETATM    2  O   UNL     1      -8.898   9.834  64.279  1.00  0.00    -0.196 OA 
ENDROOT
BRANCH   2   3
HETATM    3  C   UNL     1      -9.473   9.641  65.511  1.00  0.00    -0.266 A  
HETATM    4  C   UNL     1     -10.230  10.618  66.165  1.00  0.00    -0.308 A  
HETATM    5  C   UNL     1     -10.763  10.392  67.440  1.00  0.00    -0.338 A  
HETATM    6  C   UNL     1     -10.604   9.128  68.022  1.00  0.00    -0.253 A  
HETATM    7  H   UNL     1      -8.482   6.569  65.889  1.00  0.00     0.000 HD 
HETATM    8  O   UNL     1      -8.588   7.420  65.479  1.00  0.00    -0.139 OA 
HETATM    9  C   UNL     1      -9.886   8.126  67.360  1.00  0.00    -0.242 A  
HETATM   10  C   UNL     1      -9.317   8.389  66.114  1.00  0.00    -0.201 A  
BRANCH   5  11
HETATM   11  C   UNL     1     -11.509  11.436  68.158  1.00  0.00    -0.375 C  
HETATM   12  C   UNL     1     -10.928  12.518  68.705  1.00  0.00    -0.291 C  
BRANCH  12  13
HETATM   13  C   UNL     1     -11.738  13.530  69.440  1.00  0.00    -0.325 C  
HETATM   14  O   UNL     1     -12.268  13.262  70.519  1.00  0.00    -0.354 OA 
BRANCH  13  15
HETATM   15  C   UNL     1     -11.867  14.899  68.831  1.00  0.00    -0.334 C  
BRANCH  15  16
HETATM   16  C   UNL     1     -11.504  14.929  67.373  1.00  0.00    -0.343 C  
HETATM   17  O   UNL     1     -12.227  14.402  66.528  1.00  0.00    -0.424 OA 
BRANCH  16  18
HETATM   18  C   UNL     1     -10.265  15.668  66.990  1.00  0.00    -0.274 C  
HETATM   19  C   UNL     1      -9.844  16.693  67.747  1.00  0.00    -0.252 C  
BRANCH  19  20
HETATM   20  C   UNL     1      -8.617  17.476  67.519  1.00  0.00    -0.222 A  
HETATM   21  C   UNL     1      -8.207  18.508  68.382  1.00  0.00    -0.351 A  
HETATM   22  C   UNL     1      -7.089  19.291  68.076  1.00  0.00    -0.255 A  
HETATM   23  C   UNL     1      -7.885  17.242  66.344  1.00  0.00    -0.345 A  
HETATM   24  C   UNL     1      -6.383  19.028  66.899  1.00  0.00    -0.183 A  
HETATM   25  H   UNL     1      -4.815  19.609  65.763  1.00  0.00     0.000 HD 
HETATM   26  O   UNL     1      -5.295  19.788  66.563  1.00  0.00    -0.163 OA 
HETATM   27  C   UNL     1      -6.764  18.012  66.035  1.00  0.00    -0.323 A  
BRANCH  22  28
HETATM   28  O   UNL     1      -6.607  20.332  68.825  1.00  0.00    -0.310 OA 
HETATM   29  C   UNL     1      -6.159  20.025  70.139  1.00  0.00    -0.358 C  
ENDBRANCH  22  28
ENDBRANCH  19  20
ENDBRANCH  16  18
ENDBRANCH  15  16
ENDBRANCH  13  15
ENDBRANCH  12  13
ENDBRANCH   5  11
ENDBRANCH   2   3
TORSDOF 8
ENDMDL
MODEL      148
REMARK 921   NORMALIZED FREE ENERGY PREDICTED BY IDOCK:   -4.71 KCAL/MOL
REMARK 922        TOTAL FREE ENERGY PREDICTED BY IDOCK:   -8.46 KCAL/MOL
REMARK 923 INTER-LIGAND FREE ENERGY PREDICTED BY IDOCK:   -7.05 KCAL/MOL
REMARK 924 INTRA-LIGAND FREE ENERGY PREDICTED BY IDOCK:   -1.40 KCAL/MOL
REMARK 927      BINDING AFFINITY PREDICTED BY RF-SCORE:    0.00 PKD
ROOT
HETATM    1  C   UNL     1     -10.222  17.160  68.479  1.00  0.00    -0.346 C  
HETATM    2  O   UNL     1     -10.977  16.648  67.384  1.00  0.00    -0.238 OA 
ENDROOT
BRANCH   2   3
HETATM    3  C   UNL     1     -11.198  15.293  67.414  1.00  0.00    -0.311 A  
HETATM    4  C   UNL     1     -11.494  14.592  68.587  1.00  0.00    -0.326 A  
HETATM    5  C   UNL     1     -11.672  13.202  68.579  1.00  0.00    -0.387 A  
HETATM    6  C   UNL     1     -11.639  12.528  67.352  1.00  0.00    -0.434 A  
HETATM    7  H   UNL     1     -10.855  14.803  64.220  1.00  0.00     0.000 HD 
HETATM    8  O   UNL     1     -10.881  15.275  65.044  1.00  0.00    -0.390 OA 
HETATM    9  C   UNL     1     -11.386  13.223  66.164  1.00  0.00    -0.335 A  
HETATM   10  C   UNL     1     -11.160  14.599  66.201  1.00  0.00    -0.334 A  
BRANCH   5  11
HETATM   11  C   UNL     1     -11.924  12.452  69.818  1.00  0.00    -0.359 C  
HETATM   12  C   UNL     1     -12.298  11.161  69.838  1.00  0.00    -0.330 C  
BRANCH  12  13
HETATM   13  C   UNL     1     -12.560  10.463  71.129  1.00  0.00    -0.410 C  
HETATM   14  O   UNL     1     -13.197  11.007  72.031  1.00  0.00    -0.499 OA 
BRANCH  13  15
HETATM   15  C   UNL     1     -12.041   9.061  71.283  1.00  0.00    -0.375 C  
BRANCH  15  16
HETATM   16  C   UNL     1     -10.540   8.987  71.276  1.00  0.00    -0.308 C  
HETATM   17  O   UNL     1      -9.903   8.928  72.328  1.00  0.00    -0.284 OA 
BRANCH  16  18
HETATM   18  C   UNL     1      -9.861   8.935  69.948  1.00  0.00    -0.190 C  
HETATM   19  C   UNL     1      -9.134   9.984  69.532  1.00  0.00    -0.236 C  
BRANCH  19  20
HETATM   20  C   UNL     1      -8.372  10.051  68.274  1.00  0.00    -0.110 A  
HETATM   21  C   UNL     1      -8.105   8.914  67.490  1.00  0.00    -0.109 A  
HETATM   22  C   UNL     1      -7.295   9.007  66.353  1.00  0.00    -0.088 A  
HETATM   23  C   UNL     1      -7.814  11.283  67.898  1.00  0.00    -0.116 A  
HETATM   24  C   UNL     1      -6.757  10.250  66.007  1.00  0.00    -0.114 A  
HETATM   25  H   UNL     1      -5.581  11.215  64.675  1.00  0.00     0.000 HD 
HETATM   26  O   UNL     1      -5.947  10.370  64.911  1.00  0.00    -0.126 OA 
HETATM   27  C   UNL     1      -7.011  11.386  66.762  1.00  0.00    -0.128 A  
BRANCH  22  28
HETATM   28  O   UNL     1      -6.948   7.972  65.525  1.00  0.00    -0.058 OA 
HETATM   29  C   UNL     1      -7.875   6.899  65.416  1.00  0.00    -0.115 C  
ENDBRANCH  22  28
ENDBRANCH  19  20
ENDBRANCH  16  18
ENDBRANCH  15  16
ENDBRANCH  13  15
ENDBRANCH  12  13
ENDBRANCH   5  11
ENDBRANCH   2   3
TORSDOF 8
ENDMDL
MODEL      149
REMARK 921   NORMALIZED FREE ENERGY PREDICTED BY IDOCK:   -4.70 KCAL/MOL
REMARK 922        TOTAL FREE ENERGY PREDICTED BY IDOCK:   -8.45 KCAL/MOL
REMARK 923 INTER-LIGAND FREE ENERGY PREDICTED BY IDOCK:   -8.01 KCAL/MOL
REMARK 924 INTRA-LIGAND FREE ENERGY PREDICTED BY IDOCK:   -0.44 KCAL/MOL
REMARK 927      BINDING AFFINITY PREDICTED BY RF-SCORE:    0.00 PKD
ROOT
HETATM    1  C   UNL     1      -9.804  18.245  67.994  1.00  0.00    -0.330 C  
HETATM    2  O   UNL     1     -10.457  17.624  69.097  1.00  0.00    -0.331 OA 
ENDROOT
BRANCH   2   3
HETATM    3  C   UNL     1     -11.003  16.393  68.831  1.00  0.00    -0.332 A  
HETATM    4  C   UNL     1     -10.966  15.796  67.567  1.00  0.00    -0.293 A  
HETATM    5  C   UNL     1     -11.572  14.556  67.330  1.00  0.00    -0.405 A  
HETATM    6  C   UNL     1     -12.145  13.870  68.408  1.00  0.00    -0.327 A  
HETATM    7  H   UNL     1     -12.019  15.790  71.858  1.00  0.00     0.000 HD 
HETATM    8  O   UNL     1     -11.622  16.263  71.137  1.00  0.00    -0.427 OA 
HETATM    9  C   UNL     1     -12.151  14.435  69.688  1.00  0.00    -0.381 A  
HETATM   10  C   UNL     1     -11.588  15.695  69.892  1.00  0.00    -0.347 A  
BRANCH   5  11
HETATM   11  C   UNL     1     -11.589  13.951  65.990  1.00  0.00    -0.359 C  
HETATM   12  C   UNL     1     -12.257  12.823  65.695  1.00  0.00    -0.503 C  
BRANCH  12  13
HETATM   13  C   UNL     1     -12.215  12.248  64.320  1.00  0.00    -0.425 C  
HETATM   14  O   UNL     1     -13.210  12.256  63.594  1.00  0.00    -0.758 OA 
BRANCH  13  15
HETATM   15  C   UNL     1     -10.910  11.677  63.840  1.00  0.00    -0.471 C  
BRANCH  15  16
HETATM   16  C   UNL     1     -10.018  11.227  64.963  1.00  0.00    -0.274 C  
HETATM   17  O   UNL     1      -9.113  11.948  65.382  1.00  0.00    -0.042 OA 
BRANCH  16  18
HETATM   18  C   UNL     1     -10.310   9.900  65.581  1.00  0.00    -0.115 C  
HETATM   19  C   UNL     1      -9.318   9.010  65.741  1.00  0.00    -0.302 C  
BRANCH  19  20
HETATM   20  C   UNL     1      -9.449   7.689  66.378  1.00  0.00    -0.224 A  
HETATM   21  C   UNL     1      -8.490   6.673  66.217  1.00  0.00    -0.130 A  
HETATM   22  C   UNL     1      -8.701   5.401  66.760  1.00  0.00    -0.113 A  
HETATM   23  C   UNL     1     -10.624   7.407  67.093  1.00  0.00    -0.413 A  
HETATM   24  C   UNL     1      -9.881   5.157  67.468  1.00  0.00    -0.162 A  
HETATM   25  H   UNL     1     -10.927   3.752  68.478  1.00  0.00     0.000 HD 
HETATM   26  O   UNL     1     -10.125   3.918  67.996  1.00  0.00     0.054 OA 
HETATM   27  C   UNL     1     -10.839   6.144  67.644  1.00  0.00    -0.421 A  
BRANCH  22  28
HETATM   28  O   UNL     1      -7.853   4.330  66.654  1.00  0.00    -0.096 OA 
HETATM   29  C   UNL     1      -7.810   3.667  65.397  1.00  0.00    -0.086 C  
ENDBRANCH  22  28
ENDBRANCH  19  20
ENDBRANCH  16  18
ENDBRANCH  15  16
ENDBRANCH  13  15
ENDBRANCH  12  13
ENDBRANCH   5  11
ENDBRANCH   2   3
TORSDOF 8
ENDMDL
MODEL      150
REMARK 921   NORMALIZED FREE ENERGY PREDICTED BY IDOCK:   -4.70 KCAL/MOL
REMARK 922        TOTAL FREE ENERGY PREDICTED BY IDOCK:   -8.44 KCAL/MOL
REMARK 923 INTER-LIGAND FREE ENERGY PREDICTED BY IDOCK:   -7.66 KCAL/MOL
REMARK 924 INTRA-LIGAND FREE ENERGY PREDICTED BY IDOCK:   -0.78 KCAL/MOL
REMARK 927      BINDING AFFINITY PREDICTED BY RF-SCORE:    0.00 PKD
ROOT
HETATM    1  C   UNL     1      -5.777  14.679  69.983  1.00  0.00    -0.121 C  
HETATM    2  O   UNL     1      -5.451  15.687  69.030  1.00  0.00    -0.102 OA 
ENDROOT
BRANCH   2   3
HETATM    3  C   UNL     1      -6.529  16.325  68.469  1.00  0.00    -0.129 A  
HETATM    4  C   UNL     1      -7.344  15.739  67.495  1.00  0.00    -0.205 A  
HETATM    5  C   UNL     1      -8.410  16.443  66.919  1.00  0.00    -0.263 A  
HETATM    6  C   UNL     1      -8.709  17.724  67.400  1.00  0.00    -0.235 A  
HETATM    7  H   UNL     1      -6.266  19.062  70.201  1.00  0.00     0.000 HD 
HETATM    8  O   UNL     1      -6.055  18.190  69.888  1.00  0.00    -0.229 OA 
HETATM    9  C   UNL     1      -7.928  18.306  68.405  1.00  0.00    -0.320 A  
HETATM   10  C   UNL     1      -6.839  17.609  68.928  1.00  0.00    -0.243 A  
BRANCH   5  11
HETATM   11  C   UNL     1      -9.233  15.855  65.852  1.00  0.00    -0.332 C  
HETATM   12  C   UNL     1     -10.508  16.210  65.620  1.00  0.00    -0.402 C  
BRANCH  12  13
HETATM   13  C   UNL     1     -11.297  15.558  64.536  1.00  0.00    -0.314 C  
HETATM   14  O   UNL     1     -11.974  16.223  63.751  1.00  0.00    -0.973 OA 
BRANCH  13  15
HETATM   15  C   UNL     1     -11.220  14.061  64.419  1.00  0.00    -0.318 C  
BRANCH  15  16
HETATM   16  C   UNL     1     -11.704  13.351  65.652  1.00  0.00    -0.346 C  
HETATM   17  O   UNL     1     -12.575  13.844  66.368  1.00  0.00    -0.413 OA 
BRANCH  16  18
HETATM   18  C   UNL     1     -11.125  12.006  65.940  1.00  0.00    -0.369 C  
HETATM   19  C   UNL     1     -11.329  11.438  67.139  1.00  0.00    -0.327 C  
BRANCH  19  20
HETATM   20  C   UNL     1     -10.864  10.101  67.542  1.00  0.00    -0.349 A  
HETATM   21  C   UNL     1     -10.863   9.672  68.882  1.00  0.00    -0.201 A  
HETATM   22  C   UNL     1     -10.322   8.431  69.233  1.00  0.00    -0.214 A  
HETATM   23  C   UNL     1     -10.314   9.262  66.560  1.00  0.00    -0.270 A  
HETATM   24  C   UNL     1      -9.786   7.620  68.229  1.00  0.00    -0.157 A  
HETATM   25  H   UNL     1      -8.868   5.857  67.859  1.00  0.00     0.000 HD 
HETATM   26  O   UNL     1      -9.233   6.408  68.542  1.00  0.00    -0.126 OA 
HETATM   27  C   UNL     1      -9.781   8.019  66.900  1.00  0.00    -0.291 A  
BRANCH  22  28
HETATM   28  O   UNL     1     -10.246   7.915  70.500  1.00  0.00    -0.196 OA 
HETATM   29  C   UNL     1      -9.289   8.499  71.374  1.00  0.00    -0.211 C  
ENDBRANCH  22  28
ENDBRANCH  19  20
ENDBRANCH  16  18
ENDBRANCH  15  16
ENDBRANCH  13  15
ENDBRANCH  12  13
ENDBRANCH   5  11
ENDBRANCH   2   3
TORSDOF 8
ENDMDL
MODEL      151
REMARK 921   NORMALIZED FREE ENERGY PREDICTED BY IDOCK:   -4.69 KCAL/MOL
REMARK 922        TOTAL FREE ENERGY PREDICTED BY IDOCK:   -8.43 KCAL/MOL
REMARK 923 INTER-LIGAND FREE ENERGY PREDICTED BY IDOCK:   -6.66 KCAL/MOL
REMARK 924 INTRA-LIGAND FREE ENERGY PREDICTED BY IDOCK:   -1.78 KCAL/MOL
REMARK 927      BINDING AFFINITY PREDICTED BY RF-SCORE:    0.00 PKD
ROOT
HETATM    1  C   UNL     1     -11.105   6.748  71.758  1.00  0.00    -0.242 C  
HETATM    2  O   UNL     1     -12.376   7.391  71.788  1.00  0.00    -0.308 OA 
ENDROOT
BRANCH   2   3
HETATM    3  C   UNL     1     -12.365   8.717  71.434  1.00  0.00    -0.306 A  
HETATM    4  C   UNL     1     -11.562   9.230  70.410  1.00  0.00    -0.215 A  
HETATM    5  C   UNL     1     -11.551  10.598  70.110  1.00  0.00    -0.414 A  
HETATM    6  C   UNL     1     -12.432  11.444  70.795  1.00  0.00    -0.460 A  
HETATM    7  H   UNL     1     -14.617   9.677  73.571  1.00  0.00     0.000 HD 
HETATM    8  O   UNL     1     -14.029   9.090  73.110  1.00  0.00    -0.313 OA 
HETATM    9  C   UNL     1     -13.273  10.938  71.793  1.00  0.00    -0.513 A  
HETATM   10  C   UNL     1     -13.230   9.581  72.113  1.00  0.00    -0.451 A  
BRANCH   5  11
HETATM   11  C   UNL     1     -10.665  11.152  69.076  1.00  0.00    -0.265 C  
HETATM   12  C   UNL     1     -11.109  11.850  68.017  1.00  0.00    -0.293 C  
BRANCH  12  13
HETATM   13  C   UNL     1     -10.159  12.365  66.990  1.00  0.00    -0.214 C  
HETATM   14  O   UNL     1     -10.433  13.351  66.304  1.00  0.00    -0.280 OA 
BRANCH  13  15
HETATM   15  C   UNL     1      -8.844  11.654  66.834  1.00  0.00    -0.190 C  
BRANCH  15  16
HETATM   16  C   UNL     1      -8.891  10.550  65.815  1.00  0.00    -0.175 C  
HETATM   17  O   UNL     1      -9.034  10.797  64.618  1.00  0.00    -0.195 OA 
BRANCH  16  18
HETATM   18  C   UNL     1      -8.705   9.153  66.308  1.00  0.00    -0.159 C  
HETATM   19  C   UNL     1      -9.744   8.494  66.844  1.00  0.00    -0.286 C  
BRANCH  19  20
HETATM   20  C   UNL     1      -9.718   7.102  67.323  1.00  0.00    -0.198 A  
HETATM   21  C   UNL     1      -9.120   6.731  68.540  1.00  0.00    -0.129 A  
HETATM   22  C   UNL     1      -9.032   5.385  68.910  1.00  0.00    -0.117 A  
HETATM   23  C   UNL     1     -10.228   6.099  66.482  1.00  0.00    -0.181 A  
HETATM   24  C   UNL     1      -9.552   4.413  68.051  1.00  0.00    -0.148 A  
HETATM   25  H   UNL     1      -9.819   2.426  67.792  1.00  0.00     0.000 HD 
HETATM   26  O   UNL     1      -9.466   3.087  68.376  1.00  0.00    -0.193 OA 
HETATM   27  C   UNL     1     -10.151   4.755  66.847  1.00  0.00    -0.246 A  
BRANCH  22  28
HETATM   28  O   UNL     1      -8.458   4.902  70.056  1.00  0.00    -0.081 OA 
HETATM   29  C   UNL     1      -7.378   5.651  70.599  1.00  0.00    -0.083 C  
ENDBRANCH  22  28
ENDBRANCH  19  20
ENDBRANCH  16  18
ENDBRANCH  15  16
ENDBRANCH  13  15
ENDBRANCH  12  13
ENDBRANCH   5  11
ENDBRANCH   2   3
TORSDOF 8
ENDMDL
MODEL      152
REMARK 921   NORMALIZED FREE ENERGY PREDICTED BY IDOCK:   -4.69 KCAL/MOL
REMARK 922        TOTAL FREE ENERGY PREDICTED BY IDOCK:   -8.43 KCAL/MOL
REMARK 923 INTER-LIGAND FREE ENERGY PREDICTED BY IDOCK:   -6.76 KCAL/MOL
REMARK 924 INTRA-LIGAND FREE ENERGY PREDICTED BY IDOCK:   -1.67 KCAL/MOL
REMARK 927      BINDING AFFINITY PREDICTED BY RF-SCORE:    0.00 PKD
ROOT
HETATM    1  C   UNL     1     -11.582   5.922  72.479  1.00  0.00    -0.277 C  
HETATM    2  O   UNL     1     -12.477   6.809  71.813  1.00  0.00    -0.353 OA 
ENDROOT
BRANCH   2   3
HETATM    3  C   UNL     1     -11.876   7.745  71.009  1.00  0.00    -0.272 A  
HETATM    4  C   UNL     1     -11.017   7.413  69.957  1.00  0.00    -0.264 A  
HETATM    5  C   UNL     1     -10.392   8.403  69.187  1.00  0.00    -0.229 A  
HETATM    6  C   UNL     1     -10.713   9.744  69.428  1.00  0.00    -0.250 A  
HETATM    7  H   UNL     1     -13.227  10.345  72.415  1.00  0.00     0.000 HD 
HETATM    8  O   UNL     1     -13.024   9.430  72.259  1.00  0.00    -0.401 OA 
HETATM    9  C   UNL     1     -11.605  10.090  70.449  1.00  0.00    -0.379 A  
HETATM   10  C   UNL     1     -12.175   9.091  71.239  1.00  0.00    -0.312 A  
BRANCH   5  11
HETATM   11  C   UNL     1      -9.441   8.061  68.119  1.00  0.00    -0.152 C  
HETATM   12  C   UNL     1      -9.788   7.396  67.004  1.00  0.00    -0.273 C  
BRANCH  12  13
HETATM   13  C   UNL     1      -8.770   7.059  65.968  1.00  0.00    -0.144 C  
HETATM   14  O   UNL     1      -8.706   5.931  65.479  1.00  0.00    -0.154 OA 
BRANCH  13  15
HETATM   15  C   UNL     1      -7.838   8.152  65.523  1.00  0.00    -0.104 C  
BRANCH  15  16
HETATM   16  C   UNL     1      -8.436   9.040  64.468  1.00  0.00    -0.175 C  
HETATM   17  O   UNL     1      -8.402   8.724  63.279  1.00  0.00    -0.186 OA 
BRANCH  16  18
HETATM   18  C   UNL     1      -9.117  10.287  64.926  1.00  0.00    -0.250 C  
HETATM   19  C   UNL     1      -8.787  10.826  66.110  1.00  0.00    -0.187 C  
BRANCH  19  20
HETATM   20  C   UNL     1      -9.336  12.076  66.663  1.00  0.00    -0.221 A  
HETATM   21  C   UNL     1     -10.500  12.680  66.155  1.00  0.00    -0.278 A  
HETATM   22  C   UNL     1     -10.933  13.917  66.645  1.00  0.00    -0.301 A  
HETATM   23  C   UNL     1      -8.614  12.732  67.673  1.00  0.00    -0.181 A  
HETATM   24  C   UNL     1     -10.191  14.541  67.652  1.00  0.00    -0.225 A  
HETATM   25  H   UNL     1     -10.074  16.184  68.825  1.00  0.00     0.000 HD 
HETATM   26  O   UNL     1     -10.578  15.759  68.140  1.00  0.00    -0.258 OA 
HETATM   27  C   UNL     1      -9.043  13.961  68.173  1.00  0.00    -0.193 A  
BRANCH  22  28
HETATM   28  O   UNL     1     -12.034  14.611  66.218  1.00  0.00    -0.348 OA 
HETATM   29  C   UNL     1     -12.745  14.070  65.112  1.00  0.00    -0.389 C  
ENDBRANCH  22  28
ENDBRANCH  19  20
ENDBRANCH  16  18
ENDBRANCH  15  16
ENDBRANCH  13  15
ENDBRANCH  12  13
ENDBRANCH   5  11
ENDBRANCH   2   3
TORSDOF 8
ENDMDL
MODEL      153
REMARK 921   NORMALIZED FREE ENERGY PREDICTED BY IDOCK:   -4.66 KCAL/MOL
REMARK 922        TOTAL FREE ENERGY PREDICTED BY IDOCK:   -8.38 KCAL/MOL
REMARK 923 INTER-LIGAND FREE ENERGY PREDICTED BY IDOCK:   -6.88 KCAL/MOL
REMARK 924 INTRA-LIGAND FREE ENERGY PREDICTED BY IDOCK:   -1.50 KCAL/MOL
REMARK 927      BINDING AFFINITY PREDICTED BY RF-SCORE:    0.00 PKD
ROOT
HETATM    1  C   UNL     1      -8.964   7.957  71.035  1.00  0.00    -0.142 C  
HETATM    2  O   UNL     1     -10.176   8.002  70.286  1.00  0.00    -0.195 OA 
ENDROOT
BRANCH   2   3
HETATM    3  C   UNL     1     -11.114   8.889  70.753  1.00  0.00    -0.261 A  
HETATM    4  C   UNL     1     -11.273  10.179  70.238  1.00  0.00    -0.387 A  
HETATM    5  C   UNL     1     -12.216  11.066  70.773  1.00  0.00    -0.480 A  
HETATM    6  C   UNL     1     -13.072  10.608  71.782  1.00  0.00    -0.571 A  
HETATM    7  H   UNL     1     -12.419   6.896  72.963  1.00  0.00     0.000 HD 
HETATM    8  O   UNL     1     -11.836   7.191  72.274  1.00  0.00    -0.280 OA 
HETATM    9  C   UNL     1     -12.954   9.305  72.278  1.00  0.00    -0.488 A  
HETATM   10  C   UNL     1     -11.973   8.455  71.768  1.00  0.00    -0.325 A  
BRANCH   5  11
HETATM   11  C   UNL     1     -12.346  12.443  70.276  1.00  0.00    -0.264 C  
HETATM   12  C   UNL     1     -12.425  13.516  71.081  1.00  0.00    -0.424 C  
BRANCH  12  13
HETATM   13  C   UNL     1     -12.579  14.886  70.514  1.00  0.00    -0.360 C  
HETATM   14  O   UNL     1     -12.938  15.832  71.217  1.00  0.00    -0.489 OA 
BRANCH  13  15
HETATM   15  C   UNL     1     -12.258  15.081  69.058  1.00  0.00    -0.160 C  
BRANCH  15  16
HETATM   16  C   UNL     1     -10.943  15.773  68.834  1.00  0.00    -0.283 C  
HETATM   17  O   UNL     1     -10.869  17.001  68.812  1.00  0.00    -0.322 OA 
BRANCH  16  18
HETATM   18  C   UNL     1      -9.730  14.914  68.695  1.00  0.00    -0.226 C  
HETATM   19  C   UNL     1      -9.842  13.692  68.152  1.00  0.00    -0.236 C  
BRANCH  19  20
HETATM   20  C   UNL     1      -8.728  12.760  67.907  1.00  0.00    -0.185 A  
HETATM   21  C   UNL     1      -8.811  11.709  66.977  1.00  0.00    -0.177 A  
HETATM   22  C   UNL     1      -7.766  10.789  66.845  1.00  0.00    -0.130 A  
HETATM   23  C   UNL     1      -7.577  12.874  68.704  1.00  0.00    -0.085 A  
HETATM   24  C   UNL     1      -6.634  10.933  67.652  1.00  0.00    -0.065 A  
HETATM   25  H   UNL     1      -4.833  10.137  68.109  1.00  0.00     0.000 HD 
HETATM   26  O   UNL     1      -5.602  10.039  67.560  1.00  0.00    -0.042 OA 
HETATM   27  C   UNL     1      -6.526  11.965  68.573  1.00  0.00    -0.057 A  
BRANCH  22  28
HETATM   28  O   UNL     1      -7.740   9.717  65.993  1.00  0.00    -0.099 OA 
HETATM   29  C   UNL     1      -7.621  10.003  64.605  1.00  0.00    -0.143 C  
ENDBRANCH  22  28
ENDBRANCH  19  20
ENDBRANCH  16  18
ENDBRANCH  15  16
ENDBRANCH  13  15
ENDBRANCH  12  13
ENDBRANCH   5  11
ENDBRANCH   2   3
TORSDOF 8
ENDMDL
MODEL      154
REMARK 921   NORMALIZED FREE ENERGY PREDICTED BY IDOCK:   -4.64 KCAL/MOL
REMARK 922        TOTAL FREE ENERGY PREDICTED BY IDOCK:   -8.35 KCAL/MOL
REMARK 923 INTER-LIGAND FREE ENERGY PREDICTED BY IDOCK:   -6.46 KCAL/MOL
REMARK 924 INTRA-LIGAND FREE ENERGY PREDICTED BY IDOCK:   -1.89 KCAL/MOL
REMARK 927      BINDING AFFINITY PREDICTED BY RF-SCORE:    0.00 PKD
ROOT
HETATM    1  C   UNL     1      -7.440   7.885  72.033  1.00  0.00    -0.082 C  
HETATM    2  O   UNL     1      -8.671   7.229  72.324  1.00  0.00    -0.119 OA 
ENDROOT
BRANCH   2   3
HETATM    3  C   UNL     1      -9.799   7.935  71.985  1.00  0.00    -0.192 A  
HETATM    4  C   UNL     1      -9.787   9.022  71.107  1.00  0.00    -0.371 A  
HETATM    5  C   UNL     1     -10.955   9.741  70.821  1.00  0.00    -0.406 A  
HETATM    6  C   UNL     1     -12.168   9.294  71.362  1.00  0.00    -0.426 A  
HETATM    7  H   UNL     1     -11.876   6.153  73.739  1.00  0.00     0.000 HD 
HETATM    8  O   UNL     1     -11.047   6.441  73.374  1.00  0.00    -0.200 OA 
HETATM    9  C   UNL     1     -12.202   8.181  72.208  1.00  0.00    -0.397 A  
HETATM   10  C   UNL     1     -11.019   7.512  72.522  1.00  0.00    -0.313 A  
BRANCH   5  11
HETATM   11  C   UNL     1     -10.938  10.922  69.947  1.00  0.00    -0.266 C  
HETATM   12  C   UNL     1     -12.049  11.570  69.555  1.00  0.00    -0.351 C  
BRANCH  12  13
HETATM   13  C   UNL     1     -11.964  12.750  68.648  1.00  0.00    -0.233 C  
HETATM   14  O   UNL     1     -11.824  13.889  69.093  1.00  0.00    -0.313 OA 
BRANCH  13  15
HETATM   15  C   UNL     1     -12.035  12.499  67.167  1.00  0.00    -0.285 C  
BRANCH  15  16
HETATM   16  C   UNL     1     -10.689  12.542  66.500  1.00  0.00    -0.240 C  
HETATM   17  O   UNL     1     -10.305  13.552  65.910  1.00  0.00    -0.286 OA 
BRANCH  16  18
HETATM   18  C   UNL     1      -9.820  11.335  66.629  1.00  0.00    -0.235 C  
HETATM   19  C   UNL     1     -10.372  10.113  66.581  1.00  0.00    -0.274 C  
BRANCH  19  20
HETATM   20  C   UNL     1      -9.635   8.839  66.642  1.00  0.00    -0.283 A  
HETATM   21  C   UNL     1      -9.873   7.875  67.638  1.00  0.00    -0.212 A  
HETATM   22  C   UNL     1      -9.084   6.723  67.718  1.00  0.00    -0.117 A  
HETATM   23  C   UNL     1      -8.591   8.628  65.727  1.00  0.00    -0.184 A  
HETATM   24  C   UNL     1      -8.055   6.543  66.789  1.00  0.00    -0.109 A  
HETATM   25  H   UNL     1      -6.555   5.313  66.219  1.00  0.00     0.000 HD 
HETATM   26  O   UNL     1      -7.254   5.435  66.851  1.00  0.00    -0.075 OA 
HETATM   27  C   UNL     1      -7.805   7.478  65.794  1.00  0.00    -0.107 A  
BRANCH  22  28
HETATM   28  O   UNL     1      -9.206   5.727  68.651  1.00  0.00    -0.117 OA 
HETATM   29  C   UNL     1     -10.473   5.589  69.281  1.00  0.00    -0.266 C  
ENDBRANCH  22  28
ENDBRANCH  19  20
ENDBRANCH  16  18
ENDBRANCH  15  16
ENDBRANCH  13  15
ENDBRANCH  12  13
ENDBRANCH   5  11
ENDBRANCH   2   3
TORSDOF 8
ENDMDL
MODEL      155
REMARK 921   NORMALIZED FREE ENERGY PREDICTED BY IDOCK:   -4.62 KCAL/MOL
REMARK 922        TOTAL FREE ENERGY PREDICTED BY IDOCK:   -8.33 KCAL/MOL
REMARK 923 INTER-LIGAND FREE ENERGY PREDICTED BY IDOCK:   -6.55 KCAL/MOL
REMARK 924 INTRA-LIGAND FREE ENERGY PREDICTED BY IDOCK:   -1.77 KCAL/MOL
REMARK 927      BINDING AFFINITY PREDICTED BY RF-SCORE:    0.00 PKD
ROOT
HETATM    1  C   UNL     1      -6.513   6.441  70.394  1.00  0.00    -0.044 C  
HETATM    2  O   UNL     1      -7.740   5.724  70.501  1.00  0.00    -0.094 OA 
ENDROOT
BRANCH   2   3
HETATM    3  C   UNL     1      -8.705   6.086  69.594  1.00  0.00    -0.133 A  
HETATM    4  C   UNL     1      -8.579   7.187  68.741  1.00  0.00    -0.125 A  
HETATM    5  C   UNL     1      -9.608   7.545  67.859  1.00  0.00    -0.161 A  
HETATM    6  C   UNL     1     -10.739   6.724  67.777  1.00  0.00    -0.334 A  
HETATM    7  H   UNL     1     -10.755   3.655  70.263  1.00  0.00     0.000 HD 
HETATM    8  O   UNL     1      -9.978   4.199  70.325  1.00  0.00    -0.201 OA 
HETATM    9  C   UNL     1     -10.860   5.595  68.594  1.00  0.00    -0.190 A  
HETATM   10  C   UNL     1      -9.847   5.286  69.503  1.00  0.00    -0.200 A  
BRANCH   5  11
HETATM   11  C   UNL     1      -9.507   8.736  67.003  1.00  0.00    -0.218 C  
HETATM   12  C   UNL     1      -8.352   9.381  66.764  1.00  0.00    -0.123 C  
BRANCH  12  13
HETATM   13  C   UNL     1      -8.320  10.598  65.904  1.00  0.00    -0.161 C  
HETATM   14  O   UNL     1      -8.257  10.511  64.677  1.00  0.00    -0.158 OA 
BRANCH  13  15
HETATM   15  C   UNL     1      -8.391  11.937  66.584  1.00  0.00    -0.117 C  
BRANCH  15  16
HETATM   16  C   UNL     1      -9.757  12.560  66.513  1.00  0.00    -0.246 C  
HETATM   17  O   UNL     1     -10.006  13.451  65.701  1.00  0.00    -0.285 OA 
BRANCH  16  18
HETATM   18  C   UNL     1     -10.807  12.018  67.425  1.00  0.00    -0.285 C  
HETATM   19  C   UNL     1     -10.480  11.668  68.678  1.00  0.00    -0.234 C  
BRANCH  19  20
HETATM   20  C   UNL     1     -11.418  11.169  69.699  1.00  0.00    -0.383 A  
HETATM   21  C   UNL     1     -12.217  12.027  70.475  1.00  0.00    -0.414 A  
HETATM   22  C   UNL     1     -13.022  11.519  71.500  1.00  0.00    -0.380 A  
HETATM   23  C   UNL     1     -11.440   9.791  69.967  1.00  0.00    -0.232 A  
HETATM   24  C   UNL     1     -13.021  10.142  71.738  1.00  0.00    -0.462 A  
HETATM   25  H   UNL     1     -13.784   8.679  72.907  1.00  0.00     0.000 HD 
HETATM   26  O   UNL     1     -13.784   9.615  72.745  1.00  0.00    -0.228 OA 
HETATM   27  C   UNL     1     -12.246   9.275  70.982  1.00  0.00    -0.322 A  
BRANCH  22  28
HETATM   28  O   UNL     1     -13.824  12.253  72.332  1.00  0.00    -0.269 OA 
HETATM   29  C   UNL     1     -13.765  13.668  72.198  1.00  0.00    -0.555 C  
ENDBRANCH  22  28
ENDBRANCH  19  20
ENDBRANCH  16  18
ENDBRANCH  15  16
ENDBRANCH  13  15
ENDBRANCH  12  13
ENDBRANCH   5  11
ENDBRANCH   2   3
TORSDOF 8
ENDMDL
MODEL      156
REMARK 921   NORMALIZED FREE ENERGY PREDICTED BY IDOCK:   -4.61 KCAL/MOL
REMARK 922        TOTAL FREE ENERGY PREDICTED BY IDOCK:   -8.32 KCAL/MOL
REMARK 923 INTER-LIGAND FREE ENERGY PREDICTED BY IDOCK:   -6.94 KCAL/MOL
REMARK 924 INTRA-LIGAND FREE ENERGY PREDICTED BY IDOCK:   -1.38 KCAL/MOL
REMARK 927      BINDING AFFINITY PREDICTED BY RF-SCORE:    0.00 PKD
ROOT
HETATM    1  C   UNL     1     -13.741   8.959  71.919  1.00  0.00    -0.439 C  
HETATM    2  O   UNL     1     -13.444  10.292  72.328  1.00  0.00    -0.377 OA 
ENDROOT
BRANCH   2   3
HETATM    3  C   UNL     1     -12.913  11.095  71.349  1.00  0.00    -0.403 A  
HETATM    4  C   UNL     1     -12.409  10.600  70.143  1.00  0.00    -0.370 A  
HETATM    5  C   UNL     1     -11.838  11.452  69.188  1.00  0.00    -0.413 A  
HETATM    6  C   UNL     1     -11.860  12.833  69.421  1.00  0.00    -0.359 A  
HETATM    7  H   UNL     1     -13.420  13.914  72.885  1.00  0.00     0.000 HD 
HETATM    8  O   UNL     1     -13.417  12.975  72.738  1.00  0.00    -0.512 OA 
HETATM    9  C   UNL     1     -12.400  13.346  70.605  1.00  0.00    -0.423 A  
HETATM   10  C   UNL     1     -12.917  12.476  71.566  1.00  0.00    -0.280 A  
BRANCH   5  11
HETATM   11  C   UNL     1     -11.252  10.931  67.945  1.00  0.00    -0.387 C  
HETATM   12  C   UNL     1     -10.383  11.624  67.189  1.00  0.00    -0.247 C  
BRANCH  12  13
HETATM   13  C   UNL     1      -9.842  11.048  65.925  1.00  0.00    -0.232 C  
HETATM   14  O   UNL     1      -9.576  11.764  64.959  1.00  0.00    -0.218 OA 
BRANCH  13  15
HETATM   15  C   UNL     1      -9.610   9.563  65.877  1.00  0.00    -0.327 C  
BRANCH  15  16
HETATM   16  C   UNL     1      -8.230   9.170  66.325  1.00  0.00    -0.111 C  
HETATM   17  O   UNL     1      -7.258   9.314  65.584  1.00  0.00    -0.087 OA 
BRANCH  16  18
HETATM   18  C   UNL     1      -8.083   8.652  67.717  1.00  0.00    -0.107 C  
HETATM   19  C   UNL     1      -9.052   8.881  68.616  1.00  0.00    -0.137 C  
BRANCH  19  20
HETATM   20  C   UNL     1      -9.064   8.389  70.004  1.00  0.00    -0.150 A  
HETATM   21  C   UNL     1     -10.125   7.628  70.527  1.00  0.00    -0.189 A  
HETATM   22  C   UNL     1     -10.142   7.263  71.878  1.00  0.00    -0.178 A  
HETATM   23  C   UNL     1      -8.020   8.777  70.859  1.00  0.00    -0.155 A  
HETATM   24  C   UNL     1      -9.085   7.665  72.699  1.00  0.00    -0.157 A  
HETATM   25  H   UNL     1      -8.363   7.612  74.586  1.00  0.00     0.000 HD 
HETATM   26  O   UNL     1      -9.081   7.339  74.028  1.00  0.00    -0.208 OA 
HETATM   27  C   UNL     1      -8.025   8.411  72.204  1.00  0.00    -0.181 A  
BRANCH  22  28
HETATM   28  O   UNL     1     -11.125   6.544  72.504  1.00  0.00    -0.241 OA 
HETATM   29  C   UNL     1     -11.164   5.146  72.244  1.00  0.00    -0.053 C  
ENDBRANCH  22  28
ENDBRANCH  19  20
ENDBRANCH  16  18
ENDBRANCH  15  16
ENDBRANCH  13  15
ENDBRANCH  12  13
ENDBRANCH   5  11
ENDBRANCH   2   3
TORSDOF 8
ENDMDL
MODEL      157
REMARK 921   NORMALIZED FREE ENERGY PREDICTED BY IDOCK:   -4.61 KCAL/MOL
REMARK 922        TOTAL FREE ENERGY PREDICTED BY IDOCK:   -8.31 KCAL/MOL
REMARK 923 INTER-LIGAND FREE ENERGY PREDICTED BY IDOCK:   -8.48 KCAL/MOL
REMARK 924 INTRA-LIGAND FREE ENERGY PREDICTED BY IDOCK:    0.17 KCAL/MOL
REMARK 927      BINDING AFFINITY PREDICTED BY RF-SCORE:    0.00 PKD
ROOT
HETATM    1  C   UNL     1     -13.843   9.093  72.244  1.00  0.00    -0.463 C  
HETATM    2  O   UNL     1     -13.028  10.258  72.145  1.00  0.00    -0.416 OA 
ENDROOT
BRANCH   2   3
HETATM    3  C   UNL     1     -12.168  10.275  71.075  1.00  0.00    -0.384 A  
HETATM    4  C   UNL     1     -12.375  11.063  69.938  1.00  0.00    -0.356 A  
HETATM    5  C   UNL     1     -11.492  11.018  68.851  1.00  0.00    -0.364 A  
HETATM    6  C   UNL     1     -10.336  10.233  68.956  1.00  0.00    -0.229 A  
HETATM    7  H   UNL     1     -10.008   8.191  72.321  1.00  0.00     0.000 HD 
HETATM    8  O   UNL     1     -10.793   8.724  72.267  1.00  0.00    -0.352 OA 
HETATM    9  C   UNL     1     -10.094   9.473  70.105  1.00  0.00    -0.293 A  
HETATM   10  C   UNL     1     -11.013   9.492  71.154  1.00  0.00    -0.368 A  
BRANCH   5  11
HETATM   11  C   UNL     1     -11.736  11.797  67.629  1.00  0.00    -0.320 C  
HETATM   12  C   UNL     1     -11.921  13.129  67.625  1.00  0.00    -0.363 C  
BRANCH  12  13
HETATM   13  C   UNL     1     -12.188  13.858  66.352  1.00  0.00    -0.449 C  
HETATM   14  O   UNL     1     -13.336  14.020  65.938  1.00  0.00    -0.400 OA 
BRANCH  13  15
HETATM   15  C   UNL     1     -11.007  14.410  65.602  1.00  0.00    -0.314 C  
BRANCH  15  16
HETATM   16  C   UNL     1      -9.690  14.024  66.215  1.00  0.00    -0.295 C  
HETATM   17  O   UNL     1      -9.314  12.852  66.223  1.00  0.00    -0.226 OA 
BRANCH  16  18
HETATM   18  C   UNL     1      -8.839  15.122  66.760  1.00  0.00    -0.302 C  
HETATM   19  C   UNL     1      -9.067  16.389  66.380  1.00  0.00    -0.341 C  
BRANCH  19  20
HETATM   20  C   UNL     1      -8.343  17.573  66.874  1.00  0.00    -0.255 A  
HETATM   21  C   UNL     1      -7.704  17.601  68.126  1.00  0.00    -0.244 A  
HETATM   22  C   UNL     1      -7.111  18.777  68.597  1.00  0.00    -0.295 A  
HETATM   23  C   UNL     1      -8.377  18.745  66.101  1.00  0.00    -0.195 A  
HETATM   24  C   UNL     1      -7.162  19.924  67.801  1.00  0.00    -0.278 A  
HETATM   25  H   UNL     1      -6.641  21.875  67.700  1.00  0.00     0.000 HD 
HETATM   26  O   UNL     1      -6.607  21.095  68.241  1.00  0.00    -0.192 OA 
HETATM   27  C   UNL     1      -7.781  19.919  66.560  1.00  0.00    -0.316 A  
BRANCH  22  28
HETATM   28  O   UNL     1      -6.480  18.933  69.803  1.00  0.00    -0.244 OA 
HETATM   29  C   UNL     1      -5.327  18.133  70.033  1.00  0.00    -0.227 C  
ENDBRANCH  22  28
ENDBRANCH  19  20
ENDBRANCH  16  18
ENDBRANCH  15  16
ENDBRANCH  13  15
ENDBRANCH  12  13
ENDBRANCH   5  11
ENDBRANCH   2   3
TORSDOF 8
ENDMDL
MODEL      158
REMARK 921   NORMALIZED FREE ENERGY PREDICTED BY IDOCK:   -4.61 KCAL/MOL
REMARK 922        TOTAL FREE ENERGY PREDICTED BY IDOCK:   -8.31 KCAL/MOL
REMARK 923 INTER-LIGAND FREE ENERGY PREDICTED BY IDOCK:   -7.47 KCAL/MOL
REMARK 924 INTRA-LIGAND FREE ENERGY PREDICTED BY IDOCK:   -0.84 KCAL/MOL
REMARK 927      BINDING AFFINITY PREDICTED BY RF-SCORE:    0.00 PKD
ROOT
HETATM    1  C   UNL     1     -12.370  15.576  63.929  1.00  0.00     0.327 C  
HETATM    2  O   UNL     1     -11.357  16.481  64.359  1.00  0.00    -0.921 OA 
ENDROOT
BRANCH   2   3
HETATM    3  C   UNL     1     -10.894  16.272  65.634  1.00  0.00    -0.208 A  
HETATM    4  C   UNL     1     -11.006  15.046  66.298  1.00  0.00    -0.338 A  
HETATM    5  C   UNL     1     -10.557  14.887  67.615  1.00  0.00    -0.264 A  
HETATM    6  C   UNL     1      -9.903  15.959  68.236  1.00  0.00    -0.217 A  
HETATM    7  H   UNL     1      -9.681  19.255  66.070  1.00  0.00     0.000 HD 
HETATM    8  O   UNL     1     -10.121  18.534  65.634  1.00  0.00    -0.506 OA 
HETATM    9  C   UNL     1      -9.745  17.179  67.569  1.00  0.00    -0.256 A  
HETATM   10  C   UNL     1     -10.247  17.332  66.277  1.00  0.00    -0.342 A  
BRANCH   5  11
HETATM   11  C   UNL     1     -10.726  13.619  68.339  1.00  0.00    -0.272 C  
HETATM   12  C   UNL     1     -11.407  12.570  67.845  1.00  0.00    -0.343 C  
BRANCH  12  13
HETATM   13  C   UNL     1     -11.563  11.319  68.640  1.00  0.00    -0.318 C  
HETATM   14  O   UNL     1     -12.025  10.295  68.135  1.00  0.00    -0.121 OA 
BRANCH  13  15
HETATM   15  C   UNL     1     -11.114  11.341  70.074  1.00  0.00    -0.114 C  
BRANCH  15  16
HETATM   16  C   UNL     1     -12.188  10.908  71.032  1.00  0.00    -0.358 C  
HETATM   17  O   UNL     1     -13.145  11.640  71.284  1.00  0.00    -0.318 OA 
BRANCH  16  18
HETATM   18  C   UNL     1     -12.074   9.541  71.619  1.00  0.00    -0.474 C  
HETATM   19  C   UNL     1     -10.894   8.901  71.587  1.00  0.00    -0.420 C  
BRANCH  19  20
HETATM   20  C   UNL     1     -10.624   7.576  72.169  1.00  0.00    -0.262 A  
HETATM   21  C   UNL     1     -10.507   6.414  71.386  1.00  0.00    -0.257 A  
HETATM   22  C   UNL     1     -10.347   5.162  71.987  1.00  0.00    -0.214 A  
HETATM   23  C   UNL     1     -10.576   7.460  73.568  1.00  0.00    -0.388 A  
HETATM   24  C   UNL     1     -10.301   5.084  73.382  1.00  0.00    -0.202 A  
HETATM   25  H   UNL     1     -10.132   3.818  74.949  1.00  0.00     0.000 HD 
HETATM   26  O   UNL     1     -10.163   3.871  74.001  1.00  0.00    -0.135 OA 
HETATM   27  C   UNL     1     -10.408   6.216  74.176  1.00  0.00    -0.308 A  
BRANCH  22  28
HETATM   28  O   UNL     1     -10.243   3.962  71.333  1.00  0.00    -0.110 OA 
HETATM   29  C   UNL     1      -9.800   4.004  69.983  1.00  0.00    -0.128 C  
ENDBRANCH  22  28
ENDBRANCH  19  20
ENDBRANCH  16  18
ENDBRANCH  15  16
ENDBRANCH  13  15
ENDBRANCH  12  13
ENDBRANCH   5  11
ENDBRANCH   2   3
TORSDOF 8
ENDMDL
MODEL      159
REMARK 921   NORMALIZED FREE ENERGY PREDICTED BY IDOCK:   -4.60 KCAL/MOL
REMARK 922        TOTAL FREE ENERGY PREDICTED BY IDOCK:   -8.30 KCAL/MOL
REMARK 923 INTER-LIGAND FREE ENERGY PREDICTED BY IDOCK:   -7.28 KCAL/MOL
REMARK 924 INTRA-LIGAND FREE ENERGY PREDICTED BY IDOCK:   -1.02 KCAL/MOL
REMARK 927      BINDING AFFINITY PREDICTED BY RF-SCORE:    0.00 PKD
ROOT
HETATM    1  C   UNL     1      -7.874   3.850  66.769  1.00  0.00    -0.089 C  
HETATM    2  O   UNL     1      -7.432   5.167  66.449  1.00  0.00    -0.084 OA 
ENDROOT
BRANCH   2   3
HETATM    3  C   UNL     1      -8.288   6.173  66.822  1.00  0.00    -0.110 A  
HETATM    4  C   UNL     1      -8.959   6.192  68.048  1.00  0.00    -0.113 A  
HETATM    5  C   UNL     1      -9.856   7.218  68.371  1.00  0.00    -0.161 A  
HETATM    6  C   UNL     1     -10.005   8.287  67.478  1.00  0.00    -0.252 A  
HETATM    7  H   UNL     1      -7.914   7.973  64.142  1.00  0.00     0.000 HD 
HETATM    8  O   UNL     1      -7.798   7.245  64.741  1.00  0.00    -0.114 OA 
HETATM    9  C   UNL     1      -9.306   8.304  66.266  1.00  0.00    -0.267 A  
HETATM   10  C   UNL     1      -8.458   7.245  65.941  1.00  0.00    -0.144 A  
BRANCH   5  11
HETATM   11  C   UNL     1     -10.611   7.212  69.633  1.00  0.00    -0.249 C  
HETATM   12  C   UNL     1     -10.110   6.754  70.793  1.00  0.00    -0.208 C  
BRANCH  12  13
HETATM   13  C   UNL     1     -10.936   6.753  72.034  1.00  0.00    -0.238 C  
HETATM   14  O   UNL     1     -11.471   5.723  72.445  1.00  0.00    -0.293 OA 
BRANCH  13  15
HETATM   15  C   UNL     1     -11.076   8.050  72.781  1.00  0.00    -0.448 C  
BRANCH  15  16
HETATM   16  C   UNL     1     -12.265   8.857  72.339  1.00  0.00    -0.295 C  
HETATM   17  O   UNL     1     -13.338   8.784  72.937  1.00  0.00    -0.296 OA 
BRANCH  16  18
HETATM   18  C   UNL     1     -12.074   9.784  71.185  1.00  0.00    -0.460 C  
HETATM   19  C   UNL     1     -12.381  11.084  71.321  1.00  0.00    -0.426 C  
BRANCH  19  20
HETATM   20  C   UNL     1     -12.197  12.118  70.289  1.00  0.00    -0.344 A  
HETATM   21  C   UNL     1     -11.809  11.813  68.973  1.00  0.00    -0.379 A  
HETATM   22  C   UNL     1     -11.551  12.832  68.051  1.00  0.00    -0.341 A  
HETATM   23  C   UNL     1     -12.324  13.465  70.666  1.00  0.00    -0.423 A  
HETATM   24  C   UNL     1     -11.689  14.162  68.459  1.00  0.00    -0.345 A  
HETATM   25  H   UNL     1     -11.521  16.086  67.863  1.00  0.00     0.000 HD 
HETATM   26  O   UNL     1     -11.427  15.183  67.586  1.00  0.00    -0.332 OA 
HETATM   27  C   UNL     1     -12.077  14.488  69.750  1.00  0.00    -0.380 A  
BRANCH  22  28
HETATM   28  O   UNL     1     -11.148  12.661  66.753  1.00  0.00    -0.258 OA 
HETATM   29  C   UNL     1      -9.811  12.224  66.547  1.00  0.00    -0.229 C  
ENDBRANCH  22  28
ENDBRANCH  19  20
ENDBRANCH  16  18
ENDBRANCH  15  16
ENDBRANCH  13  15
ENDBRANCH  12  13
ENDBRANCH   5  11
ENDBRANCH   2   3
TORSDOF 8
ENDMDL
MODEL      160
REMARK 921   NORMALIZED FREE ENERGY PREDICTED BY IDOCK:   -4.59 KCAL/MOL
REMARK 922        TOTAL FREE ENERGY PREDICTED BY IDOCK:   -8.29 KCAL/MOL
REMARK 923 INTER-LIGAND FREE ENERGY PREDICTED BY IDOCK:   -6.66 KCAL/MOL
REMARK 924 INTRA-LIGAND FREE ENERGY PREDICTED BY IDOCK:   -1.63 KCAL/MOL
REMARK 927      BINDING AFFINITY PREDICTED BY RF-SCORE:    0.00 PKD
ROOT
HETATM    1  C   UNL     1      -8.288  15.800  66.509  1.00  0.00    -0.278 C  
HETATM    2  O   UNL     1      -6.932  15.556  66.875  1.00  0.00    -0.223 OA 
ENDROOT
BRANCH   2   3
HETATM    3  C   UNL     1      -6.745  14.514  67.750  1.00  0.00    -0.174 A  
HETATM    4  C   UNL     1      -6.926  13.174  67.394  1.00  0.00    -0.117 A  
HETATM    5  C   UNL     1      -6.765  12.145  68.331  1.00  0.00    -0.062 A  
HETATM    6  C   UNL     1      -6.327  12.472  69.620  1.00  0.00    -0.100 A  
HETATM    7  H   UNL     1      -5.837  16.334  70.284  1.00  0.00     0.000 HD 
HETATM    8  O   UNL     1      -6.127  16.127  69.403  1.00  0.00    -0.139 OA 
HETATM    9  C   UNL     1      -6.101  13.805  69.978  1.00  0.00    -0.142 A  
HETATM   10  C   UNL     1      -6.318  14.819  69.045  1.00  0.00    -0.093 A  
BRANCH   5  11
HETATM   11  C   UNL     1      -7.012  10.739  67.979  1.00  0.00    -0.073 C  
HETATM   12  C   UNL     1      -7.522   9.839  68.838  1.00  0.00    -0.075 C  
BRANCH  12  13
HETATM   13  C   UNL     1      -7.727   8.421  68.426  1.00  0.00    -0.105 C  
HETATM   14  O   UNL     1      -8.107   7.571  69.231  1.00  0.00    -0.121 OA 
BRANCH  13  15
HETATM   15  C   UNL     1      -7.475   8.069  66.986  1.00  0.00    -0.092 C  
BRANCH  15  16
HETATM   16  C   UNL     1      -8.740   7.824  66.212  1.00  0.00    -0.155 C  
HETATM   17  O   UNL     1      -9.291   6.723  66.228  1.00  0.00    -0.161 OA 
BRANCH  16  18
HETATM   18  C   UNL     1      -9.326   8.980  65.471  1.00  0.00    -0.255 C  
HETATM   19  C   UNL     1     -10.109   9.855  66.120  1.00  0.00    -0.315 C  
BRANCH  19  20
HETATM   20  C   UNL     1     -10.710  11.064  65.532  1.00  0.00    -0.218 A  
HETATM   21  C   UNL     1     -11.271  12.088  66.316  1.00  0.00    -0.394 A  
HETATM   22  C   UNL     1     -11.918  13.173  65.715  1.00  0.00    -0.423 A  
HETATM   23  C   UNL     1     -10.810  11.146  64.134  1.00  0.00    -0.355 A  
HETATM   24  C   UNL     1     -11.996  13.224  64.321  1.00  0.00    -0.421 A  
HETATM   25  H   UNL     1     -12.692  14.298  62.755  1.00  0.00     0.000 HD 
HETATM   26  O   UNL     1     -12.639  14.263  63.703  1.00  0.00    -0.831 OA 
HETATM   27  C   UNL     1     -11.447  12.229  63.526  1.00  0.00    -0.558 A  
BRANCH  22  28
HETATM   28  O   UNL     1     -12.517  14.216  66.371  1.00  0.00    -0.461 OA 
HETATM   29  C   UNL     1     -11.995  14.556  67.649  1.00  0.00    -0.320 C  
ENDBRANCH  22  28
ENDBRANCH  19  20
ENDBRANCH  16  18
ENDBRANCH  15  16
ENDBRANCH  13  15
ENDBRANCH  12  13
ENDBRANCH   5  11
ENDBRANCH   2   3
TORSDOF 8
ENDMDL
MODEL      161
REMARK 921   NORMALIZED FREE ENERGY PREDICTED BY IDOCK:   -4.58 KCAL/MOL
REMARK 922        TOTAL FREE ENERGY PREDICTED BY IDOCK:   -8.27 KCAL/MOL
REMARK 923 INTER-LIGAND FREE ENERGY PREDICTED BY IDOCK:   -7.58 KCAL/MOL
REMARK 924 INTRA-LIGAND FREE ENERGY PREDICTED BY IDOCK:   -0.69 KCAL/MOL
REMARK 927      BINDING AFFINITY PREDICTED BY RF-SCORE:    0.00 PKD
ROOT
HETATM    1  C   UNL     1     -11.498   6.292  71.549  1.00  0.00    -0.293 C  
HETATM    2  O   UNL     1     -12.615   7.131  71.833  1.00  0.00    -0.323 OA 
ENDROOT
BRANCH   2   3
HETATM    3  C   UNL     1     -12.467   8.442  71.457  1.00  0.00    -0.312 A  
HETATM    4  C   UNL     1     -11.501   8.872  70.542  1.00  0.00    -0.231 A  
HETATM    5  C   UNL     1     -11.357  10.228  70.218  1.00  0.00    -0.398 A  
HETATM    6  C   UNL     1     -12.264  11.148  70.758  1.00  0.00    -0.484 A  
HETATM    7  H   UNL     1     -14.918   9.606  73.245  1.00  0.00     0.000 HD 
HETATM    8  O   UNL     1     -14.314   8.970  72.881  1.00  0.00    -0.550 OA 
HETATM    9  C   UNL     1     -13.264  10.726  71.641  1.00  0.00    -0.487 A  
HETATM   10  C   UNL     1     -13.356   9.379  71.992  1.00  0.00    -0.450 A  
BRANCH   5  11
HETATM   11  C   UNL     1     -10.304  10.693  69.303  1.00  0.00    -0.240 C  
HETATM   12  C   UNL     1     -10.532  11.029  68.022  1.00  0.00    -0.219 C  
BRANCH  12  13
HETATM   13  C   UNL     1      -9.416  11.472  67.139  1.00  0.00    -0.177 C  
HETATM   14  O   UNL     1      -8.748  10.660  66.498  1.00  0.00    -0.139 OA 
BRANCH  13  15
HETATM   15  C   UNL     1      -9.146  12.948  67.040  1.00  0.00    -0.228 C  
BRANCH  15  16
HETATM   16  C   UNL     1      -8.108  13.422  68.017  1.00  0.00    -0.160 C  
HETATM   17  O   UNL     1      -7.307  12.636  68.523  1.00  0.00    -0.107 OA 
BRANCH  16  18
HETATM   18  C   UNL     1      -8.055  14.886  68.306  1.00  0.00    -0.132 C  
HETATM   19  C   UNL     1      -6.967  15.407  68.895  1.00  0.00    -0.127 C  
BRANCH  19  20
HETATM   20  C   UNL     1      -6.756  16.833  69.191  1.00  0.00    -0.223 A  
HETATM   21  C   UNL     1      -7.361  17.859  68.443  1.00  0.00    -0.259 A  
HETATM   22  C   UNL     1      -7.057  19.201  68.696  1.00  0.00    -0.318 A  
HETATM   23  C   UNL     1      -5.841  17.177  70.199  1.00  0.00    -0.184 A  
HETATM   24  C   UNL     1      -6.144  19.506  69.709  1.00  0.00    -0.288 A  
HETATM   25  H   UNL     1      -5.191  21.016  70.658  1.00  0.00     0.000 HD 
HETATM   26  O   UNL     1      -5.812  20.808  69.970  1.00  0.00    -0.460 OA 
HETATM   27  C   UNL     1      -5.538  18.512  70.464  1.00  0.00    -0.198 A  
BRANCH  22  28
HETATM   28  O   UNL     1      -7.565  20.281  68.025  1.00  0.00    -0.280 OA 
HETATM   29  C   UNL     1      -8.916  20.192  67.591  1.00  0.00    -0.315 C  
ENDBRANCH  22  28
ENDBRANCH  19  20
ENDBRANCH  16  18
ENDBRANCH  15  16
ENDBRANCH  13  15
ENDBRANCH  12  13
ENDBRANCH   5  11
ENDBRANCH   2   3
TORSDOF 8
ENDMDL
MODEL      162
REMARK 921   NORMALIZED FREE ENERGY PREDICTED BY IDOCK:   -4.53 KCAL/MOL
REMARK 922        TOTAL FREE ENERGY PREDICTED BY IDOCK:   -8.20 KCAL/MOL
REMARK 923 INTER-LIGAND FREE ENERGY PREDICTED BY IDOCK:   -7.47 KCAL/MOL
REMARK 924 INTRA-LIGAND FREE ENERGY PREDICTED BY IDOCK:   -0.73 KCAL/MOL
REMARK 927      BINDING AFFINITY PREDICTED BY RF-SCORE:    0.00 PKD
ROOT
HETATM    1  C   UNL     1      -6.999  11.538  66.987  1.00  0.00    -0.145 C  
HETATM    2  O   UNL     1      -8.360  11.911  66.781  1.00  0.00    -0.178 OA 
ENDROOT
BRANCH   2   3
HETATM    3  C   UNL     1      -9.282  11.101  67.396  1.00  0.00    -0.153 A  
HETATM    4  C   UNL     1     -10.022  11.496  68.515  1.00  0.00    -0.207 A  
HETATM    5  C   UNL     1     -10.924  10.622  69.137  1.00  0.00    -0.296 A  
HETATM    6  C   UNL     1     -11.145   9.364  68.562  1.00  0.00     0.020 A  
HETATM    7  H   UNL     1      -8.958   8.584  65.367  1.00  0.00     0.000 HD 
HETATM    8  O   UNL     1      -8.803   9.443  65.742  1.00  0.00    -0.151 OA 
HETATM    9  C   UNL     1     -10.444   8.972  67.417  1.00  0.00    -0.338 A  
HETATM   10  C   UNL     1      -9.512   9.837  66.845  1.00  0.00    -0.160 A  
BRANCH   5  11
HETATM   11  C   UNL     1     -11.659  11.010  70.350  1.00  0.00    -0.389 C  
HETATM   12  C   UNL     1     -12.358  12.153  70.458  1.00  0.00    -0.358 C  
BRANCH  12  13
HETATM   13  C   UNL     1     -13.064  12.499  71.724  1.00  0.00    -0.347 C  
HETATM   14  O   UNL     1     -13.988  11.805  72.150  1.00  0.00     0.052 OA 
BRANCH  13  15
HETATM   15  C   UNL     1     -12.594  13.712  72.477  1.00  0.00    -0.049 C  
BRANCH  15  16
HETATM   16  C   UNL     1     -13.206  14.989  71.973  1.00  0.00    -0.364 C  
HETATM   17  O   UNL     1     -13.779  15.764  72.740  1.00  0.00    -0.561 OA 
BRANCH  16  18
HETATM   18  C   UNL     1     -13.043  15.302  70.523  1.00  0.00    -0.334 C  
HETATM   19  C   UNL     1     -11.832  15.201  69.955  1.00  0.00    -0.363 C  
BRANCH  19  20
HETATM   20  C   UNL     1     -11.534  15.428  68.530  1.00  0.00    -0.360 A  
HETATM   21  C   UNL     1     -11.993  14.570  67.515  1.00  0.00    -0.358 A  
HETATM   22  C   UNL     1     -11.606  14.768  66.186  1.00  0.00    -0.292 A  
HETATM   23  C   UNL     1     -10.680  16.490  68.189  1.00  0.00    -0.343 A  
HETATM   24  C   UNL     1     -10.757  15.835  65.881  1.00  0.00    -0.313 A  
HETATM   25  H   UNL     1      -9.770  16.771  64.386  1.00  0.00     0.000 HD 
HETATM   26  O   UNL     1     -10.346  16.045  64.593  1.00  0.00    -0.414 OA 
HETATM   27  C   UNL     1     -10.296  16.699  66.865  1.00  0.00    -0.299 A  
BRANCH  22  28
HETATM   28  O   UNL     1     -11.970  13.990  65.118  1.00  0.00    -0.352 OA 
HETATM   29  C   UNL     1     -11.835  12.583  65.272  1.00  0.00    -0.413 C  
ENDBRANCH  22  28
ENDBRANCH  19  20
ENDBRANCH  16  18
ENDBRANCH  15  16
ENDBRANCH  13  15
ENDBRANCH  12  13
ENDBRANCH   5  11
ENDBRANCH   2   3
TORSDOF 8
ENDMDL
MODEL      163
REMARK 921   NORMALIZED FREE ENERGY PREDICTED BY IDOCK:   -4.52 KCAL/MOL
REMARK 922        TOTAL FREE ENERGY PREDICTED BY IDOCK:   -8.17 KCAL/MOL
REMARK 923 INTER-LIGAND FREE ENERGY PREDICTED BY IDOCK:   -7.55 KCAL/MOL
REMARK 924 INTRA-LIGAND FREE ENERGY PREDICTED BY IDOCK:   -0.62 KCAL/MOL
REMARK 927      BINDING AFFINITY PREDICTED BY RF-SCORE:    0.00 PKD
ROOT
HETATM    1  C   UNL     1     -10.988   8.300  72.591  1.00  0.00    -0.316 C  
HETATM    2  O   UNL     1     -11.523   7.464  71.568  1.00  0.00    -0.252 OA 
ENDROOT
BRANCH   2   3
HETATM    3  C   UNL     1     -11.063   7.729  70.302  1.00  0.00    -0.234 A  
HETATM    4  C   UNL     1     -11.029   9.015  69.754  1.00  0.00    -0.177 A  
HETATM    5  C   UNL     1     -10.590   9.235  68.441  1.00  0.00    -0.234 A  
HETATM    6  C   UNL     1     -10.095   8.150  67.707  1.00  0.00    -0.260 A  
HETATM    7  H   UNL     1     -10.258   4.668  69.565  1.00  0.00     0.000 HD 
HETATM    8  O   UNL     1     -10.591   5.396  70.077  1.00  0.00    -0.305 OA 
HETATM    9  C   UNL     1     -10.083   6.864  68.258  1.00  0.00    -0.182 A  
HETATM   10  C   UNL     1     -10.573   6.658  69.548  1.00  0.00    -0.241 A  
BRANCH   5  11
HETATM   11  C   UNL     1     -10.609  10.576  67.839  1.00  0.00    -0.271 C  
HETATM   12  C   UNL     1     -11.657  11.067  67.157  1.00  0.00     0.053 C  
BRANCH  12  13
HETATM   13  C   UNL     1     -11.604  12.427  66.550  1.00  0.00    -0.387 C  
HETATM   14  O   UNL     1     -12.405  12.770  65.679  1.00  0.00    -0.525 OA 
BRANCH  13  15
HETATM   15  C   UNL     1     -10.553  13.377  67.053  1.00  0.00    -0.264 C  
BRANCH  15  16
HETATM   16  C   UNL     1     -11.129  14.642  67.624  1.00  0.00    -0.304 C  
HETATM   17  O   UNL     1     -12.029  14.607  68.462  1.00  0.00    -0.315 OA 
BRANCH  16  18
HETATM   18  C   UNL     1     -10.530  15.933  67.174  1.00  0.00    -0.313 C  
HETATM   19  C   UNL     1      -9.698  16.598  67.990  1.00  0.00    -0.241 C  
BRANCH  19  20
HETATM   20  C   UNL     1      -8.997  17.851  67.661  1.00  0.00    -0.250 A  
HETATM   21  C   UNL     1      -8.457  18.103  66.387  1.00  0.00    -0.263 A  
HETATM   22  C   UNL     1      -7.715  19.264  66.144  1.00  0.00    -0.290 A  
HETATM   23  C   UNL     1      -8.781  18.784  68.688  1.00  0.00    -0.360 A  
HETATM   24  C   UNL     1      -7.521  20.171  67.189  1.00  0.00    -0.290 A  
HETATM   25  H   UNL     1      -6.654  21.925  67.699  1.00  0.00     0.000 HD 
HETATM   26  O   UNL     1      -6.785  21.308  66.989  1.00  0.00    -0.439 OA 
HETATM   27  C   UNL     1      -8.049  19.947  68.453  1.00  0.00    -0.239 A  
BRANCH  22  28
HETATM   28  O   UNL     1      -7.125  19.608  64.957  1.00  0.00    -0.373 OA 
HETATM   29  C   UNL     1      -5.799  19.142  64.740  1.00  0.00    -0.275 C  
ENDBRANCH  22  28
ENDBRANCH  19  20
ENDBRANCH  16  18
ENDBRANCH  15  16
ENDBRANCH  13  15
ENDBRANCH  12  13
ENDBRANCH   5  11
ENDBRANCH   2   3
TORSDOF 8
ENDMDL
MODEL      164
REMARK 921   NORMALIZED FREE ENERGY PREDICTED BY IDOCK:   -4.51 KCAL/MOL
REMARK 922        TOTAL FREE ENERGY PREDICTED BY IDOCK:   -8.17 KCAL/MOL
REMARK 923 INTER-LIGAND FREE ENERGY PREDICTED BY IDOCK:   -7.12 KCAL/MOL
REMARK 924 INTRA-LIGAND FREE ENERGY PREDICTED BY IDOCK:   -1.05 KCAL/MOL
REMARK 927      BINDING AFFINITY PREDICTED BY RF-SCORE:    0.00 PKD
ROOT
HETATM    1  C   UNL     1      -5.687  11.060  67.131  1.00  0.00    -0.059 C  
HETATM    2  O   UNL     1      -6.508  10.590  66.066  1.00  0.00    -0.109 OA 
ENDROOT
BRANCH   2   3
HETATM    3  C   UNL     1      -7.752  10.147  66.443  1.00  0.00    -0.111 A  
HETATM    4  C   UNL     1      -8.087   9.845  67.767  1.00  0.00    -0.109 A  
HETATM    5  C   UNL     1      -9.357   9.356  68.102  1.00  0.00    -0.142 A  
HETATM    6  C   UNL     1     -10.326   9.257  67.096  1.00  0.00    -0.330 A  
HETATM    7  H   UNL     1      -9.086  10.257  63.482  1.00  0.00     0.000 HD 
HETATM    8  O   UNL     1      -8.420  10.335  64.155  1.00  0.00    -0.168 OA 
HETATM    9  C   UNL     1     -10.018   9.597  65.775  1.00  0.00    -0.342 A  
HETATM   10  C   UNL     1      -8.732  10.032  65.453  1.00  0.00    -0.159 A  
BRANCH   5  11
HETATM   11  C   UNL     1      -9.696   8.979  69.482  1.00  0.00    -0.171 C  
HETATM   12  C   UNL     1     -10.931   8.615  69.868  1.00  0.00    -0.169 C  
BRANCH  12  13
HETATM   13  C   UNL     1     -11.216   8.267  71.289  1.00  0.00    -0.259 C  
HETATM   14  O   UNL     1     -10.332   8.306  72.145  1.00  0.00    -0.248 OA 
BRANCH  13  15
HETATM   15  C   UNL     1     -12.626   7.887  71.647  1.00  0.00    -0.344 C  
BRANCH  15  16
HETATM   16  C   UNL     1     -13.390   9.010  72.292  1.00  0.00    -0.467 C  
HETATM   17  O   UNL     1     -14.411   8.790  72.943  1.00  0.00    -0.520 OA 
BRANCH  16  18
HETATM   18  C   UNL     1     -12.831  10.387  72.156  1.00  0.00    -0.321 C  
HETATM   19  C   UNL     1     -13.215  11.161  71.129  1.00  0.00    -0.132 C  
BRANCH  19  20
HETATM   20  C   UNL     1     -12.788  12.551  70.898  1.00  0.00    -0.177 A  
HETATM   21  C   UNL     1     -12.021  12.932  69.783  1.00  0.00    -0.365 A  
HETATM   22  C   UNL     1     -11.554  14.244  69.653  1.00  0.00    -0.296 A  
HETATM   23  C   UNL     1     -13.080  13.510  71.882  1.00  0.00    -0.475 A  
HETATM   24  C   UNL     1     -11.865  15.172  70.650  1.00  0.00    -0.325 A  
HETATM   25  H   UNL     1     -11.620  17.091  71.238  1.00  0.00     0.000 HD 
HETATM   26  O   UNL     1     -11.408  16.460  70.561  1.00  0.00    -0.363 OA 
HETATM   27  C   UNL     1     -12.625  14.822  71.757  1.00  0.00    -0.400 A  
BRANCH  22  28
HETATM   28  O   UNL     1     -10.785  14.726  68.627  1.00  0.00    -0.239 OA 
HETATM   29  C   UNL     1     -11.203  14.407  67.306  1.00  0.00    -0.323 C  
ENDBRANCH  22  28
ENDBRANCH  19  20
ENDBRANCH  16  18
ENDBRANCH  15  16
ENDBRANCH  13  15
ENDBRANCH  12  13
ENDBRANCH   5  11
ENDBRANCH   2   3
TORSDOF 8
ENDMDL
MODEL      165
REMARK 921   NORMALIZED FREE ENERGY PREDICTED BY IDOCK:   -4.51 KCAL/MOL
REMARK 922        TOTAL FREE ENERGY PREDICTED BY IDOCK:   -8.16 KCAL/MOL
REMARK 923 INTER-LIGAND FREE ENERGY PREDICTED BY IDOCK:   -7.34 KCAL/MOL
REMARK 924 INTRA-LIGAND FREE ENERGY PREDICTED BY IDOCK:   -0.82 KCAL/MOL
REMARK 927      BINDING AFFINITY PREDICTED BY RF-SCORE:    0.00 PKD
ROOT
HETATM    1  C   UNL     1      -7.500   7.681  70.595  1.00  0.00    -0.072 C  
HETATM    2  O   UNL     1      -8.534   7.814  71.566  1.00  0.00    -0.111 OA 
ENDROOT
BRANCH   2   3
HETATM    3  C   UNL     1      -9.592   8.600  71.183  1.00  0.00    -0.220 A  
HETATM    4  C   UNL     1      -9.607   9.340  69.997  1.00  0.00    -0.235 A  
HETATM    5  C   UNL     1     -10.692  10.162  69.665  1.00  0.00    -0.295 A  
HETATM    6  C   UNL     1     -11.815  10.164  70.501  1.00  0.00    -0.408 A  
HETATM    7  H   UNL     1     -11.490   7.912  73.730  1.00  0.00     0.000 HD 
HETATM    8  O   UNL     1     -10.724   7.896  73.168  1.00  0.00    -0.368 OA 
HETATM    9  C   UNL     1     -11.832   9.395  71.670  1.00  0.00    -0.464 A  
HETATM   10  C   UNL     1     -10.720   8.624  72.009  1.00  0.00    -0.357 A  
BRANCH   5  11
HETATM   11  C   UNL     1     -10.687  10.989  68.449  1.00  0.00    -0.240 C  
HETATM   12  C   UNL     1     -11.777  11.199  67.692  1.00  0.00    -0.168 C  
BRANCH  12  13
HETATM   13  C   UNL     1     -11.701  12.030  66.457  1.00  0.00    -0.256 C  
HETATM   14  O   UNL     1     -12.627  12.772  66.128  1.00  0.00    -0.428 OA 
BRANCH  13  15
HETATM   15  C   UNL     1     -10.444  11.948  65.636  1.00  0.00    -0.302 C  
BRANCH  15  16
HETATM   16  C   UNL     1     -10.305  13.084  64.661  1.00  0.00    -0.352 C  
HETATM   17  O   UNL     1     -10.555  12.928  63.466  1.00  0.00    -0.277 OA 
BRANCH  16  18
HETATM   18  C   UNL     1      -9.905  14.413  65.209  1.00  0.00    -0.216 C  
HETATM   19  C   UNL     1      -9.267  14.481  66.388  1.00  0.00    -0.264 C  
BRANCH  19  20
HETATM   20  C   UNL     1      -8.771  15.713  67.023  1.00  0.00    -0.256 A  
HETATM   21  C   UNL     1      -8.675  16.934  66.332  1.00  0.00    -0.321 A  
HETATM   22  C   UNL     1      -8.107  18.057  66.943  1.00  0.00    -0.236 A  
HETATM   23  C   UNL     1      -8.287  15.637  68.339  1.00  0.00    -0.162 A  
HETATM   24  C   UNL     1      -7.638  17.946  68.255  1.00  0.00    -0.266 A  
HETATM   25  H   UNL     1      -6.742  18.946  69.766  1.00  0.00     0.000 HD 
HETATM   26  O   UNL     1      -7.061  19.021  68.874  1.00  0.00    -0.305 OA 
HETATM   27  C   UNL     1      -7.726  16.754  68.959  1.00  0.00    -0.213 A  
BRANCH  22  28
HETATM   28  O   UNL     1      -7.942  19.289  66.367  1.00  0.00    -0.273 OA 
HETATM   29  C   UNL     1      -9.112  20.079  66.194  1.00  0.00    -0.277 C  
ENDBRANCH  22  28
ENDBRANCH  19  20
ENDBRANCH  16  18
ENDBRANCH  15  16
ENDBRANCH  13  15
ENDBRANCH  12  13
ENDBRANCH   5  11
ENDBRANCH   2   3
TORSDOF 8
ENDMDL
MODEL      166
REMARK 921   NORMALIZED FREE ENERGY PREDICTED BY IDOCK:   -4.48 KCAL/MOL
REMARK 922        TOTAL FREE ENERGY PREDICTED BY IDOCK:   -8.12 KCAL/MOL
REMARK 923 INTER-LIGAND FREE ENERGY PREDICTED BY IDOCK:   -6.84 KCAL/MOL
REMARK 924 INTRA-LIGAND FREE ENERGY PREDICTED BY IDOCK:   -1.28 KCAL/MOL
REMARK 927      BINDING AFFINITY PREDICTED BY RF-SCORE:    0.00 PKD
ROOT
HETATM    1  C   UNL     1     -12.623   9.840  71.252  1.00  0.00    -0.365 C  
HETATM    2  O   UNL     1     -11.900   8.768  70.654  1.00  0.00    -0.232 OA 
ENDROOT
BRANCH   2   3
HETATM    3  C   UNL     1     -10.534   8.889  70.706  1.00  0.00    -0.227 A  
HETATM    4  C   UNL     1      -9.813   9.780  69.904  1.00  0.00    -0.279 A  
HETATM    5  C   UNL     1      -8.415   9.841  69.960  1.00  0.00    -0.229 A  
HETATM    6  C   UNL     1      -7.744   9.055  70.905  1.00  0.00    -0.149 A  
HETATM    7  H   UNL     1     -10.069   6.704  73.066  1.00  0.00     0.000 HD 
HETATM    8  O   UNL     1     -10.538   7.237  72.434  1.00  0.00    -0.217 OA 
HETATM    9  C   UNL     1      -8.455   8.190  71.744  1.00  0.00    -0.186 A  
HETATM   10  C   UNL     1      -9.844   8.105  71.635  1.00  0.00    -0.182 A  
BRANCH   5  11
HETATM   11  C   UNL     1      -7.648  10.733  69.077  1.00  0.00    -0.126 C  
HETATM   12  C   UNL     1      -6.885  11.744  69.527  1.00  0.00    -0.026 C  
BRANCH  12  13
HETATM   13  C   UNL     1      -6.150  12.627  68.578  1.00  0.00    -0.062 C  
HETATM   14  O   UNL     1      -5.581  12.166  67.588  1.00  0.00    -0.073 OA 
BRANCH  13  15
HETATM   15  C   UNL     1      -6.146  14.104  68.857  1.00  0.00    -0.085 C  
BRANCH  15  16
HETATM   16  C   UNL     1      -7.460  14.763  68.547  1.00  0.00    -0.117 C  
HETATM   17  O   UNL     1      -7.853  15.732  69.198  1.00  0.00    -0.197 OA 
BRANCH  16  18
HETATM   18  C   UNL     1      -8.239  14.232  67.390  1.00  0.00    -0.217 C  
HETATM   19  C   UNL     1      -9.518  13.863  67.563  1.00  0.00    -0.216 C  
BRANCH  19  20
HETATM   20  C   UNL     1     -10.417  13.372  66.506  1.00  0.00    -0.283 A  
HETATM   21  C   UNL     1      -9.951  12.656  65.389  1.00  0.00    -0.230 A  
HETATM   22  C   UNL     1     -10.826  12.293  64.360  1.00  0.00    -0.329 A  
HETATM   23  C   UNL     1     -11.776  13.718  66.574  1.00  0.00    -0.412 A  
HETATM   24  C   UNL     1     -12.173  12.651  64.461  1.00  0.00    -0.443 A  
HETATM   25  H   UNL     1     -13.966  12.570  63.531  1.00  0.00     0.000 HD 
HETATM   26  O   UNL     1     -13.051  12.326  63.462  1.00  0.00    -0.766 OA 
HETATM   27  C   UNL     1     -12.657  13.353  65.555  1.00  0.00    -0.520 A  
BRANCH  22  28
HETATM   28  O   UNL     1     -10.488  11.615  63.218  1.00  0.00    -0.390 OA 
HETATM   29  C   UNL     1      -9.278  10.869  63.248  1.00  0.00    -0.284 C  
ENDBRANCH  22  28
ENDBRANCH  19  20
ENDBRANCH  16  18
ENDBRANCH  15  16
ENDBRANCH  13  15
ENDBRANCH  12  13
ENDBRANCH   5  11
ENDBRANCH   2   3
TORSDOF 8
ENDMDL
MODEL      167
REMARK 921   NORMALIZED FREE ENERGY PREDICTED BY IDOCK:   -4.48 KCAL/MOL
REMARK 922        TOTAL FREE ENERGY PREDICTED BY IDOCK:   -8.11 KCAL/MOL
REMARK 923 INTER-LIGAND FREE ENERGY PREDICTED BY IDOCK:   -6.86 KCAL/MOL
REMARK 924 INTRA-LIGAND FREE ENERGY PREDICTED BY IDOCK:   -1.25 KCAL/MOL
REMARK 927      BINDING AFFINITY PREDICTED BY RF-SCORE:    0.00 PKD
ROOT
HETATM    1  C   UNL     1      -6.818  17.618  68.132  1.00  0.00    -0.207 C  
HETATM    2  O   UNL     1      -7.696  16.923  69.013  1.00  0.00    -0.243 OA 
ENDROOT
BRANCH   2   3
HETATM    3  C   UNL     1      -8.064  15.668  68.596  1.00  0.00    -0.158 A  
HETATM    4  C   UNL     1      -9.107  15.437  67.694  1.00  0.00    -0.183 A  
HETATM    5  C   UNL     1      -9.476  14.136  67.327  1.00  0.00    -0.229 A  
HETATM    6  C   UNL     1      -8.719  13.061  67.810  1.00  0.00    -0.188 A  
HETATM    7  H   UNL     1      -5.796  14.054  70.273  1.00  0.00     0.000 HD 
HETATM    8  O   UNL     1      -6.296  14.794  69.948  1.00  0.00    -0.135 OA 
HETATM    9  C   UNL     1      -7.645  13.280  68.679  1.00  0.00    -0.094 A  
HETATM   10  C   UNL     1      -7.327  14.580  69.074  1.00  0.00    -0.132 A  
BRANCH   5  11
HETATM   11  C   UNL     1     -10.611  13.883  66.427  1.00  0.00    -0.280 C  
HETATM   12  C   UNL     1     -10.573  14.117  65.104  1.00  0.00    -0.414 C  
BRANCH  12  13
HETATM   13  C   UNL     1     -11.766  13.861  64.249  1.00  0.00    -0.380 C  
HETATM   14  O   UNL     1     -12.574  14.755  63.996  1.00  0.00    -0.822 OA 
BRANCH  13  15
HETATM   15  C   UNL     1     -11.939  12.477  63.686  1.00  0.00    -0.621 C  
BRANCH  15  16
HETATM   16  C   UNL     1     -10.667  11.678  63.692  1.00  0.00    -0.435 C  
HETATM   17  O   UNL     1      -9.773  11.902  62.876  1.00  0.00    -0.349 OA 
BRANCH  16  18
HETATM   18  C   UNL     1     -10.510  10.645  64.758  1.00  0.00    -0.280 C  
HETATM   19  C   UNL     1      -9.284  10.332  65.204  1.00  0.00    -0.252 C  
BRANCH  19  20
HETATM   20  C   UNL     1      -8.985   9.374  66.282  1.00  0.00    -0.189 A  
HETATM   21  C   UNL     1      -9.608   8.116  66.370  1.00  0.00    -0.286 A  
HETATM   22  C   UNL     1      -9.367   7.277  67.463  1.00  0.00    -0.129 A  
HETATM   23  C   UNL     1      -8.114   9.775  67.308  1.00  0.00    -0.117 A  
HETATM   24  C   UNL     1      -8.494   7.707  68.465  1.00  0.00    -0.129 A  
HETATM   25  H   UNL     1      -7.656   7.209  70.237  1.00  0.00     0.000 HD 
HETATM   26  O   UNL     1      -8.251   6.917  69.556  1.00  0.00    -0.127 OA 
HETATM   27  C   UNL     1      -7.862   8.941  68.397  1.00  0.00    -0.104 A  
BRANCH  22  28
HETATM   28  O   UNL     1      -9.928   6.044  67.670  1.00  0.00    -0.120 OA 
HETATM   29  C   UNL     1     -10.723   5.515  66.616  1.00  0.00    -0.261 C  
ENDBRANCH  22  28
ENDBRANCH  19  20
ENDBRANCH  16  18
ENDBRANCH  15  16
ENDBRANCH  13  15
ENDBRANCH  12  13
ENDBRANCH   5  11
ENDBRANCH   2   3
TORSDOF 8
ENDMDL
MODEL      168
REMARK 921   NORMALIZED FREE ENERGY PREDICTED BY IDOCK:   -4.47 KCAL/MOL
REMARK 922        TOTAL FREE ENERGY PREDICTED BY IDOCK:   -8.11 KCAL/MOL
REMARK 923 INTER-LIGAND FREE ENERGY PREDICTED BY IDOCK:   -7.53 KCAL/MOL
REMARK 924 INTRA-LIGAND FREE ENERGY PREDICTED BY IDOCK:   -0.58 KCAL/MOL
REMARK 927      BINDING AFFINITY PREDICTED BY RF-SCORE:    0.00 PKD
ROOT
HETATM    1  C   UNL     1      -6.490   5.712  68.536  1.00  0.00    -0.043 C  
HETATM    2  O   UNL     1      -7.012   5.862  67.218  1.00  0.00    -0.065 OA 
ENDROOT
BRANCH   2   3
HETATM    3  C   UNL     1      -8.338   6.212  67.155  1.00  0.00    -0.105 A  
HETATM    4  C   UNL     1      -8.789   7.529  67.285  1.00  0.00    -0.124 A  
HETATM    5  C   UNL     1     -10.156   7.836  67.256  1.00  0.00    -0.307 A  
HETATM    6  C   UNL     1     -11.071   6.807  67.001  1.00  0.00    -0.369 A  
HETATM    7  H   UNL     1      -9.472   3.217  66.604  1.00  0.00     0.000 HD 
HETATM    8  O   UNL     1      -8.839   3.906  66.770  1.00  0.00    -0.114 OA 
HETATM    9  C   UNL     1     -10.630   5.491  66.825  1.00  0.00    -0.360 A  
HETATM   10  C   UNL     1      -9.269   5.198  66.911  1.00  0.00    -0.118 A  
BRANCH   5  11
HETATM   11  C   UNL     1     -10.640   9.210  67.453  1.00  0.00    -0.315 C  
HETATM   12  C   UNL     1     -10.674  10.130  66.475  1.00  0.00    -0.118 C  
BRANCH  12  13
HETATM   13  C   UNL     1     -11.156  11.515  66.745  1.00  0.00    -0.302 C  
HETATM   14  O   UNL     1     -11.800  11.780  67.760  1.00  0.00    -0.541 OA 
BRANCH  13  15
HETATM   15  C   UNL     1     -10.808  12.584  65.746  1.00  0.00    -0.310 C  
BRANCH  15  16
HETATM   16  C   UNL     1     -11.745  13.758  65.793  1.00  0.00    -0.349 C  
HETATM   17  O   UNL     1     -12.918  13.648  65.439  1.00  0.00    -0.683 OA 
BRANCH  16  18
HETATM   18  C   UNL     1     -11.209  15.041  66.336  1.00  0.00    -0.310 C  
HETATM   19  C   UNL     1     -10.322  15.746  65.618  1.00  0.00    -0.411 C  
BRANCH  19  20
HETATM   20  C   UNL     1      -9.751  17.048  66.004  1.00  0.00    -0.243 A  
HETATM   21  C   UNL     1      -8.404  17.202  66.379  1.00  0.00    -0.315 A  
HETATM   22  C   UNL     1      -7.927  18.436  66.832  1.00  0.00    -0.236 A  
HETATM   23  C   UNL     1     -10.612  18.154  66.090  1.00  0.00    -0.289 A  
HETATM   24  C   UNL     1      -8.811  19.517  66.903  1.00  0.00    -0.314 A  
HETATM   25  H   UNL     1      -8.980  21.467  67.407  1.00  0.00     0.000 HD 
HETATM   26  O   UNL     1      -8.379  20.733  67.358  1.00  0.00    -0.300 OA 
HETATM   27  C   UNL     1     -10.142  19.391  66.533  1.00  0.00    -0.516 A  
BRANCH  22  28
HETATM   28  O   UNL     1      -6.648  18.703  67.242  1.00  0.00    -0.197 OA 
HETATM   29  C   UNL     1      -6.121  17.883  68.277  1.00  0.00    -0.177 C  
ENDBRANCH  22  28
ENDBRANCH  19  20
ENDBRANCH  16  18
ENDBRANCH  15  16
ENDBRANCH  13  15
ENDBRANCH  12  13
ENDBRANCH   5  11
ENDBRANCH   2   3
TORSDOF 8
ENDMDL
MODEL      169
REMARK 921   NORMALIZED FREE ENERGY PREDICTED BY IDOCK:   -4.47 KCAL/MOL
REMARK 922        TOTAL FREE ENERGY PREDICTED BY IDOCK:   -8.11 KCAL/MOL
REMARK 923 INTER-LIGAND FREE ENERGY PREDICTED BY IDOCK:   -6.82 KCAL/MOL
REMARK 924 INTRA-LIGAND FREE ENERGY PREDICTED BY IDOCK:   -1.30 KCAL/MOL
REMARK 927      BINDING AFFINITY PREDICTED BY RF-SCORE:    0.00 PKD
ROOT
HETATM    1  C   UNL     1     -10.167  17.630  69.082  1.00  0.00    -0.238 C  
HETATM    2  O   UNL     1     -11.062  16.904  69.921  1.00  0.00    -0.146 OA 
ENDROOT
BRANCH   2   3
HETATM    3  C   UNL     1     -11.378  15.643  69.479  1.00  0.00    -0.327 A  
HETATM    4  C   UNL     1     -11.452  15.302  68.125  1.00  0.00    -0.357 A  
HETATM    5  C   UNL     1     -11.819  14.012  67.718  1.00  0.00    -0.419 A  
HETATM    6  C   UNL     1     -12.024  13.032  68.697  1.00  0.00    -0.298 A  
HETATM    7  H   UNL     1     -11.664  14.294  72.422  1.00  0.00     0.000 HD 
HETATM    8  O   UNL     1     -11.515  14.968  71.769  1.00  0.00    -0.381 OA 
HETATM    9  C   UNL     1     -11.911  13.347  70.055  1.00  0.00    -0.364 A  
HETATM   10  C   UNL     1     -11.596  14.651  70.440  1.00  0.00    -0.268 A  
BRANCH   5  11
HETATM   11  C   UNL     1     -11.958  13.665  66.297  1.00  0.00    -0.461 C  
HETATM   12  C   UNL     1     -12.197  12.416  65.860  1.00  0.00    -0.220 C  
BRANCH  12  13
HETATM   13  C   UNL     1     -12.305  12.125  64.402  1.00  0.00    -0.330 C  
HETATM   14  O   UNL     1     -13.393  11.891  63.876  1.00  0.00    -0.600 OA 
BRANCH  13  15
HETATM   15  C   UNL     1     -11.040  12.149  63.589  1.00  0.00    -0.528 C  
BRANCH  15  16
HETATM   16  C   UNL     1      -9.981  11.226  64.123  1.00  0.00    -0.300 C  
HETATM   17  O   UNL     1      -9.749  10.146  63.580  1.00  0.00    -0.280 OA 
BRANCH  16  18
HETATM   18  C   UNL     1      -9.191  11.696  65.299  1.00  0.00    -0.039 C  
HETATM   19  C   UNL     1      -8.835  10.820  66.251  1.00  0.00    -0.182 C  
BRANCH  19  20
HETATM   20  C   UNL     1      -8.016  11.130  67.435  1.00  0.00    -0.125 A  
HETATM   21  C   UNL     1      -7.589  10.142  68.340  1.00  0.00    -0.087 A  
HETATM   22  C   UNL     1      -6.896  10.492  69.503  1.00  0.00    -0.098 A  
HETATM   23  C   UNL     1      -7.733  12.477  67.716  1.00  0.00    -0.142 A  
HETATM   24  C   UNL     1      -6.630  11.842  69.750  1.00  0.00    -0.047 A  
HETATM   25  H   UNL     1      -5.788  13.136  71.056  1.00  0.00     0.000 HD 
HETATM   26  O   UNL     1      -5.969  12.218  70.888  1.00  0.00    -0.319 OA 
HETATM   27  C   UNL     1      -7.035  12.834  68.869  1.00  0.00    -0.084 A  
BRANCH  22  28
HETATM   28  O   UNL     1      -6.449   9.625  70.465  1.00  0.00    -0.072 OA 
HETATM   29  C   UNL     1      -7.439   8.939  71.221  1.00  0.00    -0.103 C  
ENDBRANCH  22  28
ENDBRANCH  19  20
ENDBRANCH  16  18
ENDBRANCH  15  16
ENDBRANCH  13  15
ENDBRANCH  12  13
ENDBRANCH   5  11
ENDBRANCH   2   3
TORSDOF 8
ENDMDL
MODEL      170
REMARK 921   NORMALIZED FREE ENERGY PREDICTED BY IDOCK:   -4.46 KCAL/MOL
REMARK 922        TOTAL FREE ENERGY PREDICTED BY IDOCK:   -8.09 KCAL/MOL
REMARK 923 INTER-LIGAND FREE ENERGY PREDICTED BY IDOCK:   -6.40 KCAL/MOL
REMARK 924 INTRA-LIGAND FREE ENERGY PREDICTED BY IDOCK:   -1.69 KCAL/MOL
REMARK 927      BINDING AFFINITY PREDICTED BY RF-SCORE:    0.00 PKD
ROOT
HETATM    1  C   UNL     1      -6.218   5.900  66.152  1.00  0.00    -0.040 C  
HETATM    2  O   UNL     1      -7.108   4.795  66.286  1.00  0.00    -0.071 OA 
ENDROOT
BRANCH   2   3
HETATM    3  C   UNL     1      -8.199   5.022  67.087  1.00  0.00    -0.107 A  
HETATM    4  C   UNL     1      -8.130   5.057  68.483  1.00  0.00    -0.085 A  
HETATM    5  C   UNL     1      -9.277   5.250  69.264  1.00  0.00    -0.151 A  
HETATM    6  C   UNL     1     -10.495   5.503  68.619  1.00  0.00    -0.240 A  
HETATM    7  H   UNL     1     -10.340   5.413  64.673  1.00  0.00     0.000 HD 
HETATM    8  O   UNL     1      -9.506   5.246  65.097  1.00  0.00    -0.038 OA 
HETATM    9  C   UNL     1     -10.571   5.514  67.222  1.00  0.00    -0.294 A  
HETATM   10  C   UNL     1      -9.426   5.266  66.464  1.00  0.00    -0.149 A  
BRANCH   5  11
HETATM   11  C   UNL     1      -9.221   5.227  70.733  1.00  0.00    -0.191 C  
HETATM   12  C   UNL     1     -10.314   5.222  71.515  1.00  0.00    -0.287 C  
BRANCH  12  13
HETATM   13  C   UNL     1     -10.189   5.221  73.001  1.00  0.00    -0.183 C  
HETATM   14  O   UNL     1      -9.719   4.255  73.602  1.00  0.00    -0.115 OA 
BRANCH  13  15
HETATM   15  C   UNL     1     -10.635   6.452  73.740  1.00  0.00    -0.271 C  
BRANCH  15  16
HETATM   16  C   UNL     1      -9.926   7.698  73.288  1.00  0.00    -0.320 C  
HETATM   17  O   UNL     1      -8.804   7.978  73.709  1.00  0.00    -0.266 OA 
BRANCH  16  18
HETATM   18  C   UNL     1     -10.613   8.547  72.270  1.00  0.00    -0.408 C  
HETATM   19  C   UNL     1     -10.013   8.789  71.094  1.00  0.00    -0.317 C  
BRANCH  19  20
HETATM   20  C   UNL     1     -10.592   9.563  69.983  1.00  0.00    -0.280 A  
HETATM   21  C   UNL     1     -10.190   9.384  68.647  1.00  0.00    -0.222 A  
HETATM   22  C   UNL     1     -10.695  10.207  67.635  1.00  0.00    -0.285 A  
HETATM   23  C   UNL     1     -11.510  10.582  70.286  1.00  0.00    -0.416 A  
HETATM   24  C   UNL     1     -11.608  11.209  67.972  1.00  0.00    -0.263 A  
HETATM   25  H   UNL     1     -12.728  12.723  67.237  1.00  0.00     0.000 HD 
HETATM   26  O   UNL     1     -12.107  12.042  67.007  1.00  0.00    -0.603 OA 
HETATM   27  C   UNL     1     -12.024  11.401  69.282  1.00  0.00    -0.400 A  
BRANCH  22  28
HETATM   28  O   UNL     1     -10.366  10.142  66.307  1.00  0.00    -0.226 OA 
HETATM   29  C   UNL     1      -9.043  10.526  65.954  1.00  0.00    -0.168 C  
ENDBRANCH  22  28
ENDBRANCH  19  20
ENDBRANCH  16  18
ENDBRANCH  15  16
ENDBRANCH  13  15
ENDBRANCH  12  13
ENDBRANCH   5  11
ENDBRANCH   2   3
TORSDOF 8
ENDMDL
MODEL      171
REMARK 921   NORMALIZED FREE ENERGY PREDICTED BY IDOCK:   -4.45 KCAL/MOL
REMARK 922        TOTAL FREE ENERGY PREDICTED BY IDOCK:   -8.08 KCAL/MOL
REMARK 923 INTER-LIGAND FREE ENERGY PREDICTED BY IDOCK:   -7.39 KCAL/MOL
REMARK 924 INTRA-LIGAND FREE ENERGY PREDICTED BY IDOCK:   -0.69 KCAL/MOL
REMARK 927      BINDING AFFINITY PREDICTED BY RF-SCORE:    0.00 PKD
ROOT
HETATM    1  C   UNL     1      -9.083   2.123  71.314  1.00  0.00    -0.093 C  
HETATM    2  O   UNL     1      -9.198   3.105  72.341  1.00  0.00    -0.093 OA 
ENDROOT
BRANCH   2   3
HETATM    3  C   UNL     1      -9.954   4.203  72.011  1.00  0.00    -0.180 A  
HETATM    4  C   UNL     1      -9.861   4.854  70.778  1.00  0.00    -0.285 A  
HETATM    5  C   UNL     1     -10.621   5.998  70.499  1.00  0.00    -0.329 A  
HETATM    6  C   UNL     1     -11.554   6.432  71.449  1.00  0.00    -0.368 A  
HETATM    7  H   UNL     1     -11.626   4.334  74.795  1.00  0.00     0.000 HD 
HETATM    8  O   UNL     1     -10.994   4.024  74.157  1.00  0.00    -0.205 OA 
HETATM    9  C   UNL     1     -11.689   5.764  72.671  1.00  0.00    -0.256 A  
HETATM   10  C   UNL     1     -10.884   4.659  72.949  1.00  0.00    -0.221 A  
BRANCH   5  11
HETATM   11  C   UNL     1     -10.483   6.722  69.228  1.00  0.00    -0.241 C  
HETATM   12  C   UNL     1      -9.298   7.006  68.661  1.00  0.00    -0.136 C  
BRANCH  12  13
HETATM   13  C   UNL     1      -9.225   7.765  67.380  1.00  0.00    -0.136 C  
HETATM   14  O   UNL     1      -8.186   7.808  66.722  1.00  0.00    -0.115 OA 
BRANCH  13  15
HETATM   15  C   UNL     1     -10.472   8.458  66.907  1.00  0.00    -0.359 C  
BRANCH  15  16
HETATM   16  C   UNL     1     -10.208   9.831  66.356  1.00  0.00    -0.217 C  
HETATM   17  O   UNL     1     -10.016  10.005  65.153  1.00  0.00    -0.323 OA 
BRANCH  16  18
HETATM   18  C   UNL     1     -10.242  10.973  67.316  1.00  0.00    -0.234 C  
HETATM   19  C   UNL     1     -11.381  11.662  67.488  1.00  0.00    -0.364 C  
BRANCH  19  20
HETATM   20  C   UNL     1     -11.573  12.774  68.434  1.00  0.00    -0.365 A  
HETATM   21  C   UNL     1     -11.906  12.569  69.785  1.00  0.00    -0.380 A  
HETATM   22  C   UNL     1     -12.175  13.654  70.625  1.00  0.00    -0.360 A  
HETATM   23  C   UNL     1     -11.514  14.087  67.940  1.00  0.00    -0.347 A  
HETATM   24  C   UNL     1     -12.105  14.948  70.100  1.00  0.00    -0.327 A  
HETATM   25  H   UNL     1     -12.332  16.909  70.536  1.00  0.00     0.000 HD 
HETATM   26  O   UNL     1     -12.380  16.030  70.892  1.00  0.00    -0.380 OA 
HETATM   27  C   UNL     1     -11.773  15.175  68.773  1.00  0.00    -0.366 A  
BRANCH  22  28
HETATM   28  O   UNL     1     -12.527  13.580  71.947  1.00  0.00    -0.167 OA 
HETATM   29  C   UNL     1     -13.918  13.511  72.238  1.00  0.00    -0.539 C  
ENDBRANCH  22  28
ENDBRANCH  19  20
ENDBRANCH  16  18
ENDBRANCH  15  16
ENDBRANCH  13  15
ENDBRANCH  12  13
ENDBRANCH   5  11
ENDBRANCH   2   3
TORSDOF 8
ENDMDL
MODEL      172
REMARK 921   NORMALIZED FREE ENERGY PREDICTED BY IDOCK:   -4.45 KCAL/MOL
REMARK 922        TOTAL FREE ENERGY PREDICTED BY IDOCK:   -8.07 KCAL/MOL
REMARK 923 INTER-LIGAND FREE ENERGY PREDICTED BY IDOCK:   -7.42 KCAL/MOL
REMARK 924 INTRA-LIGAND FREE ENERGY PREDICTED BY IDOCK:   -0.65 KCAL/MOL
REMARK 927      BINDING AFFINITY PREDICTED BY RF-SCORE:    0.00 PKD
ROOT
HETATM    1  C   UNL     1      -8.504   4.800  65.221  1.00  0.00    -0.132 C  
HETATM    2  O   UNL     1      -9.757   4.409  65.777  1.00  0.00    -0.174 OA 
ENDROOT
BRANCH   2   3
HETATM    3  C   UNL     1      -9.788   4.342  67.148  1.00  0.00    -0.178 A  
HETATM    4  C   UNL     1     -10.181   5.412  67.958  1.00  0.00    -0.221 A  
HETATM    5  C   UNL     1     -10.157   5.313  69.356  1.00  0.00    -0.311 A  
HETATM    6  C   UNL     1      -9.818   4.085  69.938  1.00  0.00    -0.185 A  
HETATM    7  H   UNL     1      -8.832   1.244  67.376  1.00  0.00     0.000 HD 
HETATM    8  O   UNL     1      -9.067   2.070  66.967  1.00  0.00    -0.132 OA 
HETATM    9  C   UNL     1      -9.464   2.993  69.138  1.00  0.00    -0.166 A  
HETATM   10  C   UNL     1      -9.443   3.128  67.750  1.00  0.00    -0.156 A  
BRANCH   5  11
HETATM   11  C   UNL     1     -10.511   6.453  70.214  1.00  0.00    -0.270 C  
HETATM   12  C   UNL     1     -11.772   6.884  70.389  1.00  0.00    -0.377 C  
BRANCH  12  13
HETATM   13  C   UNL     1     -12.062   8.062  71.256  1.00  0.00    -0.291 C  
HETATM   14  O   UNL     1     -11.972   7.991  72.482  1.00  0.00    -0.358 OA 
BRANCH  13  15
HETATM   15  C   UNL     1     -12.448   9.349  70.580  1.00  0.00    -0.042 C  
BRANCH  15  16
HETATM   16  C   UNL     1     -11.264  10.129  70.083  1.00  0.00    -0.310 C  
HETATM   17  O   UNL     1     -10.118   9.816  70.406  1.00  0.00    -0.259 OA 
BRANCH  16  18
HETATM   18  C   UNL     1     -11.531  11.258  69.145  1.00  0.00    -0.364 C  
HETATM   19  C   UNL     1     -11.157  11.155  67.860  1.00  0.00    -0.331 C  
BRANCH  19  20
HETATM   20  C   UNL     1     -11.401  12.164  66.815  1.00  0.00    -0.398 A  
HETATM   21  C   UNL     1     -11.134  13.532  67.007  1.00  0.00    -0.310 A  
HETATM   22  C   UNL     1     -11.471  14.469  66.024  1.00  0.00    -0.348 A  
HETATM   23  C   UNL     1     -12.011  11.752  65.619  1.00  0.00     0.164 A  
HETATM   24  C   UNL     1     -12.074  14.023  64.846  1.00  0.00    -0.420 A  
HETATM   25  H   UNL     1     -12.843  14.613  63.071  1.00  0.00     0.000 HD 
HETATM   26  O   UNL     1     -12.432  14.916  63.873  1.00  0.00    -0.806 OA 
HETATM   27  C   UNL     1     -12.342  12.678  64.631  1.00  0.00    -0.546 A  
BRANCH  22  28
HETATM   28  O   UNL     1     -11.280  15.823  66.105  1.00  0.00    -0.153 OA 
HETATM   29  C   UNL     1      -9.939  16.289  66.021  1.00  0.00    -0.345 C  
ENDBRANCH  22  28
ENDBRANCH  19  20
ENDBRANCH  16  18
ENDBRANCH  15  16
ENDBRANCH  13  15
ENDBRANCH  12  13
ENDBRANCH   5  11
ENDBRANCH   2   3
TORSDOF 8
ENDMDL
MODEL      173
REMARK 921   NORMALIZED FREE ENERGY PREDICTED BY IDOCK:   -4.44 KCAL/MOL
REMARK 922        TOTAL FREE ENERGY PREDICTED BY IDOCK:   -8.06 KCAL/MOL
REMARK 923 INTER-LIGAND FREE ENERGY PREDICTED BY IDOCK:   -7.32 KCAL/MOL
REMARK 924 INTRA-LIGAND FREE ENERGY PREDICTED BY IDOCK:   -0.74 KCAL/MOL
REMARK 927      BINDING AFFINITY PREDICTED BY RF-SCORE:    0.00 PKD
ROOT
HETATM    1  C   UNL     1     -10.610  19.756  65.840  1.00  0.00    -0.453 C  
HETATM    2  O   UNL     1      -9.216  19.514  66.008  1.00  0.00    -0.381 OA 
ENDROOT
BRANCH   2   3
HETATM    3  C   UNL     1      -8.903  18.341  66.649  1.00  0.00    -0.284 A  
HETATM    4  C   UNL     1      -9.280  17.082  66.170  1.00  0.00    -0.244 A  
HETATM    5  C   UNL     1      -8.976  15.913  66.879  1.00  0.00    -0.257 A  
HETATM    6  C   UNL     1      -8.201  16.014  68.041  1.00  0.00    -0.151 A  
HETATM    7  H   UNL     1      -7.233  19.699  69.084  1.00  0.00     0.000 HD 
HETATM    8  O   UNL     1      -7.753  19.645  68.290  1.00  0.00    -0.307 OA 
HETATM    9  C   UNL     1      -7.779  17.263  68.509  1.00  0.00    -0.261 A  
HETATM   10  C   UNL     1      -8.138  18.420  67.817  1.00  0.00    -0.254 A  
BRANCH   5  11
HETATM   11  C   UNL     1      -9.421  14.592  66.412  1.00  0.00    -0.316 C  
HETATM   12  C   UNL     1     -10.232  14.415  65.355  1.00  0.00    -0.408 C  
BRANCH  12  13
HETATM   13  C   UNL     1     -10.667  13.049  64.946  1.00  0.00    -0.332 C  
HETATM   14  O   UNL     1     -11.449  12.882  64.009  1.00  0.00    -0.370 OA 
BRANCH  13  15
HETATM   15  C   UNL     1     -10.100  11.880  65.701  1.00  0.00    -0.274 C  
BRANCH  15  16
HETATM   16  C   UNL     1     -11.006  11.395  66.798  1.00  0.00    -0.291 C  
HETATM   17  O   UNL     1     -12.089  11.938  67.013  1.00  0.00    -0.600 OA 
BRANCH  16  18
HETATM   18  C   UNL     1     -10.563  10.199  67.575  1.00  0.00    -0.327 C  
HETATM   19  C   UNL     1     -10.508   9.001  66.974  1.00  0.00    -0.316 C  
BRANCH  19  20
HETATM   20  C   UNL     1     -10.044   7.751  67.600  1.00  0.00    -0.254 A  
HETATM   21  C   UNL     1     -10.042   6.520  66.920  1.00  0.00    -0.253 A  
HETATM   22  C   UNL     1      -9.685   5.340  67.583  1.00  0.00    -0.142 A  
HETATM   23  C   UNL     1      -9.681   7.779  68.956  1.00  0.00    -0.157 A  
HETATM   24  C   UNL     1      -9.327   5.406  68.932  1.00  0.00    -0.127 A  
HETATM   25  H   UNL     1      -8.747   4.312  70.530  1.00  0.00     0.000 HD 
HETATM   26  O   UNL     1      -8.990   4.268  69.613  1.00  0.00    -0.088 OA 
HETATM   27  C   UNL     1      -9.316   6.610  69.622  1.00  0.00    -0.143 A  
BRANCH  22  28
HETATM   28  O   UNL     1      -9.665   4.085  67.035  1.00  0.00    -0.209 OA 
HETATM   29  C   UNL     1      -8.813   3.887  65.914  1.00  0.00    -0.125 C  
ENDBRANCH  22  28
ENDBRANCH  19  20
ENDBRANCH  16  18
ENDBRANCH  15  16
ENDBRANCH  13  15
ENDBRANCH  12  13
ENDBRANCH   5  11
ENDBRANCH   2   3
TORSDOF 8
ENDMDL
MODEL      174
REMARK 921   NORMALIZED FREE ENERGY PREDICTED BY IDOCK:   -4.44 KCAL/MOL
REMARK 922        TOTAL FREE ENERGY PREDICTED BY IDOCK:   -8.06 KCAL/MOL
REMARK 923 INTER-LIGAND FREE ENERGY PREDICTED BY IDOCK:   -7.33 KCAL/MOL
REMARK 924 INTRA-LIGAND FREE ENERGY PREDICTED BY IDOCK:   -0.73 KCAL/MOL
REMARK 927      BINDING AFFINITY PREDICTED BY RF-SCORE:    0.00 PKD
ROOT
HETATM    1  C   UNL     1     -10.852  19.098  66.061  1.00  0.00    -0.228 C  
HETATM    2  O   UNL     1     -10.941  18.180  64.975  1.00  0.00    -0.726 OA 
ENDROOT
BRANCH   2   3
HETATM    3  C   UNL     1     -10.629  16.880  65.287  1.00  0.00    -0.120 A  
HETATM    4  C   UNL     1      -9.618  16.530  66.188  1.00  0.00    -0.344 A  
HETATM    5  C   UNL     1      -9.304  15.189  66.445  1.00  0.00    -0.332 A  
HETATM    6  C   UNL     1     -10.086  14.190  65.851  1.00  0.00    -0.337 A  
HETATM    7  H   UNL     1     -12.907  15.507  63.421  1.00  0.00     0.000 HD 
HETATM    8  O   UNL     1     -12.390  16.195  63.822  1.00  0.00    -0.864 OA 
HETATM    9  C   UNL     1     -11.129  14.526  64.981  1.00  0.00    -0.393 A  
HETATM   10  C   UNL     1     -11.390  15.866  64.697  1.00  0.00    -0.322 A  
BRANCH   5  11
HETATM   11  C   UNL     1      -8.203  14.815  67.345  1.00  0.00    -0.216 C  
HETATM   12  C   UNL     1      -8.304  13.853  68.278  1.00  0.00    -0.163 C  
BRANCH  12  13
HETATM   13  C   UNL     1      -7.156  13.537  69.175  1.00  0.00    -0.021 C  
HETATM   14  O   UNL     1      -6.886  14.251  70.142  1.00  0.00    -0.072 OA 
BRANCH  13  15
HETATM   15  C   UNL     1      -6.351  12.304  68.873  1.00  0.00    -0.084 C  
BRANCH  15  16
HETATM   16  C   UNL     1      -7.175  11.196  68.282  1.00  0.00    -0.083 C  
HETATM   17  O   UNL     1      -6.993  10.817  67.125  1.00  0.00    -0.082 OA 
BRANCH  16  18
HETATM   18  C   UNL     1      -8.181  10.540  69.168  1.00  0.00    -0.152 C  
HETATM   19  C   UNL     1      -9.067   9.678  68.644  1.00  0.00    -0.132 C  
BRANCH  19  20
HETATM   20  C   UNL     1     -10.077   8.923  69.404  1.00  0.00    -0.202 A  
HETATM   21  C   UNL     1     -10.644   9.406  70.597  1.00  0.00    -0.354 A  
HETATM   22  C   UNL     1     -11.528   8.614  71.338  1.00  0.00    -0.289 A  
HETATM   23  C   UNL     1     -10.414   7.632  68.965  1.00  0.00    -0.214 A  
HETATM   24  C   UNL     1     -11.842   7.335  70.870  1.00  0.00    -0.316 A  
HETATM   25  H   UNL     1     -12.903   5.660  71.264  1.00  0.00     0.000 HD 
HETATM   26  O   UNL     1     -12.689   6.529  71.581  1.00  0.00    -0.290 OA 
HETATM   27  C   UNL     1     -11.300   6.839  69.693  1.00  0.00    -0.326 A  
BRANCH  22  28
HETATM   28  O   UNL     1     -12.125   8.965  72.520  1.00  0.00    -0.325 OA 
HETATM   29  C   UNL     1     -13.341   9.697  72.432  1.00  0.00    -0.338 C  
ENDBRANCH  22  28
ENDBRANCH  19  20
ENDBRANCH  16  18
ENDBRANCH  15  16
ENDBRANCH  13  15
ENDBRANCH  12  13
ENDBRANCH   5  11
ENDBRANCH   2   3
TORSDOF 8
ENDMDL
MODEL      175
REMARK 921   NORMALIZED FREE ENERGY PREDICTED BY IDOCK:   -4.42 KCAL/MOL
REMARK 922        TOTAL FREE ENERGY PREDICTED BY IDOCK:   -8.03 KCAL/MOL
REMARK 923 INTER-LIGAND FREE ENERGY PREDICTED BY IDOCK:   -6.75 KCAL/MOL
REMARK 924 INTRA-LIGAND FREE ENERGY PREDICTED BY IDOCK:   -1.28 KCAL/MOL
REMARK 927      BINDING AFFINITY PREDICTED BY RF-SCORE:    0.00 PKD
ROOT
HETATM    1  C   UNL     1      -7.374   2.774  67.251  1.00  0.00    -0.057 C  
HETATM    2  O   UNL     1      -7.266   4.146  67.619  1.00  0.00    -0.065 OA 
ENDROOT
BRANCH   2   3
HETATM    3  C   UNL     1      -8.436   4.860  67.548  1.00  0.00    -0.104 A  
HETATM    4  C   UNL     1      -9.206   5.183  68.670  1.00  0.00    -0.150 A  
HETATM    5  C   UNL     1     -10.416   5.878  68.547  1.00  0.00    -0.297 A  
HETATM    6  C   UNL     1     -10.806   6.331  67.280  1.00  0.00    -0.457 A  
HETATM    7  H   UNL     1      -8.379   5.322  64.332  1.00  0.00     0.000 HD 
HETATM    8  O   UNL     1      -8.099   5.014  65.186  1.00  0.00    -0.103 OA 
HETATM    9  C   UNL     1     -10.024   6.053  66.154  1.00  0.00    -0.003 A  
HETATM   10  C   UNL     1      -8.849   5.313  66.291  1.00  0.00    -0.130 A  
BRANCH   5  11
HETATM   11  C   UNL     1     -11.259   6.167  69.716  1.00  0.00    -0.494 C  
HETATM   12  C   UNL     1     -10.771   6.587  70.896  1.00  0.00    -0.289 C  
BRANCH  12  13
HETATM   13  C   UNL     1     -11.678   6.841  72.051  1.00  0.00    -0.306 C  
HETATM   14  O   UNL     1     -12.239   5.915  72.638  1.00  0.00    -0.147 OA 
BRANCH  13  15
HETATM   15  C   UNL     1     -11.868   8.266  72.490  1.00  0.00    -0.439 C  
BRANCH  15  16
HETATM   16  C   UNL     1     -12.981   8.962  71.758  1.00  0.00    -0.367 C  
HETATM   17  O   UNL     1     -14.156   8.639  71.934  1.00  0.00    -0.411 OA 
BRANCH  16  18
HETATM   18  C   UNL     1     -12.608  10.092  70.857  1.00  0.00    -0.454 C  
HETATM   19  C   UNL     1     -11.784   9.870  69.822  1.00  0.00    -0.079 C  
BRANCH  19  20
HETATM   20  C   UNL     1     -11.373  10.874  68.826  1.00  0.00    -0.357 A  
HETATM   21  C   UNL     1     -10.449  10.592  67.803  1.00  0.00    -0.263 A  
HETATM   22  C   UNL     1     -10.013  11.600  66.938  1.00  0.00    -0.202 A  
HETATM   23  C   UNL     1     -11.852  12.187  68.965  1.00  0.00    -0.361 A  
HETATM   24  C   UNL     1     -10.512  12.895  67.104  1.00  0.00    -0.238 A  
HETATM   25  H   UNL     1     -10.431  14.787  66.398  1.00  0.00     0.000 HD 
HETATM   26  O   UNL     1     -10.092  13.908  66.285  1.00  0.00    -0.283 OA 
HETATM   27  C   UNL     1     -11.428  13.197  68.101  1.00  0.00    -0.349 A  
BRANCH  22  28
HETATM   28  O   UNL     1      -9.106  11.452  65.922  1.00  0.00    -0.207 OA 
HETATM   29  C   UNL     1      -7.807  10.999  66.282  1.00  0.00    -0.141 C  
ENDBRANCH  22  28
ENDBRANCH  19  20
ENDBRANCH  16  18
ENDBRANCH  15  16
ENDBRANCH  13  15
ENDBRANCH  12  13
ENDBRANCH   5  11
ENDBRANCH   2   3
TORSDOF 8
ENDMDL
MODEL      176
REMARK 921   NORMALIZED FREE ENERGY PREDICTED BY IDOCK:   -4.40 KCAL/MOL
REMARK 922        TOTAL FREE ENERGY PREDICTED BY IDOCK:   -8.00 KCAL/MOL
REMARK 923 INTER-LIGAND FREE ENERGY PREDICTED BY IDOCK:   -6.58 KCAL/MOL
REMARK 924 INTRA-LIGAND FREE ENERGY PREDICTED BY IDOCK:   -1.42 KCAL/MOL
REMARK 927      BINDING AFFINITY PREDICTED BY RF-SCORE:    0.00 PKD
ROOT
HETATM    1  C   UNL     1     -12.332  11.491  69.962  1.00  0.00    -0.213 C  
HETATM    2  O   UNL     1     -11.668  12.532  69.252  1.00  0.00    -0.291 OA 
ENDROOT
BRANCH   2   3
HETATM    3  C   UNL     1     -11.415  12.263  67.930  1.00  0.00    -0.330 A  
HETATM    4  C   UNL     1     -10.849  11.063  67.488  1.00  0.00    -0.314 A  
HETATM    5  C   UNL     1     -10.569  10.847  66.132  1.00  0.00    -0.270 A  
HETATM    6  C   UNL     1     -10.950  11.822  65.202  1.00  0.00    -0.351 A  
HETATM    7  H   UNL     1     -12.590  15.059  66.763  1.00  0.00     0.000 HD 
HETATM    8  O   UNL     1     -12.343  14.403  67.404  1.00  0.00    -0.300 OA 
HETATM    9  C   UNL     1     -11.556  13.010  65.626  1.00  0.00    -0.391 A  
HETATM   10  C   UNL     1     -11.778  13.228  66.986  1.00  0.00    -0.389 A  
BRANCH   5  11
HETATM   11  C   UNL     1      -9.919   9.612  65.668  1.00  0.00    -0.321 C  
HETATM   12  C   UNL     1      -8.773   9.597  64.967  1.00  0.00    -0.202 C  
BRANCH  12  13
HETATM   13  C   UNL     1      -8.177   8.310  64.506  1.00  0.00    -0.135 C  
HETATM   14  O   UNL     1      -7.680   8.202  63.384  1.00  0.00    -0.128 OA 
BRANCH  13  15
HETATM   15  C   UNL     1      -8.181   7.154  65.467  1.00  0.00    -0.139 C  
BRANCH  15  16
HETATM   16  C   UNL     1      -7.293   7.377  66.658  1.00  0.00    -0.084 C  
HETATM   17  O   UNL     1      -6.180   7.888  66.533  1.00  0.00    -0.044 OA 
BRANCH  16  18
HETATM   18  C   UNL     1      -7.835   7.003  67.998  1.00  0.00    -0.114 C  
HETATM   19  C   UNL     1      -9.161   6.884  68.167  1.00  0.00    -0.124 C  
BRANCH  19  20
HETATM   20  C   UNL     1      -9.830   6.475  69.413  1.00  0.00    -0.161 A  
HETATM   21  C   UNL     1     -10.989   7.110  69.893  1.00  0.00    -0.278 A  
HETATM   22  C   UNL     1     -11.537   6.754  71.130  1.00  0.00    -0.329 A  
HETATM   23  C   UNL     1      -9.230   5.474  70.195  1.00  0.00    -0.173 A  
HETATM   24  C   UNL     1     -10.915   5.753  71.881  1.00  0.00    -0.259 A  
HETATM   25  H   UNL     1     -10.993   4.713  73.613  1.00  0.00     0.000 HD 
HETATM   26  O   UNL     1     -11.416   5.394  73.103  1.00  0.00    -0.292 OA 
HETATM   27  C   UNL     1      -9.774   5.108  71.426  1.00  0.00    -0.225 A  
BRANCH  22  28
HETATM   28  O   UNL     1     -12.646   7.312  71.710  1.00  0.00    -0.326 OA 
HETATM   29  C   UNL     1     -12.512   8.638  72.207  1.00  0.00    -0.395 C  
ENDBRANCH  22  28
ENDBRANCH  19  20
ENDBRANCH  16  18
ENDBRANCH  15  16
ENDBRANCH  13  15
ENDBRANCH  12  13
ENDBRANCH   5  11
ENDBRANCH   2   3
TORSDOF 8
ENDMDL
MODEL      177
REMARK 921   NORMALIZED FREE ENERGY PREDICTED BY IDOCK:   -4.38 KCAL/MOL
REMARK 922        TOTAL FREE ENERGY PREDICTED BY IDOCK:   -7.98 KCAL/MOL
REMARK 923 INTER-LIGAND FREE ENERGY PREDICTED BY IDOCK:   -7.11 KCAL/MOL
REMARK 924 INTRA-LIGAND FREE ENERGY PREDICTED BY IDOCK:   -0.87 KCAL/MOL
REMARK 927      BINDING AFFINITY PREDICTED BY RF-SCORE:    0.00 PKD
ROOT
HETATM    1  C   UNL     1      -8.363  16.974  66.270  1.00  0.00    -0.273 C  
HETATM    2  O   UNL     1      -9.552  16.972  65.485  1.00  0.00    -0.522 OA 
ENDROOT
BRANCH   2   3
HETATM    3  C   UNL     1     -10.288  15.815  65.548  1.00  0.00    -0.404 A  
HETATM    4  C   UNL     1     -10.030  14.793  66.466  1.00  0.00    -0.283 A  
HETATM    5  C   UNL     1     -10.781  13.610  66.468  1.00  0.00    -0.284 A  
HETATM    6  C   UNL     1     -11.865  13.500  65.589  1.00  0.00    -0.397 A  
HETATM    7  H   UNL     1     -12.375  16.588  63.179  1.00  0.00     0.000 HD 
HETATM    8  O   UNL     1     -11.640  16.679  63.775  1.00  0.00    -1.045 OA 
HETATM    9  C   UNL     1     -12.162  14.533  64.693  1.00  0.00    -0.474 A  
HETATM   10  C   UNL     1     -11.369  15.681  64.672  1.00  0.00    -0.349 A  
BRANCH   5  11
HETATM   11  C   UNL     1     -10.476  12.506  67.391  1.00  0.00    -0.231 C  
HETATM   12  C   UNL     1     -11.351  12.034  68.295  1.00  0.00    -0.342 C  
BRANCH  12  13
HETATM   13  C   UNL     1     -10.971  10.927  69.219  1.00  0.00    -0.244 C  
HETATM   14  O   UNL     1     -11.807  10.384  69.942  1.00  0.00    -0.258 OA 
BRANCH  13  15
HETATM   15  C   UNL     1      -9.536  10.480  69.221  1.00  0.00    -0.191 C  
BRANCH  15  16
HETATM   16  C   UNL     1      -9.352   9.093  68.673  1.00  0.00    -0.135 C  
HETATM   17  O   UNL     1      -9.567   8.846  67.486  1.00  0.00    -0.138 OA 
BRANCH  16  18
HETATM   18  C   UNL     1      -8.849   8.046  69.610  1.00  0.00    -0.141 C  
HETATM   19  C   UNL     1      -9.682   7.510  70.515  1.00  0.00    -0.179 C  
BRANCH  19  20
HETATM   20  C   UNL     1      -9.338   6.437  71.464  1.00  0.00    -0.152 A  
HETATM   21  C   UNL     1      -9.814   5.121  71.323  1.00  0.00    -0.239 A  
HETATM   22  C   UNL     1      -9.543   4.157  72.299  1.00  0.00    -0.143 A  
HETATM   23  C   UNL     1      -8.583   6.769  72.601  1.00  0.00    -0.128 A  
HETATM   24  C   UNL     1      -8.787   4.522  73.417  1.00  0.00    -0.102 A  
HETATM   25  H   UNL     1      -8.006   3.854  75.158  1.00  0.00     0.000 HD 
HETATM   26  O   UNL     1      -8.520   3.606  74.398  1.00  0.00    -0.084 OA 
HETATM   27  C   UNL     1      -8.302   5.812  73.575  1.00  0.00    -0.111 A  
BRANCH  22  28
HETATM   28  O   UNL     1      -9.968   2.855  72.283  1.00  0.00    -0.154 OA 
HETATM   29  C   UNL     1      -9.698   2.106  71.105  1.00  0.00    -0.112 C  
ENDBRANCH  22  28
ENDBRANCH  19  20
ENDBRANCH  16  18
ENDBRANCH  15  16
ENDBRANCH  13  15
ENDBRANCH  12  13
ENDBRANCH   5  11
ENDBRANCH   2   3
TORSDOF 8
ENDMDL
MODEL      178
REMARK 921   NORMALIZED FREE ENERGY PREDICTED BY IDOCK:   -4.37 KCAL/MOL
REMARK 922        TOTAL FREE ENERGY PREDICTED BY IDOCK:   -7.97 KCAL/MOL
REMARK 923 INTER-LIGAND FREE ENERGY PREDICTED BY IDOCK:   -7.40 KCAL/MOL
REMARK 924 INTRA-LIGAND FREE ENERGY PREDICTED BY IDOCK:   -0.57 KCAL/MOL
REMARK 927      BINDING AFFINITY PREDICTED BY RF-SCORE:    0.00 PKD
ROOT
HETATM    1  C   UNL     1      -6.858   3.310  68.440  1.00  0.00    -0.049 C  
HETATM    2  O   UNL     1      -7.276   3.546  67.098  1.00  0.00    -0.061 OA 
ENDROOT
BRANCH   2   3
HETATM    3  C   UNL     1      -8.470   4.213  66.970  1.00  0.00    -0.100 A  
HETATM    4  C   UNL     1      -9.015   5.006  67.984  1.00  0.00    -0.117 A  
HETATM    5  C   UNL     1     -10.257   5.636  67.827  1.00  0.00    -0.238 A  
HETATM    6  C   UNL     1     -10.911   5.534  66.592  1.00  0.00    -0.257 A  
HETATM    7  H   UNL     1      -9.073   3.286  63.915  1.00  0.00     0.000 HD 
HETATM    8  O   UNL     1      -8.615   3.352  64.745  1.00  0.00    -0.099 OA 
HETATM    9  C   UNL     1     -10.356   4.779  65.554  1.00  0.00    -0.162 A  
HETATM   10  C   UNL     1      -9.144   4.116  65.749  1.00  0.00    -0.136 A  
BRANCH   5  11
HETATM   11  C   UNL     1     -10.865   6.421  68.911  1.00  0.00    -0.382 C  
HETATM   12  C   UNL     1     -10.615   7.727  69.108  1.00  0.00    -0.193 C  
BRANCH  12  13
HETATM   13  C   UNL     1     -11.246   8.462  70.241  1.00  0.00    -0.173 C  
HETATM   14  O   UNL     1     -12.006   7.895  71.026  1.00  0.00    -0.298 OA 
BRANCH  13  15
HETATM   15  C   UNL     1     -10.904   9.917  70.408  1.00  0.00    -0.380 C  
BRANCH  15  16
HETATM   16  C   UNL     1     -12.056  10.830  70.095  1.00  0.00    -0.346 C  
HETATM   17  O   UNL     1     -13.181  10.606  70.539  1.00  0.00    -0.242 OA 
BRANCH  16  18
HETATM   18  C   UNL     1     -11.767  12.041  69.271  1.00  0.00    -0.389 C  
HETATM   19  C   UNL     1     -11.623  11.921  67.942  1.00  0.00    -0.393 C  
BRANCH  19  20
HETATM   20  C   UNL     1     -11.388  13.032  67.004  1.00  0.00    -0.343 A  
HETATM   21  C   UNL     1     -10.331  13.946  67.163  1.00  0.00    -0.265 A  
HETATM   22  C   UNL     1     -10.202  15.043  66.305  1.00  0.00    -0.294 A  
HETATM   23  C   UNL     1     -12.314  13.237  65.968  1.00  0.00    -0.449 A  
HETATM   24  C   UNL     1     -11.140  15.214  65.284  1.00  0.00    -0.383 A  
HETATM   25  H   UNL     1     -11.689  16.404  63.744  1.00  0.00     0.000 HD 
HETATM   26  O   UNL     1     -11.051  16.287  64.438  1.00  0.00    -0.735 OA 
HETATM   27  C   UNL     1     -12.188  14.323  65.103  1.00  0.00    -0.422 A  
BRANCH  22  28
HETATM   28  O   UNL     1      -9.231  16.006  66.372  1.00  0.00    -0.250 OA 
HETATM   29  C   UNL     1      -7.968  15.611  66.894  1.00  0.00    -0.243 C  
ENDBRANCH  22  28
ENDBRANCH  19  20
ENDBRANCH  16  18
ENDBRANCH  15  16
ENDBRANCH  13  15
ENDBRANCH  12  13
ENDBRANCH   5  11
ENDBRANCH   2   3
TORSDOF 8
ENDMDL
MODEL      179
REMARK 921   NORMALIZED FREE ENERGY PREDICTED BY IDOCK:   -4.37 KCAL/MOL
REMARK 922        TOTAL FREE ENERGY PREDICTED BY IDOCK:   -7.96 KCAL/MOL
REMARK 923 INTER-LIGAND FREE ENERGY PREDICTED BY IDOCK:   -6.39 KCAL/MOL
REMARK 924 INTRA-LIGAND FREE ENERGY PREDICTED BY IDOCK:   -1.57 KCAL/MOL
REMARK 927      BINDING AFFINITY PREDICTED BY RF-SCORE:    0.00 PKD
ROOT
HETATM    1  C   UNL     1     -11.711  12.444  66.590  1.00  0.00    -0.372 C  
HETATM    2  O   UNL     1     -10.386  12.809  66.966  1.00  0.00    -0.232 OA 
ENDROOT
BRANCH   2   3
HETATM    3  C   UNL     1      -9.755  11.924  67.804  1.00  0.00    -0.189 A  
HETATM    4  C   UNL     1     -10.432  11.158  68.758  1.00  0.00    -0.227 A  
HETATM    5  C   UNL     1      -9.743  10.297  69.623  1.00  0.00    -0.216 A  
HETATM    6  C   UNL     1      -8.361  10.142  69.456  1.00  0.00    -0.178 A  
HETATM    7  H   UNL     1      -6.762  12.386  66.626  1.00  0.00     0.000 HD 
HETATM    8  O   UNL     1      -7.701  12.496  66.724  1.00  0.00    -0.005 OA 
HETATM    9  C   UNL     1      -7.677  10.869  68.476  1.00  0.00    -0.119 A  
HETATM   10  C   UNL     1      -8.374  11.761  67.662  1.00  0.00    -0.145 A  
BRANCH   5  11
HETATM   11  C   UNL     1     -10.442   9.535  70.668  1.00  0.00    -0.374 C  
HETATM   12  C   UNL     1     -11.763   9.633  70.897  1.00  0.00    -0.412 C  
BRANCH  12  13
HETATM   13  C   UNL     1     -12.408   8.849  71.989  1.00  0.00    -0.390 C  
HETATM   14  O   UNL     1     -13.583   9.040  72.304  1.00  0.00    -0.424 OA 
BRANCH  13  15
HETATM   15  C   UNL     1     -11.581   7.800  72.679  1.00  0.00    -0.398 C  
BRANCH  15  16
HETATM   16  C   UNL     1     -11.794   6.422  72.118  1.00  0.00    -0.314 C  
HETATM   17  O   UNL     1     -12.648   5.671  72.588  1.00  0.00     0.017 OA 
BRANCH  16  18
HETATM   18  C   UNL     1     -10.968   6.026  70.939  1.00  0.00    -0.355 C  
HETATM   19  C   UNL     1     -11.319   6.443  69.713  1.00  0.00    -0.494 C  
BRANCH  19  20
HETATM   20  C   UNL     1     -10.573   6.174  68.472  1.00  0.00    -0.327 A  
HETATM   21  C   UNL     1     -10.139   4.884  68.115  1.00  0.00    -0.141 A  
HETATM   22  C   UNL     1      -9.350   4.687  66.977  1.00  0.00    -0.141 A  
HETATM   23  C   UNL     1     -10.203   7.263  67.667  1.00  0.00    -0.257 A  
HETATM   24  C   UNL     1      -9.002   5.794  66.198  1.00  0.00    -0.149 A  
HETATM   25  H   UNL     1      -7.980   6.389  64.558  1.00  0.00     0.000 HD 
HETATM   26  O   UNL     1      -8.216   5.637  65.088  1.00  0.00    -0.124 OA 
HETATM   27  C   UNL     1      -9.423   7.074  66.526  1.00  0.00    -0.199 A  
BRANCH  22  28
HETATM   28  O   UNL     1      -8.853   3.488  66.541  1.00  0.00    -0.118 OA 
HETATM   29  C   UNL     1      -9.235   2.330  67.272  1.00  0.00    -0.106 C  
ENDBRANCH  22  28
ENDBRANCH  19  20
ENDBRANCH  16  18
ENDBRANCH  15  16
ENDBRANCH  13  15
ENDBRANCH  12  13
ENDBRANCH   5  11
ENDBRANCH   2   3
TORSDOF 8
ENDMDL
MODEL      180
REMARK 921   NORMALIZED FREE ENERGY PREDICTED BY IDOCK:   -4.32 KCAL/MOL
REMARK 922        TOTAL FREE ENERGY PREDICTED BY IDOCK:   -7.88 KCAL/MOL
REMARK 923 INTER-LIGAND FREE ENERGY PREDICTED BY IDOCK:   -7.09 KCAL/MOL
REMARK 924 INTRA-LIGAND FREE ENERGY PREDICTED BY IDOCK:   -0.78 KCAL/MOL
REMARK 927      BINDING AFFINITY PREDICTED BY RF-SCORE:    0.00 PKD
ROOT
HETATM    1  C   UNL     1     -10.186   4.508  66.250  1.00  0.00    -0.239 C  
HETATM    2  O   UNL     1      -8.850   5.003  66.243  1.00  0.00    -0.115 OA 
ENDROOT
BRANCH   2   3
HETATM    3  C   UNL     1      -8.717   6.309  65.843  1.00  0.00    -0.149 A  
HETATM    4  C   UNL     1      -9.302   7.381  66.524  1.00  0.00    -0.222 A  
HETATM    5  C   UNL     1      -9.175   8.697  66.057  1.00  0.00    -0.276 A  
HETATM    6  C   UNL     1      -8.369   8.937  64.938  1.00  0.00    -0.181 A  
HETATM    7  H   UNL     1      -6.798   5.709  63.290  1.00  0.00     0.000 HD 
HETATM    8  O   UNL     1      -7.337   5.532  64.052  1.00  0.00    -0.052 OA 
HETATM    9  C   UNL     1      -7.742   7.879  64.272  1.00  0.00    -0.128 A  
HETATM   10  C   UNL     1      -7.924   6.571  64.722  1.00  0.00    -0.120 A  
BRANCH   5  11
HETATM   11  C   UNL     1      -9.838   9.821  66.734  1.00  0.00    -0.265 C  
HETATM   12  C   UNL     1     -10.822   9.665  67.636  1.00  0.00    -0.276 C  
BRANCH  12  13
HETATM   13  C   UNL     1     -11.469  10.849  68.271  1.00  0.00    -0.305 C  
HETATM   14  O   UNL     1     -12.511  10.736  68.917  1.00  0.00    -0.377 OA 
BRANCH  13  15
HETATM   15  C   UNL     1     -10.795  12.183  68.114  1.00  0.00    -0.256 C  
BRANCH  15  16
HETATM   16  C   UNL     1     -11.468  13.066  67.101  1.00  0.00    -0.331 C  
HETATM   17  O   UNL     1     -12.274  12.604  66.294  1.00  0.00    -0.562 OA 
BRANCH  16  18
HETATM   18  C   UNL     1     -11.161  14.526  67.151  1.00  0.00    -0.325 C  
HETATM   19  C   UNL     1     -10.149  14.965  67.916  1.00  0.00    -0.227 C  
BRANCH  19  20
HETATM   20  C   UNL     1      -9.703  16.364  68.022  1.00  0.00    -0.235 A  
HETATM   21  C   UNL     1     -10.438  17.436  67.485  1.00  0.00    -0.354 A  
HETATM   22  C   UNL     1      -9.930  18.739  67.522  1.00  0.00    -0.338 A  
HETATM   23  C   UNL     1      -8.448  16.622  68.598  1.00  0.00    -0.253 A  
HETATM   24  C   UNL     1      -8.680  18.959  68.105  1.00  0.00    -0.309 A  
HETATM   25  H   UNL     1      -7.297  20.369  68.538  1.00  0.00     0.000 HD 
HETATM   26  O   UNL     1      -8.147  20.219  68.142  1.00  0.00    -0.196 OA 
HETATM   27  C   UNL     1      -7.938  17.919  68.647  1.00  0.00    -0.285 A  
BRANCH  22  28
HETATM   28  O   UNL     1     -10.542  19.855  67.016  1.00  0.00    -0.449 OA 
HETATM   29  C   UNL     1     -10.727  19.904  65.607  1.00  0.00    -0.272 C  
ENDBRANCH  22  28
ENDBRANCH  19  20
ENDBRANCH  16  18
ENDBRANCH  15  16
ENDBRANCH  13  15
ENDBRANCH  12  13
ENDBRANCH   5  11
ENDBRANCH   2   3
TORSDOF 8
ENDMDL
MODEL      181
REMARK 921   NORMALIZED FREE ENERGY PREDICTED BY IDOCK:   -4.31 KCAL/MOL
REMARK 922        TOTAL FREE ENERGY PREDICTED BY IDOCK:   -7.87 KCAL/MOL
REMARK 923 INTER-LIGAND FREE ENERGY PREDICTED BY IDOCK:   -6.39 KCAL/MOL
REMARK 924 INTRA-LIGAND FREE ENERGY PREDICTED BY IDOCK:   -1.48 KCAL/MOL
REMARK 927      BINDING AFFINITY PREDICTED BY RF-SCORE:    0.00 PKD
ROOT
HETATM    1  C   UNL     1      -5.857   6.070  71.325  1.00  0.00    -0.026 C  
HETATM    2  O   UNL     1      -6.201   7.388  71.745  1.00  0.00    -0.037 OA 
ENDROOT
BRANCH   2   3
HETATM    3  C   UNL     1      -7.469   7.792  71.407  1.00  0.00    -0.076 A  
HETATM    4  C   UNL     1      -7.842   8.130  70.102  1.00  0.00    -0.098 A  
HETATM    5  C   UNL     1      -9.137   8.578  69.809  1.00  0.00    -0.153 A  
HETATM    6  C   UNL     1     -10.090   8.597  70.835  1.00  0.00    -0.262 A  
HETATM    7  H   UNL     1      -8.739   7.514  74.385  1.00  0.00     0.000 HD 
HETATM    8  O   UNL     1      -8.084   7.489  73.697  1.00  0.00    -0.116 OA 
HETATM    9  C   UNL     1      -9.742   8.221  72.137  1.00  0.00    -0.344 A  
HETATM   10  C   UNL     1      -8.433   7.828  72.418  1.00  0.00    -0.127 A  
BRANCH   5  11
HETATM   11  C   UNL     1      -9.519   8.992  68.451  1.00  0.00    -0.154 C  
HETATM   12  C   UNL     1      -8.657   9.529  67.571  1.00  0.00    -0.126 C  
BRANCH  12  13
HETATM   13  C   UNL     1      -9.113   9.950  66.215  1.00  0.00    -0.155 C  
HETATM   14  O   UNL     1      -9.243   9.132  65.304  1.00  0.00    -0.221 OA 
BRANCH  13  15
HETATM   15  C   UNL     1      -9.430  11.404  66.005  1.00  0.00    -0.245 C  
BRANCH  15  16
HETATM   16  C   UNL     1      -8.730  12.305  66.982  1.00  0.00    -0.199 C  
HETATM   17  O   UNL     1      -7.632  12.796  66.718  1.00  0.00     0.076 OA 
BRANCH  16  18
HETATM   18  C   UNL     1      -9.441  12.623  68.255  1.00  0.00    -0.203 C  
HETATM   19  C   UNL     1     -10.774  12.478  68.324  1.00  0.00    -0.246 C  
BRANCH  19  20
HETATM   20  C   UNL     1     -11.597  12.704  69.523  1.00  0.00    -0.348 A  
HETATM   21  C   UNL     1     -12.085  11.649  70.316  1.00  0.00    -0.443 A  
HETATM   22  C   UNL     1     -12.945  11.903  71.390  1.00  0.00    -0.284 A  
HETATM   23  C   UNL     1     -11.986  14.019  69.827  1.00  0.00    -0.393 A  
HETATM   24  C   UNL     1     -13.308  13.224  71.665  1.00  0.00    -0.322 A  
HETATM   25  H   UNL     1     -14.409  14.402  72.886  1.00  0.00     0.000 HD 
HETATM   26  O   UNL     1     -14.161  13.504  72.698  1.00  0.00    -0.751 OA 
HETATM   27  C   UNL     1     -12.836  14.281  70.901  1.00  0.00    -0.416 A  
BRANCH  22  28
HETATM   28  O   UNL     1     -13.498  10.962  72.217  1.00  0.00    -0.324 OA 
HETATM   29  C   UNL     1     -13.519   9.622  71.742  1.00  0.00    -0.394 C  
ENDBRANCH  22  28
ENDBRANCH  19  20
ENDBRANCH  16  18
ENDBRANCH  15  16
ENDBRANCH  13  15
ENDBRANCH  12  13
ENDBRANCH   5  11
ENDBRANCH   2   3
TORSDOF 8
ENDMDL
MODEL      182
REMARK 921   NORMALIZED FREE ENERGY PREDICTED BY IDOCK:   -4.31 KCAL/MOL
REMARK 922        TOTAL FREE ENERGY PREDICTED BY IDOCK:   -7.87 KCAL/MOL
REMARK 923 INTER-LIGAND FREE ENERGY PREDICTED BY IDOCK:   -7.34 KCAL/MOL
REMARK 924 INTRA-LIGAND FREE ENERGY PREDICTED BY IDOCK:   -0.52 KCAL/MOL
REMARK 927      BINDING AFFINITY PREDICTED BY RF-SCORE:    0.00 PKD
ROOT
HETATM    1  C   UNL     1      -8.882   9.700  63.180  1.00  0.00    -0.240 C  
HETATM    2  O   UNL     1      -7.972   8.925  63.955  1.00  0.00    -0.136 OA 
ENDROOT
BRANCH   2   3
HETATM    3  C   UNL     1      -8.506   8.364  65.089  1.00  0.00    -0.160 A  
HETATM    4  C   UNL     1      -9.462   9.005  65.882  1.00  0.00    -0.317 A  
HETATM    5  C   UNL     1      -9.950   8.412  67.055  1.00  0.00    -0.323 A  
HETATM    6  C   UNL     1      -9.530   7.116  67.378  1.00  0.00    -0.156 A  
HETATM    7  H   UNL     1      -6.883   5.555  64.896  1.00  0.00     0.000 HD 
HETATM    8  O   UNL     1      -7.164   6.432  64.661  1.00  0.00    -0.058 OA 
HETATM    9  C   UNL     1      -8.606   6.445  66.570  1.00  0.00    -0.125 A  
HETATM   10  C   UNL     1      -8.092   7.074  65.435  1.00  0.00    -0.133 A  
BRANCH   5  11
HETATM   11  C   UNL     1     -10.911   9.106  67.925  1.00  0.00    -0.147 C  
HETATM   12  C   UNL     1     -10.570  10.109  68.752  1.00  0.00    -0.236 C  
BRANCH  12  13
HETATM   13  C   UNL     1     -11.588  10.756  69.627  1.00  0.00    -0.316 C  
HETATM   14  O   UNL     1     -12.276  10.094  70.405  1.00  0.00    -0.266 OA 
BRANCH  13  15
HETATM   15  C   UNL     1     -11.732  12.251  69.545  1.00  0.00    -0.398 C  
BRANCH  15  16
HETATM   16  C   UNL     1     -11.691  12.767  68.134  1.00  0.00    -0.345 C  
HETATM   17  O   UNL     1     -12.212  12.138  67.213  1.00  0.00    -0.496 OA 
BRANCH  16  18
HETATM   18  C   UNL     1     -11.044  14.093  67.908  1.00  0.00    -0.285 C  
HETATM   19  C   UNL     1     -10.493  14.747  68.941  1.00  0.00    -0.249 C  
BRANCH  19  20
HETATM   20  C   UNL     1      -9.779  16.033  68.857  1.00  0.00    -0.232 A  
HETATM   21  C   UNL     1     -10.417  17.229  68.481  1.00  0.00    -0.375 A  
HETATM   22  C   UNL     1      -9.682  18.408  68.319  1.00  0.00    -0.344 A  
HETATM   23  C   UNL     1      -8.391  16.040  69.069  1.00  0.00    -0.243 A  
HETATM   24  C   UNL     1      -8.302  18.379  68.540  1.00  0.00    -0.323 A  
HETATM   25  H   UNL     1      -6.615  19.493  68.524  1.00  0.00     0.000 HD 
HETATM   26  O   UNL     1      -7.553  19.512  68.373  1.00  0.00    -0.308 OA 
HETATM   27  C   UNL     1      -7.652  17.213  68.917  1.00  0.00    -0.234 A  
BRANCH  22  28
HETATM   28  O   UNL     1     -10.185  19.624  67.938  1.00  0.00    -0.398 OA 
HETATM   29  C   UNL     1     -10.412  19.818  66.548  1.00  0.00    -0.500 C  
ENDBRANCH  22  28
ENDBRANCH  19  20
ENDBRANCH  16  18
ENDBRANCH  15  16
ENDBRANCH  13  15
ENDBRANCH  12  13
ENDBRANCH   5  11
ENDBRANCH   2   3
TORSDOF 8
ENDMDL
MODEL      183
REMARK 921   NORMALIZED FREE ENERGY PREDICTED BY IDOCK:   -4.29 KCAL/MOL
REMARK 922        TOTAL FREE ENERGY PREDICTED BY IDOCK:   -7.85 KCAL/MOL
REMARK 923 INTER-LIGAND FREE ENERGY PREDICTED BY IDOCK:   -6.83 KCAL/MOL
REMARK 924 INTRA-LIGAND FREE ENERGY PREDICTED BY IDOCK:   -1.02 KCAL/MOL
REMARK 927      BINDING AFFINITY PREDICTED BY RF-SCORE:    0.00 PKD
ROOT
HETATM    1  C   UNL     1      -5.779  14.678  69.983  1.00  0.00    -0.121 C  
HETATM    2  O   UNL     1      -5.464  15.688  69.028  1.00  0.00    -0.102 OA 
ENDROOT
BRANCH   2   3
HETATM    3  C   UNL     1      -6.549  16.323  68.475  1.00  0.00    -0.130 A  
HETATM    4  C   UNL     1      -7.374  15.732  67.514  1.00  0.00    -0.205 A  
HETATM    5  C   UNL     1      -8.447  16.432  66.946  1.00  0.00    -0.254 A  
HETATM    6  C   UNL     1      -8.741  17.715  67.424  1.00  0.00    -0.235 A  
HETATM    7  H   UNL     1      -6.269  19.069  70.191  1.00  0.00     0.000 HD 
HETATM    8  O   UNL     1      -6.061  18.195  69.881  1.00  0.00    -0.229 OA 
HETATM    9  C   UNL     1      -7.950  18.303  68.417  1.00  0.00    -0.320 A  
HETATM   10  C   UNL     1      -6.855  17.609  68.932  1.00  0.00    -0.243 A  
BRANCH   5  11
HETATM   11  C   UNL     1      -9.281  15.838  65.891  1.00  0.00    -0.337 C  
HETATM   12  C   UNL     1     -10.558  16.194  65.669  1.00  0.00    -0.377 C  
BRANCH  12  13
HETATM   13  C   UNL     1     -11.358  15.536  64.597  1.00  0.00    -0.357 C  
HETATM   14  O   UNL     1     -12.038  16.196  63.810  1.00  0.00    -0.946 OA 
BRANCH  13  15
HETATM   15  C   UNL     1     -11.290  14.037  64.493  1.00  0.00    -0.365 C  
BRANCH  15  16
HETATM   16  C   UNL     1     -11.773  13.341  65.735  1.00  0.00    -0.359 C  
HETATM   17  O   UNL     1     -12.637  13.847  66.450  1.00  0.00    -0.413 OA 
BRANCH  16  18
HETATM   18  C   UNL     1     -11.204  11.993  66.031  1.00  0.00    -0.385 C  
HETATM   19  C   UNL     1      -9.887  11.782  65.881  1.00  0.00    -0.265 C  
BRANCH  19  20
HETATM   20  C   UNL     1      -9.183  10.524  66.184  1.00  0.00    -0.197 A  
HETATM   21  C   UNL     1      -7.869  10.271  65.753  1.00  0.00    -0.145 A  
HETATM   22  C   UNL     1      -7.273   9.025  65.979  1.00  0.00    -0.093 A  
HETATM   23  C   UNL     1      -9.890   9.508  66.846  1.00  0.00    -0.262 A  
HETATM   24  C   UNL     1      -8.004   8.037  66.643  1.00  0.00    -0.102 A  
HETATM   25  H   UNL     1      -7.953   6.131  67.315  1.00  0.00     0.000 HD 
HETATM   26  O   UNL     1      -7.456   6.803  66.863  1.00  0.00    -0.080 OA 
HETATM   27  C   UNL     1      -9.301   8.266  67.082  1.00  0.00    -0.189 A  
BRANCH  22  28
HETATM   28  O   UNL     1      -6.012   8.655  65.591  1.00  0.00    -0.050 OA 
HETATM   29  C   UNL     1      -5.811   8.420  64.203  1.00  0.00    -0.065 C  
ENDBRANCH  22  28
ENDBRANCH  19  20
ENDBRANCH  16  18
ENDBRANCH  15  16
ENDBRANCH  13  15
ENDBRANCH  12  13
ENDBRANCH   5  11
ENDBRANCH   2   3
TORSDOF 8
ENDMDL
MODEL      184
REMARK 921   NORMALIZED FREE ENERGY PREDICTED BY IDOCK:   -4.28 KCAL/MOL
REMARK 922        TOTAL FREE ENERGY PREDICTED BY IDOCK:   -7.82 KCAL/MOL
REMARK 923 INTER-LIGAND FREE ENERGY PREDICTED BY IDOCK:   -7.97 KCAL/MOL
REMARK 924 INTRA-LIGAND FREE ENERGY PREDICTED BY IDOCK:    0.15 KCAL/MOL
REMARK 927      BINDING AFFINITY PREDICTED BY RF-SCORE:    0.00 PKD
ROOT
HETATM    1  C   UNL     1     -10.385  20.180  66.153  1.00  0.00    -0.373 C  
HETATM    2  O   UNL     1      -9.615  19.642  67.224  1.00  0.00    -0.317 OA 
ENDROOT
BRANCH   2   3
HETATM    3  C   UNL     1      -9.451  18.279  67.194  1.00  0.00    -0.268 A  
HETATM    4  C   UNL     1     -10.301  17.391  67.860  1.00  0.00    -0.369 A  
HETATM    5  C   UNL     1     -10.073  16.008  67.836  1.00  0.00    -0.241 A  
HETATM    6  C   UNL     1      -9.023  15.514  67.052  1.00  0.00    -0.249 A  
HETATM    7  H   UNL     1      -6.857  18.274  65.237  1.00  0.00     0.000 HD 
HETATM    8  O   UNL     1      -7.570  18.623  65.759  1.00  0.00    -0.478 OA 
HETATM    9  C   UNL     1      -8.190  16.388  66.346  1.00  0.00    -0.366 A  
HETATM   10  C   UNL     1      -8.403  17.765  66.425  1.00  0.00    -0.248 A  
BRANCH   5  11
HETATM   11  C   UNL     1     -10.927  15.074  68.584  1.00  0.00    -0.261 C  
HETATM   12  C   UNL     1     -11.568  15.403  69.718  1.00  0.00    -0.339 C  
BRANCH  12  13
HETATM   13  C   UNL     1     -12.402  14.402  70.442  1.00  0.00    -0.342 C  
HETATM   14  O   UNL     1     -13.191  14.745  71.323  1.00  0.00    -0.342 OA 
BRANCH  13  15
HETATM   15  C   UNL     1     -12.265  12.959  70.043  1.00  0.00    -0.292 C  
BRANCH  15  16
HETATM   16  C   UNL     1     -12.625  12.008  71.150  1.00  0.00    -0.271 C  
HETATM   17  O   UNL     1     -13.115  12.416  72.203  1.00  0.00    -0.424 OA 
BRANCH  16  18
HETATM   18  C   UNL     1     -12.414  10.552  70.899  1.00  0.00    -0.488 C  
HETATM   19  C   UNL     1     -11.238  10.125  70.412  1.00  0.00    -0.402 C  
BRANCH  19  20
HETATM   20  C   UNL     1     -10.874   8.720  70.165  1.00  0.00    -0.241 A  
HETATM   21  C   UNL     1     -10.937   7.735  71.166  1.00  0.00    -0.259 A  
HETATM   22  C   UNL     1     -10.489   6.434  70.915  1.00  0.00    -0.228 A  
HETATM   23  C   UNL     1     -10.355   8.378  68.906  1.00  0.00    -0.231 A  
HETATM   24  C   UNL     1      -9.981   6.127  69.650  1.00  0.00    -0.168 A  
HETATM   25  H   UNL     1      -9.173   4.659  68.518  1.00  0.00     0.000 HD 
HETATM   26  O   UNL     1      -9.519   4.868  69.378  1.00  0.00    -0.126 OA 
HETATM   27  C   UNL     1      -9.914   7.081  68.644  1.00  0.00    -0.156 A  
BRANCH  22  28
HETATM   28  O   UNL     1     -10.482   5.398  71.812  1.00  0.00    -0.215 OA 
HETATM   29  C   UNL     1     -11.082   5.641  73.078  1.00  0.00    -0.282 C  
ENDBRANCH  22  28
ENDBRANCH  19  20
ENDBRANCH  16  18
ENDBRANCH  15  16
ENDBRANCH  13  15
ENDBRANCH  12  13
ENDBRANCH   5  11
ENDBRANCH   2   3
TORSDOF 8
ENDMDL
MODEL      185
REMARK 921   NORMALIZED FREE ENERGY PREDICTED BY IDOCK:   -4.26 KCAL/MOL
REMARK 922        TOTAL FREE ENERGY PREDICTED BY IDOCK:   -7.80 KCAL/MOL
REMARK 923 INTER-LIGAND FREE ENERGY PREDICTED BY IDOCK:   -7.05 KCAL/MOL
REMARK 924 INTRA-LIGAND FREE ENERGY PREDICTED BY IDOCK:   -0.75 KCAL/MOL
REMARK 927      BINDING AFFINITY PREDICTED BY RF-SCORE:    0.00 PKD
ROOT
HETATM    1  C   UNL     1     -10.470   5.822  68.530  1.00  0.00    -0.225 C  
HETATM    2  O   UNL     1     -10.941   6.109  69.844  1.00  0.00    -0.316 OA 
ENDROOT
BRANCH   2   3
HETATM    3  C   UNL     1     -11.085   7.443  70.132  1.00  0.00    -0.246 A  
HETATM    4  C   UNL     1     -10.629   8.461  69.289  1.00  0.00    -0.193 A  
HETATM    5  C   UNL     1     -10.759   9.811  69.641  1.00  0.00    -0.264 A  
HETATM    6  C   UNL     1     -11.442  10.135  70.821  1.00  0.00    -0.442 A  
HETATM    7  H   UNL     1     -12.670   7.036  72.939  1.00  0.00     0.000 HD 
HETATM    8  O   UNL     1     -12.215   6.802  72.139  1.00  0.00    -0.291 OA 
HETATM    9  C   UNL     1     -11.941   9.128  71.653  1.00  0.00    -0.437 A  
HETATM   10  C   UNL     1     -11.754   7.789  71.310  1.00  0.00    -0.288 A  
BRANCH   5  11
HETATM   11  C   UNL     1     -10.228  10.884  68.788  1.00  0.00    -0.210 C  
HETATM   12  C   UNL     1     -10.229  10.830  67.445  1.00  0.00    -0.241 C  
BRANCH  12  13
HETATM   13  C   UNL     1      -9.654  11.943  66.636  1.00  0.00    -0.209 C  
HETATM   14  O   UNL     1      -9.411  11.801  65.437  1.00  0.00    -0.190 OA 
BRANCH  13  15
HETATM   15  C   UNL     1      -9.401  13.253  67.329  1.00  0.00    -0.226 C  
BRANCH  15  16
HETATM   16  C   UNL     1      -7.946  13.490  67.623  1.00  0.00    -0.176 C  
HETATM   17  O   UNL     1      -7.138  12.562  67.617  1.00  0.00    -0.111 OA 
BRANCH  16  18
HETATM   18  C   UNL     1      -7.516  14.899  67.865  1.00  0.00    -0.153 C  
HETATM   19  C   UNL     1      -7.691  15.821  66.906  1.00  0.00    -0.254 C  
BRANCH  19  20
HETATM   20  C   UNL     1      -7.363  17.251  67.025  1.00  0.00    -0.218 A  
HETATM   21  C   UNL     1      -7.158  17.880  68.266  1.00  0.00    -0.232 A  
HETATM   22  C   UNL     1      -6.945  19.261  68.339  1.00  0.00    -0.280 A  
HETATM   23  C   UNL     1      -7.350  18.031  65.857  1.00  0.00    -0.248 A  
HETATM   24  C   UNL     1      -6.936  20.005  67.157  1.00  0.00    -0.230 A  
HETATM   25  H   UNL     1      -6.741  21.867  66.393  1.00  0.00     0.000 HD 
HETATM   26  O   UNL     1      -6.747  21.361  67.197  1.00  0.00    -0.537 OA 
HETATM   27  C   UNL     1      -7.130  19.407  65.920  1.00  0.00    -0.307 A  
BRANCH  22  28
HETATM   28  O   UNL     1      -6.754  19.985  69.486  1.00  0.00    -0.326 OA 
HETATM   29  C   UNL     1      -5.902  19.416  70.472  1.00  0.00    -0.202 C  
ENDBRANCH  22  28
ENDBRANCH  19  20
ENDBRANCH  16  18
ENDBRANCH  15  16
ENDBRANCH  13  15
ENDBRANCH  12  13
ENDBRANCH   5  11
ENDBRANCH   2   3
TORSDOF 8
ENDMDL
MODEL      186
REMARK 921   NORMALIZED FREE ENERGY PREDICTED BY IDOCK:   -4.25 KCAL/MOL
REMARK 922        TOTAL FREE ENERGY PREDICTED BY IDOCK:   -7.79 KCAL/MOL
REMARK 923 INTER-LIGAND FREE ENERGY PREDICTED BY IDOCK:   -6.22 KCAL/MOL
REMARK 924 INTRA-LIGAND FREE ENERGY PREDICTED BY IDOCK:   -1.57 KCAL/MOL
REMARK 927      BINDING AFFINITY PREDICTED BY RF-SCORE:    0.00 PKD
ROOT
HETATM    1  C   UNL     1     -12.358  11.253  70.897  1.00  0.00    -0.388 C  
HETATM    2  O   UNL     1     -12.085  12.577  70.447  1.00  0.00    -0.362 OA 
ENDROOT
BRANCH   2   3
HETATM    3  C   UNL     1     -11.764  12.684  69.117  1.00  0.00    -0.321 A  
HETATM    4  C   UNL     1     -11.343  11.600  68.341  1.00  0.00    -0.339 A  
HETATM    5  C   UNL     1     -10.985  11.762  66.996  1.00  0.00    -0.333 A  
HETATM    6  C   UNL     1     -11.143  13.022  66.406  1.00  0.00    -0.313 A  
HETATM    7  H   UNL     1     -12.424  15.854  68.843  1.00  0.00     0.000 HD 
HETATM    8  O   UNL     1     -12.328  15.003  69.255  1.00  0.00    -0.206 OA 
HETATM    9  C   UNL     1     -11.605  14.107  67.159  1.00  0.00    -0.400 A  
HETATM   10  C   UNL     1     -11.905  13.936  68.510  1.00  0.00    -0.366 A  
BRANCH   5  11
HETATM   11  C   UNL     1     -10.484  10.638  66.193  1.00  0.00    -0.260 C  
HETATM   12  C   UNL     1      -9.349  10.689  65.474  1.00  0.00    -0.245 C  
BRANCH  12  13
HETATM   13  C   UNL     1      -8.907   9.521  64.660  1.00  0.00    -0.213 C  
HETATM   14  O   UNL     1      -8.636   9.641  63.465  1.00  0.00    -0.178 OA 
BRANCH  13  15
HETATM   15  C   UNL     1      -8.781   8.193  65.354  1.00  0.00    -0.128 C  
BRANCH  15  16
HETATM   16  C   UNL     1      -7.490   8.045  66.109  1.00  0.00    -0.075 C  
HETATM   17  O   UNL     1      -6.410   8.017  65.519  1.00  0.00    -0.044 OA 
BRANCH  16  18
HETATM   18  C   UNL     1      -7.569   7.989  67.599  1.00  0.00    -0.102 C  
HETATM   19  C   UNL     1      -8.767   8.031  68.202  1.00  0.00    -0.126 C  
BRANCH  19  20
HETATM   20  C   UNL     1      -8.997   7.933  69.653  1.00  0.00    -0.146 A  
HETATM   21  C   UNL     1      -8.846   6.729  70.364  1.00  0.00    -0.152 A  
HETATM   22  C   UNL     1      -9.169   6.658  71.723  1.00  0.00    -0.148 A  
HETATM   23  C   UNL     1      -9.476   9.067  70.330  1.00  0.00    -0.230 A  
HETATM   24  C   UNL     1      -9.641   7.806  72.365  1.00  0.00    -0.181 A  
HETATM   25  H   UNL     1     -10.304   8.545  74.127  1.00  0.00     0.000 HD 
HETATM   26  O   UNL     1      -9.983   7.765  73.690  1.00  0.00    -0.301 OA 
HETATM   27  C   UNL     1      -9.793   9.007  71.687  1.00  0.00    -0.366 A  
BRANCH  22  28
HETATM   28  O   UNL     1      -9.084   5.542  72.513  1.00  0.00    -0.136 OA 
HETATM   29  C   UNL     1      -9.666   4.349  72.004  1.00  0.00    -0.166 C  
ENDBRANCH  22  28
ENDBRANCH  19  20
ENDBRANCH  16  18
ENDBRANCH  15  16
ENDBRANCH  13  15
ENDBRANCH  12  13
ENDBRANCH   5  11
ENDBRANCH   2   3
TORSDOF 8
ENDMDL
MODEL      187
REMARK 921   NORMALIZED FREE ENERGY PREDICTED BY IDOCK:   -4.25 KCAL/MOL
REMARK 922        TOTAL FREE ENERGY PREDICTED BY IDOCK:   -7.78 KCAL/MOL
REMARK 923 INTER-LIGAND FREE ENERGY PREDICTED BY IDOCK:   -7.10 KCAL/MOL
REMARK 924 INTRA-LIGAND FREE ENERGY PREDICTED BY IDOCK:   -0.68 KCAL/MOL
REMARK 927      BINDING AFFINITY PREDICTED BY RF-SCORE:    0.00 PKD
ROOT
HETATM    1  C   UNL     1     -10.635  19.222  66.337  1.00  0.00    -0.450 C  
HETATM    2  O   UNL     1      -9.263  18.962  66.622  1.00  0.00    -0.308 OA 
ENDROOT
BRANCH   2   3
HETATM    3  C   UNL     1      -9.019  17.777  67.270  1.00  0.00    -0.246 A  
HETATM    4  C   UNL     1      -9.609  16.566  66.899  1.00  0.00    -0.253 A  
HETATM    5  C   UNL     1      -9.364  15.386  67.615  1.00  0.00    -0.203 A  
HETATM    6  C   UNL     1      -8.438  15.418  68.665  1.00  0.00    -0.170 A  
HETATM    7  H   UNL     1      -6.889  18.973  69.414  1.00  0.00     0.000 HD 
HETATM    8  O   UNL     1      -7.511  18.965  68.695  1.00  0.00    -0.299 OA 
HETATM    9  C   UNL     1      -7.806  16.614  69.020  1.00  0.00    -0.215 A  
HETATM   10  C   UNL     1      -8.105  17.788  68.328  1.00  0.00    -0.283 A  
BRANCH   5  11
HETATM   11  C   UNL     1     -10.029  14.122  67.266  1.00  0.00    -0.249 C  
HETATM   12  C   UNL     1     -10.961  14.017  66.304  1.00  0.00    -0.300 C  
BRANCH  12  13
HETATM   13  C   UNL     1     -11.615  12.709  66.014  1.00  0.00    -0.393 C  
HETATM   14  O   UNL     1     -12.711  12.652  65.456  1.00  0.00    -0.597 OA 
BRANCH  13  15
HETATM   15  C   UNL     1     -10.879  11.458  66.406  1.00  0.00    -0.323 C  
BRANCH  15  16
HETATM   16  C   UNL     1     -11.382  10.860  67.690  1.00  0.00    -0.270 C  
HETATM   17  O   UNL     1     -12.283  11.400  68.332  1.00  0.00    -0.571 OA 
BRANCH  16  18
HETATM   18  C   UNL     1     -10.783   9.563  68.124  1.00  0.00    -0.247 C  
HETATM   19  C   UNL     1     -10.362   9.416  69.389  1.00  0.00    -0.222 C  
BRANCH  19  20
HETATM   20  C   UNL     1      -9.801   8.183  69.967  1.00  0.00    -0.182 A  
HETATM   21  C   UNL     1     -10.167   7.709  71.239  1.00  0.00    -0.204 A  
HETATM   22  C   UNL     1      -9.538   6.588  71.790  1.00  0.00    -0.152 A  
HETATM   23  C   UNL     1      -8.794   7.512  69.255  1.00  0.00    -0.136 A  
HETATM   24  C   UNL     1      -8.542   5.943  71.053  1.00  0.00    -0.131 A  
HETATM   25  H   UNL     1      -7.218   4.414  71.070  1.00  0.00     0.000 HD 
HETATM   26  O   UNL     1      -7.895   4.853  71.571  1.00  0.00    -0.098 OA 
HETATM   27  C   UNL     1      -8.168   6.388  69.793  1.00  0.00    -0.126 A  
BRANCH  22  28
HETATM   28  O   UNL     1      -9.793   6.047  73.022  1.00  0.00    -0.165 OA 
HETATM   29  C   UNL     1     -10.949   5.226  73.137  1.00  0.00    -0.305 C  
ENDBRANCH  22  28
ENDBRANCH  19  20
ENDBRANCH  16  18
ENDBRANCH  15  16
ENDBRANCH  13  15
ENDBRANCH  12  13
ENDBRANCH   5  11
ENDBRANCH   2   3
TORSDOF 8
ENDMDL
MODEL      188
REMARK 921   NORMALIZED FREE ENERGY PREDICTED BY IDOCK:   -4.25 KCAL/MOL
REMARK 922        TOTAL FREE ENERGY PREDICTED BY IDOCK:   -7.78 KCAL/MOL
REMARK 923 INTER-LIGAND FREE ENERGY PREDICTED BY IDOCK:   -6.06 KCAL/MOL
REMARK 924 INTRA-LIGAND FREE ENERGY PREDICTED BY IDOCK:   -1.72 KCAL/MOL
REMARK 927      BINDING AFFINITY PREDICTED BY RF-SCORE:    0.00 PKD
ROOT
HETATM    1  C   UNL     1     -10.613  16.078  67.861  1.00  0.00    -0.301 C  
HETATM    2  O   UNL     1     -11.895  15.486  68.048  1.00  0.00    -0.277 OA 
ENDROOT
BRANCH   2   3
HETATM    3  C   UNL     1     -11.880  14.232  68.606  1.00  0.00    -0.344 A  
HETATM    4  C   UNL     1     -11.473  13.089  67.910  1.00  0.00    -0.352 A  
HETATM    5  C   UNL     1     -11.512  11.822  68.506  1.00  0.00    -0.353 A  
HETATM    6  C   UNL     1     -11.883  11.723  69.853  1.00  0.00    -0.423 A  
HETATM    7  H   UNL     1     -12.901  15.139  71.554  1.00  0.00     0.000 HD 
HETATM    8  O   UNL     1     -12.646  15.222  70.643  1.00  0.00    -0.363 OA 
HETATM    9  C   UNL     1     -12.251  12.863  70.574  1.00  0.00    -0.395 A  
HETATM   10  C   UNL     1     -12.256  14.109  69.947  1.00  0.00    -0.359 A  
BRANCH   5  11
HETATM   11  C   UNL     1     -11.143  10.609  67.760  1.00  0.00    -0.385 C  
HETATM   12  C   UNL     1     -10.653   9.502  68.343  1.00  0.00    -0.261 C  
BRANCH  12  13
HETATM   13  C   UNL     1     -10.276   8.313  67.527  1.00  0.00    -0.243 C  
HETATM   14  O   UNL     1     -11.133   7.605  66.996  1.00  0.00    -0.171 OA 
BRANCH  13  15
HETATM   15  C   UNL     1      -8.812   8.018  67.355  1.00  0.00    -0.134 C  
BRANCH  15  16
HETATM   16  C   UNL     1      -8.076   9.108  66.628  1.00  0.00    -0.111 C  
HETATM   17  O   UNL     1      -8.028   9.130  65.398  1.00  0.00    -0.100 OA 
BRANCH  16  18
HETATM   18  C   UNL     1      -7.456  10.186  67.454  1.00  0.00    -0.094 C  
HETATM   19  C   UNL     1      -7.728  11.472  67.179  1.00  0.00    -0.160 C  
BRANCH  19  20
HETATM   20  C   UNL     1      -7.230  12.632  67.937  1.00  0.00    -0.116 A  
HETATM   21  C   UNL     1      -7.498  13.958  67.553  1.00  0.00    -0.184 A  
HETATM   22  C   UNL     1      -6.926  15.030  68.246  1.00  0.00    -0.116 A  
HETATM   23  C   UNL     1      -6.378  12.399  69.029  1.00  0.00    -0.092 A  
HETATM   24  C   UNL     1      -6.084  14.762  69.329  1.00  0.00    -0.106 A  
HETATM   25  H   UNL     1      -4.922  15.606  70.752  1.00  0.00     0.000 HD 
HETATM   26  O   UNL     1      -5.494  15.788  70.016  1.00  0.00    -0.128 OA 
HETATM   27  C   UNL     1      -5.809  13.462  69.730  1.00  0.00    -0.119 A  
BRANCH  22  28
HETATM   28  O   UNL     1      -7.095  16.358  67.955  1.00  0.00    -0.130 OA 
HETATM   29  C   UNL     1      -7.051  16.726  66.582  1.00  0.00    -0.240 C  
ENDBRANCH  22  28
ENDBRANCH  19  20
ENDBRANCH  16  18
ENDBRANCH  15  16
ENDBRANCH  13  15
ENDBRANCH  12  13
ENDBRANCH   5  11
ENDBRANCH   2   3
TORSDOF 8
ENDMDL
MODEL      189
REMARK 921   NORMALIZED FREE ENERGY PREDICTED BY IDOCK:   -4.24 KCAL/MOL
REMARK 922        TOTAL FREE ENERGY PREDICTED BY IDOCK:   -7.76 KCAL/MOL
REMARK 923 INTER-LIGAND FREE ENERGY PREDICTED BY IDOCK:   -6.07 KCAL/MOL
REMARK 924 INTRA-LIGAND FREE ENERGY PREDICTED BY IDOCK:   -1.69 KCAL/MOL
REMARK 927      BINDING AFFINITY PREDICTED BY RF-SCORE:    0.00 PKD
ROOT
HETATM    1  C   UNL     1      -9.921  15.777  65.573  1.00  0.00    -0.306 C  
HETATM    2  O   UNL     1      -9.239  16.711  66.405  1.00  0.00    -0.251 OA 
ENDROOT
BRANCH   2   3
HETATM    3  C   UNL     1      -8.345  16.157  67.288  1.00  0.00    -0.180 A  
HETATM    4  C   UNL     1      -7.888  14.840  67.188  1.00  0.00    -0.180 A  
HETATM    5  C   UNL     1      -7.006  14.302  68.136  1.00  0.00    -0.130 A  
HETATM    6  C   UNL     1      -6.511  15.138  69.144  1.00  0.00    -0.116 A  
HETATM    7  H   UNL     1      -7.937  18.821  69.104  1.00  0.00     0.000 HD 
HETATM    8  O   UNL     1      -8.276  18.267  68.410  1.00  0.00    -0.296 OA 
HETATM    9  C   UNL     1      -6.926  16.471  69.230  1.00  0.00    -0.227 A  
HETATM   10  C   UNL     1      -7.846  16.972  68.308  1.00  0.00    -0.216 A  
BRANCH   5  11
HETATM   11  C   UNL     1      -6.569  12.900  68.071  1.00  0.00    -0.107 C  
HETATM   12  C   UNL     1      -6.654  12.049  69.108  1.00  0.00    -0.107 C  
BRANCH  12  13
HETATM   13  C   UNL     1      -6.171  10.644  68.985  1.00  0.00    -0.045 C  
HETATM   14  O   UNL     1      -6.069   9.915  69.972  1.00  0.00    -0.042 OA 
BRANCH  13  15
HETATM   15  C   UNL     1      -5.836  10.139  67.610  1.00  0.00    -0.045 C  
BRANCH  15  16
HETATM   16  C   UNL     1      -6.808   9.108  67.110  1.00  0.00    -0.080 C  
HETATM   17  O   UNL     1      -6.534   7.908  67.142  1.00  0.00    -0.053 OA 
BRANCH  16  18
HETATM   18  C   UNL     1      -8.135   9.593  66.626  1.00  0.00    -0.119 C  
HETATM   19  C   UNL     1      -8.206  10.729  65.915  1.00  0.00    -0.155 C  
BRANCH  19  20
HETATM   20  C   UNL     1      -9.434  11.298  65.334  1.00  0.00    -0.251 A  
HETATM   21  C   UNL     1     -10.325  12.093  66.076  1.00  0.00    -0.268 A  
HETATM   22  C   UNL     1     -11.528  12.532  65.513  1.00  0.00    -0.350 A  
HETATM   23  C   UNL     1      -9.770  10.950  64.015  1.00  0.00    -0.351 A  
HETATM   24  C   UNL     1     -11.829  12.169  64.198  1.00  0.00    -0.404 A  
HETATM   25  H   UNL     1     -13.211  12.321  62.730  1.00  0.00     0.000 HD 
HETATM   26  O   UNL     1     -13.006  12.568  63.624  1.00  0.00    -0.730 OA 
HETATM   27  C   UNL     1     -10.964  11.390  63.444  1.00  0.00    -0.342 A  
BRANCH  22  28
HETATM   28  O   UNL     1     -12.480  13.292  66.140  1.00  0.00    -0.379 OA 
HETATM   29  C   UNL     1     -12.138  13.827  67.413  1.00  0.00    -0.343 C  
ENDBRANCH  22  28
ENDBRANCH  19  20
ENDBRANCH  16  18
ENDBRANCH  15  16
ENDBRANCH  13  15
ENDBRANCH  12  13
ENDBRANCH   5  11
ENDBRANCH   2   3
TORSDOF 8
ENDMDL
MODEL      190
REMARK 921   NORMALIZED FREE ENERGY PREDICTED BY IDOCK:   -4.23 KCAL/MOL
REMARK 922        TOTAL FREE ENERGY PREDICTED BY IDOCK:   -7.75 KCAL/MOL
REMARK 923 INTER-LIGAND FREE ENERGY PREDICTED BY IDOCK:   -6.37 KCAL/MOL
REMARK 924 INTRA-LIGAND FREE ENERGY PREDICTED BY IDOCK:   -1.38 KCAL/MOL
REMARK 927      BINDING AFFINITY PREDICTED BY RF-SCORE:    0.00 PKD
ROOT
HETATM    1  C   UNL     1     -10.592   5.404  71.497  1.00  0.00    -0.216 C  
HETATM    2  O   UNL     1     -11.185   6.005  70.349  1.00  0.00    -0.337 OA 
ENDROOT
BRANCH   2   3
HETATM    3  C   UNL     1     -11.146   7.377  70.327  1.00  0.00    -0.258 A  
HETATM    4  C   UNL     1     -10.244   8.105  69.544  1.00  0.00    -0.213 A  
HETATM    5  C   UNL     1     -10.211   9.505  69.584  1.00  0.00    -0.234 A  
HETATM    6  C   UNL     1     -11.164  10.178  70.358  1.00  0.00    -0.402 A  
HETATM    7  H   UNL     1     -13.615   7.839  72.389  1.00  0.00     0.000 HD 
HETATM    8  O   UNL     1     -12.978   7.369  71.863  1.00  0.00    -0.314 OA 
HETATM    9  C   UNL     1     -12.101   9.464  71.113  1.00  0.00    -0.406 A  
HETATM   10  C   UNL     1     -12.082   8.069  71.101  1.00  0.00    -0.265 A  
BRANCH   5  11
HETATM   11  C   UNL     1      -9.226  10.273  68.810  1.00  0.00    -0.166 C  
HETATM   12  C   UNL     1      -7.897  10.126  68.948  1.00  0.00    -0.100 C  
BRANCH  12  13
HETATM   13  C   UNL     1      -6.949  10.953  68.148  1.00  0.00    -0.069 C  
HETATM   14  O   UNL     1      -5.731  10.802  68.245  1.00  0.00    -0.044 OA 
BRANCH  13  15
HETATM   15  C   UNL     1      -7.532  11.964  67.200  1.00  0.00    -0.146 C  
BRANCH  15  16
HETATM   16  C   UNL     1      -7.286  13.382  67.631  1.00  0.00    -0.168 C  
HETATM   17  O   UNL     1      -6.361  14.039  67.153  1.00  0.00    -0.192 OA 
BRANCH  16  18
HETATM   18  C   UNL     1      -8.238  13.975  68.616  1.00  0.00    -0.103 C  
HETATM   19  C   UNL     1      -9.560  13.852  68.418  1.00  0.00    -0.215 C  
BRANCH  19  20
HETATM   20  C   UNL     1     -10.610  14.339  69.328  1.00  0.00    -0.160 A  
HETATM   21  C   UNL     1     -11.644  13.513  69.802  1.00  0.00    -0.313 A  
HETATM   22  C   UNL     1     -12.676  14.040  70.586  1.00  0.00    -0.303 A  
HETATM   23  C   UNL     1     -10.627  15.705  69.655  1.00  0.00    -0.284 A  
HETATM   24  C   UNL     1     -12.659  15.403  70.894  1.00  0.00    -0.438 A  
HETATM   25  H   UNL     1     -13.653  16.879  71.855  1.00  0.00     0.000 HD 
HETATM   26  O   UNL     1     -13.664  15.953  71.645  1.00  0.00    -0.413 OA 
HETATM   27  C   UNL     1     -11.647  16.237  70.443  1.00  0.00    -0.193 A  
BRANCH  22  28
HETATM   28  O   UNL     1     -13.743  13.342  71.086  1.00  0.00     0.021 OA 
HETATM   29  C   UNL     1     -13.520  12.592  72.274  1.00  0.00    -0.438 C  
ENDBRANCH  22  28
ENDBRANCH  19  20
ENDBRANCH  16  18
ENDBRANCH  15  16
ENDBRANCH  13  15
ENDBRANCH  12  13
ENDBRANCH   5  11
ENDBRANCH   2   3
TORSDOF 8
ENDMDL
MODEL      191
REMARK 921   NORMALIZED FREE ENERGY PREDICTED BY IDOCK:   -4.22 KCAL/MOL
REMARK 922        TOTAL FREE ENERGY PREDICTED BY IDOCK:   -7.74 KCAL/MOL
REMARK 923 INTER-LIGAND FREE ENERGY PREDICTED BY IDOCK:   -7.55 KCAL/MOL
REMARK 924 INTRA-LIGAND FREE ENERGY PREDICTED BY IDOCK:   -0.19 KCAL/MOL
REMARK 927      BINDING AFFINITY PREDICTED BY RF-SCORE:    0.00 PKD
ROOT
HETATM    1  C   UNL     1      -8.911  12.825  66.934  1.00  0.00    -0.213 C  
HETATM    2  O   UNL     1      -8.849  14.215  66.624  1.00  0.00    -0.209 OA 
ENDROOT
BRANCH   2   3
HETATM    3  C   UNL     1      -9.543  15.032  67.481  1.00  0.00    -0.203 A  
HETATM    4  C   UNL     1     -10.521  14.562  68.363  1.00  0.00    -0.246 A  
HETATM    5  C   UNL     1     -11.236  15.438  69.191  1.00  0.00    -0.291 A  
HETATM    6  C   UNL     1     -10.892  16.796  69.190  1.00  0.00    -0.287 A  
HETATM    7  H   UNL     1      -8.041  17.789  66.643  1.00  0.00     0.000 HD 
HETATM    8  O   UNL     1      -8.259  16.864  66.638  1.00  0.00    -0.206 OA 
HETATM    9  C   UNL     1      -9.885  17.274  68.344  1.00  0.00    -0.309 A  
HETATM   10  C   UNL     1      -9.222  16.393  67.489  1.00  0.00    -0.198 A  
BRANCH   5  11
HETATM   11  C   UNL     1     -12.307  14.958  70.077  1.00  0.00    -0.358 C  
HETATM   12  C   UNL     1     -12.196  13.862  70.846  1.00  0.00    -0.436 C  
BRANCH  12  13
HETATM   13  C   UNL     1     -13.328  13.414  71.706  1.00  0.00    -0.394 C  
HETATM   14  O   UNL     1     -14.281  14.157  71.945  1.00  0.00    -0.461 OA 
BRANCH  13  15
HETATM   15  C   UNL     1     -13.279  12.015  72.254  1.00  0.00    -0.235 C  
BRANCH  15  16
HETATM   16  C   UNL     1     -12.906  10.992  71.219  1.00  0.00    -0.425 C  
HETATM   17  O   UNL     1     -12.832  11.292  70.028  1.00  0.00    -0.071 OA 
BRANCH  16  18
HETATM   18  C   UNL     1     -12.579   9.617  71.700  1.00  0.00    -0.493 C  
HETATM   19  C   UNL     1     -11.415   9.051  71.347  1.00  0.00    -0.400 C  
BRANCH  19  20
HETATM   20  C   UNL     1     -10.939   7.728  71.786  1.00  0.00    -0.280 A  
HETATM   21  C   UNL     1     -10.674   6.681  70.885  1.00  0.00    -0.278 A  
HETATM   22  C   UNL     1     -10.318   5.412  71.352  1.00  0.00    -0.228 A  
HETATM   23  C   UNL     1     -10.840   7.480  73.165  1.00  0.00    -0.448 A  
HETATM   24  C   UNL     1     -10.226   5.201  72.731  1.00  0.00    -0.179 A  
HETATM   25  H   UNL     1      -9.835   3.822  74.157  1.00  0.00     0.000 HD 
HETATM   26  O   UNL     1      -9.897   3.966  73.220  1.00  0.00    -0.115 OA 
HETATM   27  C   UNL     1     -10.478   6.219  73.639  1.00  0.00    -0.299 A  
BRANCH  22  28
HETATM   28  O   UNL     1     -10.056   4.314  70.576  1.00  0.00    -0.191 OA 
HETATM   29  C   UNL     1      -8.939   4.397  69.700  1.00  0.00    -0.099 C  
ENDBRANCH  22  28
ENDBRANCH  19  20
ENDBRANCH  16  18
ENDBRANCH  15  16
ENDBRANCH  13  15
ENDBRANCH  12  13
ENDBRANCH   5  11
ENDBRANCH   2   3
TORSDOF 8
ENDMDL
MODEL      192
REMARK 921   NORMALIZED FREE ENERGY PREDICTED BY IDOCK:   -4.20 KCAL/MOL
REMARK 922        TOTAL FREE ENERGY PREDICTED BY IDOCK:   -7.71 KCAL/MOL
REMARK 923 INTER-LIGAND FREE ENERGY PREDICTED BY IDOCK:   -6.48 KCAL/MOL
REMARK 924 INTRA-LIGAND FREE ENERGY PREDICTED BY IDOCK:   -1.23 KCAL/MOL
REMARK 927      BINDING AFFINITY PREDICTED BY RF-SCORE:    0.00 PKD
ROOT
HETATM    1  C   UNL     1      -9.305  18.022  68.622  1.00  0.00    -0.285 C  
HETATM    2  O   UNL     1     -10.561  17.524  68.168  1.00  0.00    -0.370 OA 
ENDROOT
BRANCH   2   3
HETATM    3  C   UNL     1     -10.701  16.160  68.228  1.00  0.00    -0.307 A  
HETATM    4  C   UNL     1     -10.175  15.294  67.265  1.00  0.00    -0.248 A  
HETATM    5  C   UNL     1     -10.377  13.909  67.343  1.00  0.00    -0.252 A  
HETATM    6  C   UNL     1     -11.044  13.389  68.459  1.00  0.00    -0.299 A  
HETATM    7  H   UNL     1     -12.340  16.091  71.033  1.00  0.00     0.000 HD 
HETATM    8  O   UNL     1     -11.884  16.457  70.285  1.00  0.00    -0.090 OA 
HETATM    9  C   UNL     1     -11.539  14.241  69.453  1.00  0.00    -0.354 A  
HETATM   10  C   UNL     1     -11.373  15.621  69.329  1.00  0.00    -0.345 A  
BRANCH   5  11
HETATM   11  C   UNL     1      -9.878  12.999  66.302  1.00  0.00    -0.278 C  
HETATM   12  C   UNL     1     -10.584  12.668  65.207  1.00  0.00    -0.317 C  
BRANCH  12  13
HETATM   13  C   UNL     1     -10.030  11.720  64.199  1.00  0.00    -0.272 C  
HETATM   14  O   UNL     1      -9.725  12.098  63.067  1.00  0.00    -0.347 OA 
BRANCH  13  15
HETATM   15  C   UNL     1      -9.833  10.290  64.618  1.00  0.00    -0.396 C  
BRANCH  15  16
HETATM   16  C   UNL     1      -8.487  10.039  65.236  1.00  0.00    -0.154 C  
HETATM   17  O   UNL     1      -7.453  10.399  64.673  1.00  0.00    -0.126 OA 
BRANCH  16  18
HETATM   18  C   UNL     1      -8.459   9.388  66.579  1.00  0.00    -0.137 C  
HETATM   19  C   UNL     1      -9.530   9.478  67.382  1.00  0.00    -0.164 C  
BRANCH  19  20
HETATM   20  C   UNL     1      -9.662   8.846  68.706  1.00  0.00    -0.170 A  
HETATM   21  C   UNL     1     -10.169   7.545  68.876  1.00  0.00    -0.214 A  
HETATM   22  C   UNL     1     -10.369   7.019  70.157  1.00  0.00    -0.197 A  
HETATM   23  C   UNL     1      -9.359   9.611  69.843  1.00  0.00    -0.256 A  
HETATM   24  C   UNL     1     -10.053   7.807  71.266  1.00  0.00    -0.179 A  
HETATM   25  H   UNL     1     -10.039   7.865  73.287  1.00  0.00     0.000 HD 
HETATM   26  O   UNL     1     -10.254   7.329  72.533  1.00  0.00    -0.184 OA 
HETATM   27  C   UNL     1      -9.547   9.091  71.124  1.00  0.00    -0.356 A  
BRANCH  22  28
HETATM   28  O   UNL     1     -10.872   5.779  70.448  1.00  0.00    -0.291 OA 
HETATM   29  C   UNL     1     -10.394   4.691  69.666  1.00  0.00     0.111 C  
ENDBRANCH  22  28
ENDBRANCH  19  20
ENDBRANCH  16  18
ENDBRANCH  15  16
ENDBRANCH  13  15
ENDBRANCH  12  13
ENDBRANCH   5  11
ENDBRANCH   2   3
TORSDOF 8
ENDMDL
MODEL      193
REMARK 921   NORMALIZED FREE ENERGY PREDICTED BY IDOCK:   -4.18 KCAL/MOL
REMARK 922        TOTAL FREE ENERGY PREDICTED BY IDOCK:   -7.67 KCAL/MOL
REMARK 923 INTER-LIGAND FREE ENERGY PREDICTED BY IDOCK:   -6.23 KCAL/MOL
REMARK 924 INTRA-LIGAND FREE ENERGY PREDICTED BY IDOCK:   -1.45 KCAL/MOL
REMARK 927      BINDING AFFINITY PREDICTED BY RF-SCORE:    0.00 PKD
ROOT
HETATM    1  C   UNL     1     -11.023   6.312  68.730  1.00  0.00    -0.352 C  
HETATM    2  O   UNL     1     -11.048   5.772  67.412  1.00  0.00    -0.175 OA 
ENDROOT
BRANCH   2   3
HETATM    3  C   UNL     1      -9.960   6.085  66.635  1.00  0.00    -0.166 A  
HETATM    4  C   UNL     1      -9.403   7.366  66.579  1.00  0.00    -0.222 A  
HETATM    5  C   UNL     1      -8.317   7.650  65.740  1.00  0.00    -0.144 A  
HETATM    6  C   UNL     1      -7.732   6.602  65.019  1.00  0.00    -0.103 A  
HETATM    7  H   UNL     1      -9.493   3.094  65.454  1.00  0.00     0.000 HD 
HETATM    8  O   UNL     1      -9.896   3.794  65.954  1.00  0.00    -0.164 OA 
HETATM    9  C   UNL     1      -8.252   5.306  65.099  1.00  0.00    -0.135 A  
HETATM   10  C   UNL     1      -9.367   5.055  65.899  1.00  0.00    -0.159 A  
BRANCH   5  11
HETATM   11  C   UNL     1      -7.765   9.009  65.630  1.00  0.00    -0.091 C  
HETATM   12  C   UNL     1      -6.889   9.525  66.510  1.00  0.00    -0.083 C  
BRANCH  12  13
HETATM   13  C   UNL     1      -6.384  10.919  66.355  1.00  0.00    -0.132 C  
HETATM   14  O   UNL     1      -5.585  11.213  65.465  1.00  0.00    -0.152 OA 
BRANCH  13  15
HETATM   15  C   UNL     1      -6.901  11.960  67.308  1.00  0.00    -0.142 C  
BRANCH  15  16
HETATM   16  C   UNL     1      -8.399  12.080  67.291  1.00  0.00    -0.176 C  
HETATM   17  O   UNL     1      -8.999  12.384  66.260  1.00  0.00    -0.158 OA 
BRANCH  16  18
HETATM   18  C   UNL     1      -9.127  11.763  68.555  1.00  0.00    -0.144 C  
HETATM   19  C   UNL     1     -10.114  10.854  68.542  1.00  0.00    -0.193 C  
BRANCH  19  20
HETATM   20  C   UNL     1     -10.881  10.406  69.717  1.00  0.00    -0.342 A  
HETATM   21  C   UNL     1     -10.448   9.358  70.548  1.00  0.00    -0.335 A  
HETATM   22  C   UNL     1     -11.253   8.900  71.596  1.00  0.00    -0.345 A  
HETATM   23  C   UNL     1     -12.136  10.990  69.956  1.00  0.00    -0.441 A  
HETATM   24  C   UNL     1     -12.495   9.505  71.806  1.00  0.00    -0.401 A  
HETATM   25  H   UNL     1     -14.158   9.480  72.956  1.00  0.00     0.000 HD 
HETATM   26  O   UNL     1     -13.314   9.069  72.813  1.00  0.00    -0.418 OA 
HETATM   27  C   UNL     1     -12.941  10.545  71.004  1.00  0.00    -0.475 A  
BRANCH  22  28
HETATM   28  O   UNL     1     -10.950   7.878  72.456  1.00  0.00    -0.292 OA 
HETATM   29  C   UNL     1      -9.681   7.931  73.095  1.00  0.00    -0.286 C  
ENDBRANCH  22  28
ENDBRANCH  19  20
ENDBRANCH  16  18
ENDBRANCH  15  16
ENDBRANCH  13  15
ENDBRANCH  12  13
ENDBRANCH   5  11
ENDBRANCH   2   3
TORSDOF 8
ENDMDL
MODEL      194
REMARK 921   NORMALIZED FREE ENERGY PREDICTED BY IDOCK:   -4.17 KCAL/MOL
REMARK 922        TOTAL FREE ENERGY PREDICTED BY IDOCK:   -7.67 KCAL/MOL
REMARK 923 INTER-LIGAND FREE ENERGY PREDICTED BY IDOCK:   -6.99 KCAL/MOL
REMARK 924 INTRA-LIGAND FREE ENERGY PREDICTED BY IDOCK:   -0.68 KCAL/MOL
REMARK 927      BINDING AFFINITY PREDICTED BY RF-SCORE:    0.00 PKD
ROOT
HETATM    1  C   UNL     1     -10.027   4.237  65.269  1.00  0.00    -0.219 C  
HETATM    2  O   UNL     1      -9.163   4.569  66.353  1.00  0.00    -0.124 OA 
ENDROOT
BRANCH   2   3
HETATM    3  C   UNL     1      -9.581   5.624  67.126  1.00  0.00    -0.131 A  
HETATM    4  C   UNL     1      -9.941   6.866  66.595  1.00  0.00    -0.211 A  
HETATM    5  C   UNL     1     -10.322   7.929  67.425  1.00  0.00    -0.349 A  
HETATM    6  C   UNL     1     -10.426   7.703  68.803  1.00  0.00    -0.208 A  
HETATM    7  H   UNL     1      -9.411   4.070  69.975  1.00  0.00     0.000 HD 
HETATM    8  O   UNL     1      -9.342   4.208  69.038  1.00  0.00    -0.138 OA 
HETATM    9  C   UNL     1     -10.110   6.452  69.344  1.00  0.00    -0.205 A  
HETATM   10  C   UNL     1      -9.682   5.422  68.506  1.00  0.00    -0.137 A  
BRANCH   5  11
HETATM   11  C   UNL     1     -10.644   9.255  66.877  1.00  0.00    -0.239 C  
HETATM   12  C   UNL     1     -10.012   9.793  65.820  1.00  0.00    -0.349 C  
BRANCH  12  13
HETATM   13  C   UNL     1     -10.371  11.153  65.327  1.00  0.00    -0.277 C  
HETATM   14  O   UNL     1     -10.107  11.506  64.177  1.00  0.00    -0.262 OA 
BRANCH  13  15
HETATM   15  C   UNL     1     -11.086  12.075  66.275  1.00  0.00    -0.363 C  
BRANCH  15  16
HETATM   16  C   UNL     1     -10.153  12.811  67.195  1.00  0.00    -0.234 C  
HETATM   17  O   UNL     1      -9.693  12.268  68.199  1.00  0.00    -0.202 OA 
BRANCH  16  18
HETATM   18  C   UNL     1      -9.767  14.201  66.812  1.00  0.00    -0.283 C  
HETATM   19  C   UNL     1     -10.205  15.236  67.544  1.00  0.00    -0.239 C  
BRANCH  19  20
HETATM   20  C   UNL     1      -9.864  16.650  67.315  1.00  0.00    -0.255 A  
HETATM   21  C   UNL     1      -8.747  17.046  66.558  1.00  0.00    -0.297 A  
HETATM   22  C   UNL     1      -8.404  18.398  66.446  1.00  0.00    -0.251 A  
HETATM   23  C   UNL     1     -10.633  17.634  67.958  1.00  0.00    -0.379 A  
HETATM   24  C   UNL     1      -9.192  19.350  67.098  1.00  0.00    -0.313 A  
HETATM   25  H   UNL     1      -9.409  21.326  67.465  1.00  0.00     0.000 HD 
HETATM   26  O   UNL     1      -8.873  20.679  67.023  1.00  0.00    -0.281 OA 
HETATM   27  C   UNL     1     -10.302  18.985  67.845  1.00  0.00    -0.485 A  
BRANCH  22  28
HETATM   28  O   UNL     1      -7.333  18.901  65.757  1.00  0.00    -0.403 OA 
HETATM   29  C   UNL     1      -6.057  18.782  66.375  1.00  0.00    -0.161 C  
ENDBRANCH  22  28
ENDBRANCH  19  20
ENDBRANCH  16  18
ENDBRANCH  15  16
ENDBRANCH  13  15
ENDBRANCH  12  13
ENDBRANCH   5  11
ENDBRANCH   2   3
TORSDOF 8
ENDMDL
MODEL      195
REMARK 921   NORMALIZED FREE ENERGY PREDICTED BY IDOCK:   -4.17 KCAL/MOL
REMARK 922        TOTAL FREE ENERGY PREDICTED BY IDOCK:   -7.67 KCAL/MOL
REMARK 923 INTER-LIGAND FREE ENERGY PREDICTED BY IDOCK:   -6.76 KCAL/MOL
REMARK 924 INTRA-LIGAND FREE ENERGY PREDICTED BY IDOCK:   -0.91 KCAL/MOL
REMARK 927      BINDING AFFINITY PREDICTED BY RF-SCORE:    0.00 PKD
ROOT
HETATM    1  C   UNL     1      -5.981   6.405  66.141  1.00  0.00    -0.025 C  
HETATM    2  O   UNL     1      -7.089   5.839  65.446  1.00  0.00    -0.065 OA 
ENDROOT
BRANCH   2   3
HETATM    3  C   UNL     1      -8.320   6.142  65.972  1.00  0.00    -0.136 A  
HETATM    4  C   UNL     1      -8.803   7.449  66.088  1.00  0.00    -0.185 A  
HETATM    5  C   UNL     1     -10.049   7.716  66.671  1.00  0.00    -0.278 A  
HETATM    6  C   UNL     1     -10.855   6.638  67.057  1.00  0.00    -0.467 A  
HETATM    7  H   UNL     1      -9.236   3.074  66.529  1.00  0.00     0.000 HD 
HETATM    8  O   UNL     1      -8.681   3.796  66.256  1.00  0.00    -0.111 OA 
HETATM    9  C   UNL     1     -10.403   5.322  66.908  1.00  0.00    -0.303 A  
HETATM   10  C   UNL     1      -9.137   5.081  66.374  1.00  0.00    -0.129 A  
BRANCH   5  11
HETATM   11  C   UNL     1     -10.536   9.092  66.850  1.00  0.00    -0.293 C  
HETATM   12  C   UNL     1     -10.391  10.055  65.924  1.00  0.00    -0.202 C  
BRANCH  12  13
HETATM   13  C   UNL     1     -10.887  11.438  66.177  1.00  0.00    -0.255 C  
HETATM   14  O   UNL     1     -12.092  11.681  66.248  1.00  0.00    -0.333 OA 
BRANCH  13  15
HETATM   15  C   UNL     1      -9.865  12.524  66.365  1.00  0.00    -0.260 C  
BRANCH  15  16
HETATM   16  C   UNL     1      -9.485  12.730  67.804  1.00  0.00    -0.205 C  
HETATM   17  O   UNL     1      -8.684  13.606  68.130  1.00  0.00    -0.165 OA 
BRANCH  16  18
HETATM   18  C   UNL     1     -10.158  11.869  68.821  1.00  0.00    -0.133 C  
HETATM   19  C   UNL     1      -9.508  10.810  69.328  1.00  0.00    -0.103 C  
BRANCH  19  20
HETATM   20  C   UNL     1     -10.027   9.907  70.370  1.00  0.00    -0.222 A  
HETATM   21  C   UNL     1     -11.368   9.931  70.793  1.00  0.00    -0.430 A  
HETATM   22  C   UNL     1     -11.795   9.125  71.853  1.00  0.00    -0.369 A  
HETATM   23  C   UNL     1      -9.121   9.059  71.028  1.00  0.00    -0.322 A  
HETATM   24  C   UNL     1     -10.868   8.292  72.483  1.00  0.00    -0.351 A  
HETATM   25  H   UNL     1     -10.620   6.937  73.964  1.00  0.00     0.000 HD 
HETATM   26  O   UNL     1     -11.251   7.504  73.535  1.00  0.00    -0.271 OA 
HETATM   27  C   UNL     1      -9.541   8.246  72.080  1.00  0.00    -0.338 A  
BRANCH  22  28
HETATM   28  O   UNL     1     -13.065   9.077  72.365  1.00  0.00    -0.412 OA 
HETATM   29  C   UNL     1     -14.029   8.341  71.623  1.00  0.00    -0.396 C  
ENDBRANCH  22  28
ENDBRANCH  19  20
ENDBRANCH  16  18
ENDBRANCH  15  16
ENDBRANCH  13  15
ENDBRANCH  12  13
ENDBRANCH   5  11
ENDBRANCH   2   3
TORSDOF 8
ENDMDL
MODEL      196
REMARK 921   NORMALIZED FREE ENERGY PREDICTED BY IDOCK:   -4.17 KCAL/MOL
REMARK 922        TOTAL FREE ENERGY PREDICTED BY IDOCK:   -7.66 KCAL/MOL
REMARK 923 INTER-LIGAND FREE ENERGY PREDICTED BY IDOCK:   -5.91 KCAL/MOL
REMARK 924 INTRA-LIGAND FREE ENERGY PREDICTED BY IDOCK:   -1.76 KCAL/MOL
REMARK 927      BINDING AFFINITY PREDICTED BY RF-SCORE:    0.00 PKD
ROOT
HETATM    1  C   UNL     1      -8.357  14.682  67.705  1.00  0.00    -0.177 C  
HETATM    2  O   UNL     1      -7.060  14.119  67.520  1.00  0.00    -0.177 OA 
ENDROOT
BRANCH   2   3
HETATM    3  C   UNL     1      -6.785  13.026  68.303  1.00  0.00    -0.096 A  
HETATM    4  C   UNL     1      -7.129  11.720  67.942  1.00  0.00    -0.087 A  
HETATM    5  C   UNL     1      -6.866  10.636  68.791  1.00  0.00    -0.062 A  
HETATM    6  C   UNL     1      -6.165  10.869  69.981  1.00  0.00    -0.133 A  
HETATM    7  H   UNL     1      -5.274  14.654  70.675  1.00  0.00     0.000 HD 
HETATM    8  O   UNL     1      -5.743  14.510  69.861  1.00  0.00    -0.101 OA 
HETATM    9  C   UNL     1      -5.777  12.166  70.335  1.00  0.00    -0.169 A  
HETATM   10  C   UNL     1      -6.095  13.237  69.501  1.00  0.00    -0.112 A  
BRANCH   5  11
HETATM   11  C   UNL     1      -7.279   9.269  68.444  1.00  0.00    -0.076 C  
HETATM   12  C   UNL     1      -7.651   8.354  69.355  1.00  0.00    -0.091 C  
BRANCH  12  13
HETATM   13  C   UNL     1      -8.037   6.975  68.939  1.00  0.00    -0.121 C  
HETATM   14  O   UNL     1      -8.050   6.045  69.746  1.00  0.00    -0.109 OA 
BRANCH  13  15
HETATM   15  C   UNL     1      -8.432   6.763  67.505  1.00  0.00    -0.121 C  
BRANCH  15  16
HETATM   16  C   UNL     1      -9.891   7.022  67.253  1.00  0.00    -0.166 C  
HETATM   17  O   UNL     1     -10.739   6.164  67.497  1.00  0.00    -0.244 OA 
BRANCH  16  18
HETATM   18  C   UNL     1     -10.271   8.375  66.749  1.00  0.00    -0.376 C  
HETATM   19  C   UNL     1     -10.740   9.294  67.607  1.00  0.00    -0.276 C  
BRANCH  19  20
HETATM   20  C   UNL     1     -11.104  10.679  67.261  1.00  0.00    -0.313 A  
HETATM   21  C   UNL     1     -10.880  11.224  65.984  1.00  0.00    -0.273 A  
HETATM   22  C   UNL     1     -11.150  12.572  65.727  1.00  0.00    -0.308 A  
HETATM   23  C   UNL     1     -11.605  11.510  68.276  1.00  0.00    -0.378 A  
HETATM   24  C   UNL     1     -11.650  13.369  66.760  1.00  0.00    -0.365 A  
HETATM   25  H   UNL     1     -12.249  15.238  67.247  1.00  0.00     0.000 HD 
HETATM   26  O   UNL     1     -11.908  14.696  66.545  1.00  0.00    -0.373 OA 
HETATM   27  C   UNL     1     -11.885  12.853  68.026  1.00  0.00    -0.390 A  
BRANCH  22  28
HETATM   28  O   UNL     1     -10.955  13.218  64.535  1.00  0.00    -0.343 OA 
HETATM   29  C   UNL     1     -11.538  12.627  63.381  1.00  0.00    -0.469 C  
ENDBRANCH  22  28
ENDBRANCH  19  20
ENDBRANCH  16  18
ENDBRANCH  15  16
ENDBRANCH  13  15
ENDBRANCH  12  13
ENDBRANCH   5  11
ENDBRANCH   2   3
TORSDOF 8
ENDMDL
MODEL      197
REMARK 921   NORMALIZED FREE ENERGY PREDICTED BY IDOCK:   -4.17 KCAL/MOL
REMARK 922        TOTAL FREE ENERGY PREDICTED BY IDOCK:   -7.66 KCAL/MOL
REMARK 923 INTER-LIGAND FREE ENERGY PREDICTED BY IDOCK:   -6.88 KCAL/MOL
REMARK 924 INTRA-LIGAND FREE ENERGY PREDICTED BY IDOCK:   -0.78 KCAL/MOL
REMARK 927      BINDING AFFINITY PREDICTED BY RF-SCORE:    0.00 PKD
ROOT
HETATM    1  C   UNL     1     -11.516   5.921  72.063  1.00  0.00    -0.252 C  
HETATM    2  O   UNL     1     -12.072   6.583  70.930  1.00  0.00    -0.355 OA 
ENDROOT
BRANCH   2   3
HETATM    3  C   UNL     1     -11.794   7.925  70.847  1.00  0.00    -0.229 A  
HETATM    4  C   UNL     1     -10.708   8.439  70.133  1.00  0.00    -0.238 A  
HETATM    5  C   UNL     1     -10.438   9.814  70.110  1.00  0.00    -0.338 A  
HETATM    6  C   UNL     1     -11.332  10.686  70.743  1.00  0.00    -0.195 A  
HETATM    7  H   UNL     1     -14.338   8.925  72.605  1.00  0.00     0.000 HD 
HETATM    8  O   UNL     1     -13.743   8.322  72.174  1.00  0.00    -0.328 OA 
HETATM    9  C   UNL     1     -12.448  10.188  71.425  1.00  0.00    -0.524 A  
HETATM   10  C   UNL     1     -12.669   8.812  71.481  1.00  0.00    -0.328 A  
BRANCH   5  11
HETATM   11  C   UNL     1      -9.263  10.355  69.411  1.00  0.00    -0.177 C  
HETATM   12  C   UNL     1      -7.999  10.013  69.714  1.00  0.00    -0.190 C  
BRANCH  12  13
HETATM   13  C   UNL     1      -6.849  10.616  68.982  1.00  0.00    -0.071 C  
HETATM   14  O   UNL     1      -5.724  10.117  69.036  1.00  0.00    -0.038 OA 
BRANCH  13  15
HETATM   15  C   UNL     1      -7.112  11.844  68.155  1.00  0.00    -0.081 C  
BRANCH  15  16
HETATM   16  C   UNL     1      -6.906  13.121  68.919  1.00  0.00    -0.103 C  
HETATM   17  O   UNL     1      -6.077  13.191  69.827  1.00  0.00    -0.117 OA 
BRANCH  16  18
HETATM   18  C   UNL     1      -7.704  14.310  68.497  1.00  0.00    -0.137 C  
HETATM   19  C   UNL     1      -8.136  14.403  67.230  1.00  0.00    -0.209 C  
BRANCH  19  20
HETATM   20  C   UNL     1      -8.972  15.488  66.689  1.00  0.00    -0.320 A  
HETATM   21  C   UNL     1      -9.962  15.266  65.715  1.00  0.00    -0.391 A  
HETATM   22  C   UNL     1     -10.666  16.339  65.158  1.00  0.00    -0.331 A  
HETATM   23  C   UNL     1      -8.701  16.804  67.095  1.00  0.00    -0.218 A  
HETATM   24  C   UNL     1     -10.372  17.635  65.587  1.00  0.00    -0.111 A  
HETATM   25  H   UNL     1     -10.831  19.589  65.341  1.00  0.00     0.000 HD 
HETATM   26  O   UNL     1     -11.031  18.707  65.049  1.00  0.00    -0.559 OA 
HETATM   27  C   UNL     1      -9.404  17.879  66.551  1.00  0.00    -0.290 A  
BRANCH  22  28
HETATM   28  O   UNL     1     -11.634  16.251  64.192  1.00  0.00    -0.838 OA 
HETATM   29  C   UNL     1     -12.599  15.217  64.342  1.00  0.00     0.092 C  
ENDBRANCH  22  28
ENDBRANCH  19  20
ENDBRANCH  16  18
ENDBRANCH  15  16
ENDBRANCH  13  15
ENDBRANCH  12  13
ENDBRANCH   5  11
ENDBRANCH   2   3
TORSDOF 8
ENDMDL
MODEL      198
REMARK 921   NORMALIZED FREE ENERGY PREDICTED BY IDOCK:   -4.15 KCAL/MOL
REMARK 922        TOTAL FREE ENERGY PREDICTED BY IDOCK:   -7.63 KCAL/MOL
REMARK 923 INTER-LIGAND FREE ENERGY PREDICTED BY IDOCK:   -6.96 KCAL/MOL
REMARK 924 INTRA-LIGAND FREE ENERGY PREDICTED BY IDOCK:   -0.68 KCAL/MOL
REMARK 927      BINDING AFFINITY PREDICTED BY RF-SCORE:    0.00 PKD
ROOT
HETATM    1  C   UNL     1      -9.769   4.176  66.930  1.00  0.00    -0.205 C  
HETATM    2  O   UNL     1      -8.765   4.876  67.660  1.00  0.00    -0.104 OA 
ENDROOT
BRANCH   2   3
HETATM    3  C   UNL     1      -9.191   6.024  68.280  1.00  0.00    -0.117 A  
HETATM    4  C   UNL     1      -9.832   7.067  67.604  1.00  0.00    -0.180 A  
HETATM    5  C   UNL     1     -10.214   8.239  68.269  1.00  0.00    -0.246 A  
HETATM    6  C   UNL     1     -10.026   8.318  69.655  1.00  0.00    -0.193 A  
HETATM    7  H   UNL     1      -8.261   5.178  71.277  1.00  0.00     0.000 HD 
HETATM    8  O   UNL     1      -8.388   5.108  70.338  1.00  0.00    -0.101 OA 
HETATM    9  C   UNL     1      -9.425   7.264  70.352  1.00  0.00    -0.165 A  
HETATM   10  C   UNL     1      -9.004   6.127  69.662  1.00  0.00    -0.134 A  
BRANCH   5  11
HETATM   11  C   UNL     1     -10.833   9.364  67.553  1.00  0.00    -0.208 C  
HETATM   12  C   UNL     1     -10.163  10.156  66.699  1.00  0.00    -0.287 C  
BRANCH  12  13
HETATM   13  C   UNL     1     -10.844  11.296  66.020  1.00  0.00    -0.213 C  
HETATM   14  O   UNL     1     -10.674  11.519  64.821  1.00  0.00    -0.290 OA 
BRANCH  13  15
HETATM   15  C   UNL     1     -11.765  12.151  66.845  1.00  0.00    -0.374 C  
BRANCH  15  16
HETATM   16  C   UNL     1     -12.218  13.390  66.125  1.00  0.00    -0.415 C  
HETATM   17  O   UNL     1     -13.113  13.342  65.281  1.00  0.00    -0.687 OA 
BRANCH  16  18
HETATM   18  C   UNL     1     -11.577  14.681  66.512  1.00  0.00    -0.350 C  
HETATM   19  C   UNL     1     -10.368  14.996  66.022  1.00  0.00    -0.326 C  
BRANCH  19  20
HETATM   20  C   UNL     1      -9.643  16.252  66.276  1.00  0.00    -0.336 A  
HETATM   21  C   UNL     1     -10.287  17.501  66.325  1.00  0.00    -0.335 A  
HETATM   22  C   UNL     1      -9.547  18.679  66.472  1.00  0.00    -0.337 A  
HETATM   23  C   UNL     1      -8.243  16.204  66.379  1.00  0.00    -0.336 A  
HETATM   24  C   UNL     1      -8.156  18.594  66.574  1.00  0.00    -0.284 A  
HETATM   25  H   UNL     1      -6.457  19.673  66.770  1.00  0.00     0.000 HD 
HETATM   26  O   UNL     1      -7.403  19.730  66.701  1.00  0.00    -0.232 OA 
HETATM   27  C   UNL     1      -7.499  17.373  66.534  1.00  0.00    -0.315 A  
BRANCH  22  28
HETATM   28  O   UNL     1     -10.058  19.950  66.512  1.00  0.00    -0.417 OA 
HETATM   29  C   UNL     1     -10.951  20.317  65.468  1.00  0.00     0.234 C  
ENDBRANCH  22  28
ENDBRANCH  19  20
ENDBRANCH  16  18
ENDBRANCH  15  16
ENDBRANCH  13  15
ENDBRANCH  12  13
ENDBRANCH   5  11
ENDBRANCH   2   3
TORSDOF 8
ENDMDL
MODEL      199
REMARK 921   NORMALIZED FREE ENERGY PREDICTED BY IDOCK:   -4.12 KCAL/MOL
REMARK 922        TOTAL FREE ENERGY PREDICTED BY IDOCK:   -7.58 KCAL/MOL
REMARK 923 INTER-LIGAND FREE ENERGY PREDICTED BY IDOCK:   -6.13 KCAL/MOL
REMARK 924 INTRA-LIGAND FREE ENERGY PREDICTED BY IDOCK:   -1.46 KCAL/MOL
REMARK 927      BINDING AFFINITY PREDICTED BY RF-SCORE:    0.00 PKD
ROOT
HETATM    1  C   UNL     1     -10.490   9.696  70.837  1.00  0.00    -0.289 C  
HETATM    2  O   UNL     1     -11.375   8.676  70.382  1.00  0.00    -0.257 OA 
ENDROOT
BRANCH   2   3
HETATM    3  C   UNL     1     -10.785   7.688  69.631  1.00  0.00    -0.228 A  
HETATM    4  C   UNL     1     -10.007   7.948  68.499  1.00  0.00    -0.200 A  
HETATM    5  C   UNL     1      -9.459   6.907  67.738  1.00  0.00    -0.128 A  
HETATM    6  C   UNL     1      -9.625   5.590  68.183  1.00  0.00    -0.144 A  
HETATM    7  H   UNL     1     -11.807   5.198  71.452  1.00  0.00     0.000 HD 
HETATM    8  O   UNL     1     -11.697   6.097  71.166  1.00  0.00    -0.282 OA 
HETATM    9  C   UNL     1     -10.364   5.317  69.339  1.00  0.00    -0.313 A  
HETATM   10  C   UNL     1     -10.947   6.365  70.052  1.00  0.00    -0.337 A  
BRANCH   5  11
HETATM   11  C   UNL     1      -8.691   7.172  66.513  1.00  0.00    -0.139 C  
HETATM   12  C   UNL     1      -8.650   6.328  65.468  1.00  0.00    -0.124 C  
BRANCH  12  13
HETATM   13  C   UNL     1      -7.833   6.645  64.262  1.00  0.00    -0.115 C  
HETATM   14  O   UNL     1      -7.585   5.786  63.415  1.00  0.00    -0.066 OA 
BRANCH  13  15
HETATM   15  C   UNL     1      -7.340   8.056  64.103  1.00  0.00    -0.096 C  
BRANCH  15  16
HETATM   16  C   UNL     1      -8.337   8.954  63.427  1.00  0.00    -0.176 C  
HETATM   17  O   UNL     1      -8.829   8.651  62.339  1.00  0.00    -0.169 OA 
BRANCH  16  18
HETATM   18  C   UNL     1      -8.746  10.194  64.150  1.00  0.00    -0.216 C  
HETATM   19  C   UNL     1      -9.352  10.097  65.344  1.00  0.00    -0.269 C  
BRANCH  19  20
HETATM   20  C   UNL     1      -9.762  11.230  66.190  1.00  0.00    -0.251 A  
HETATM   21  C   UNL     1     -10.907  12.001  65.919  1.00  0.00    -0.329 A  
HETATM   22  C   UNL     1     -11.206  13.128  66.691  1.00  0.00    -0.304 A  
HETATM   23  C   UNL     1      -8.922  11.609  67.249  1.00  0.00    -0.169 A  
HETATM   24  C   UNL     1     -10.349  13.475  67.740  1.00  0.00    -0.241 A  
HETATM   25  H   UNL     1     -10.022  14.818  69.215  1.00  0.00     0.000 HD 
HETATM   26  O   UNL     1     -10.604  14.582  68.502  1.00  0.00    -0.238 OA 
HETATM   27  C   UNL     1      -9.217  12.727  68.029  1.00  0.00    -0.208 A  
BRANCH  22  28
HETATM   28  O   UNL     1     -12.276  13.965  66.513  1.00  0.00    -0.441 OA 
HETATM   29  C   UNL     1     -12.892  13.955  65.231  1.00  0.00    -0.398 C  
ENDBRANCH  22  28
ENDBRANCH  19  20
ENDBRANCH  16  18
ENDBRANCH  15  16
ENDBRANCH  13  15
ENDBRANCH  12  13
ENDBRANCH   5  11
ENDBRANCH   2   3
TORSDOF 8
ENDMDL
MODEL      200
REMARK 921   NORMALIZED FREE ENERGY PREDICTED BY IDOCK:   -4.09 KCAL/MOL
REMARK 922        TOTAL FREE ENERGY PREDICTED BY IDOCK:   -7.55 KCAL/MOL
REMARK 923 INTER-LIGAND FREE ENERGY PREDICTED BY IDOCK:   -6.44 KCAL/MOL
REMARK 924 INTRA-LIGAND FREE ENERGY PREDICTED BY IDOCK:   -1.11 KCAL/MOL
REMARK 927      BINDING AFFINITY PREDICTED BY RF-SCORE:    0.00 PKD
ROOT
HETATM    1  C   UNL     1      -6.352  10.514  68.019  1.00  0.00    -0.058 C  
HETATM    2  O   UNL     1      -7.614  10.703  67.385  1.00  0.00    -0.093 OA 
ENDROOT
BRANCH   2   3
HETATM    3  C   UNL     1      -8.667  10.059  67.985  1.00  0.00    -0.125 A  
HETATM    4  C   UNL     1      -9.511  10.673  68.915  1.00  0.00    -0.199 A  
HETATM    5  C   UNL     1     -10.550   9.964  69.535  1.00  0.00    -0.264 A  
HETATM    6  C   UNL     1     -10.792   8.643  69.138  1.00  0.00    -0.060 A  
HETATM    7  H   UNL     1      -8.281   7.227  66.438  1.00  0.00     0.000 HD 
HETATM    8  O   UNL     1      -8.109   8.126  66.693  1.00  0.00    -0.100 OA 
HETATM    9  C   UNL     1      -9.983   8.029  68.176  1.00  0.00    -0.217 A  
HETATM   10  C   UNL     1      -8.921   8.736  67.611  1.00  0.00    -0.135 A  
BRANCH   5  11
HETATM   11  C   UNL     1     -11.402  10.587  70.558  1.00  0.00    -0.400 C  
HETATM   12  C   UNL     1     -12.088  11.725  70.357  1.00  0.00    -0.440 C  
BRANCH  12  13
HETATM   13  C   UNL     1     -12.918  12.318  71.445  1.00  0.00    -0.256 C  
HETATM   14  O   UNL     1     -13.842  11.687  71.959  1.00  0.00    -0.042 OA 
BRANCH  13  15
HETATM   15  C   UNL     1     -12.574  13.706  71.909  1.00  0.00    -0.252 C  
BRANCH  15  16
HETATM   16  C   UNL     1     -13.252  14.779  71.103  1.00  0.00    -0.393 C  
HETATM   17  O   UNL     1     -14.354  15.218  71.432  1.00  0.00    -0.510 OA 
BRANCH  16  18
HETATM   18  C   UNL     1     -12.512  15.324  69.927  1.00  0.00    -0.275 C  
HETATM   19  C   UNL     1     -11.185  15.510  70.006  1.00  0.00    -0.325 C  
BRANCH  19  20
HETATM   20  C   UNL     1     -10.322  15.990  68.913  1.00  0.00    -0.235 A  
HETATM   21  C   UNL     1      -8.980  15.593  68.780  1.00  0.00    -0.205 A  
HETATM   22  C   UNL     1      -8.168  16.148  67.784  1.00  0.00    -0.152 A  
HETATM   23  C   UNL     1     -10.838  16.952  68.030  1.00  0.00    -0.338 A  
HETATM   24  C   UNL     1      -8.715  17.102  66.922  1.00  0.00    -0.232 A  
HETATM   25  H   UNL     1      -8.315  18.325  65.362  1.00  0.00     0.000 HD 
HETATM   26  O   UNL     1      -7.943  17.677  65.949  1.00  0.00    -0.531 OA 
HETATM   27  C   UNL     1     -10.039  17.505  67.030  1.00  0.00    -0.323 A  
BRANCH  22  28
HETATM   28  O   UNL     1      -6.847  15.859  67.569  1.00  0.00    -0.150 OA 
HETATM   29  C   UNL     1      -6.463  14.493  67.675  1.00  0.00    -0.132 C  
ENDBRANCH  22  28
ENDBRANCH  19  20
ENDBRANCH  16  18
ENDBRANCH  15  16
ENDBRANCH  13  15
ENDBRANCH  12  13
ENDBRANCH   5  11
ENDBRANCH   2   3
TORSDOF 8
ENDMDL
MODEL      201
REMARK 921   NORMALIZED FREE ENERGY PREDICTED BY IDOCK:   -4.09 KCAL/MOL
REMARK 922        TOTAL FREE ENERGY PREDICTED BY IDOCK:   -7.55 KCAL/MOL
REMARK 923 INTER-LIGAND FREE ENERGY PREDICTED BY IDOCK:   -6.51 KCAL/MOL
REMARK 924 INTRA-LIGAND FREE ENERGY PREDICTED BY IDOCK:   -1.04 KCAL/MOL
REMARK 927      BINDING AFFINITY PREDICTED BY RF-SCORE:    0.00 PKD
ROOT
HETATM    1  C   UNL     1     -10.965  12.558  65.198  1.00  0.00    -0.297 C  
HETATM    2  O   UNL     1     -11.323  13.935  65.125  1.00  0.00    -0.302 OA 
ENDROOT
BRANCH   2   3
HETATM    3  C   UNL     1     -11.210  14.628  66.304  1.00  0.00    -0.340 A  
HETATM    4  C   UNL     1     -11.455  14.054  67.556  1.00  0.00    -0.369 A  
HETATM    5  C   UNL     1     -11.368  14.810  68.733  1.00  0.00    -0.301 A  
HETATM    6  C   UNL     1     -10.940  16.141  68.647  1.00  0.00    -0.336 A  
HETATM    7  H   UNL     1     -10.258  17.439  64.979  1.00  0.00     0.000 HD 
HETATM    8  O   UNL     1     -10.541  16.533  65.023  1.00  0.00    -0.670 OA 
HETATM    9  C   UNL     1     -10.650  16.716  67.405  1.00  0.00    -0.295 A  
HETATM   10  C   UNL     1     -10.794  15.962  66.241  1.00  0.00    -0.200 A  
BRANCH   5  11
HETATM   11  C   UNL     1     -11.682  14.228  70.046  1.00  0.00    -0.364 C  
HETATM   12  C   UNL     1     -12.781  13.492  70.285  1.00  0.00    -0.118 C  
BRANCH  12  13
HETATM   13  C   UNL     1     -13.054  12.949  71.646  1.00  0.00    -0.335 C  
HETATM   14  O   UNL     1     -13.633  13.624  72.499  1.00  0.00    -0.537 OA 
BRANCH  13  15
HETATM   15  C   UNL     1     -12.619  11.540  71.937  1.00  0.00    -0.104 C  
BRANCH  15  16
HETATM   16  C   UNL     1     -12.910  10.591  70.808  1.00  0.00    -0.367 C  
HETATM   17  O   UNL     1     -14.004  10.035  70.714  1.00  0.00     0.076 OA 
BRANCH  16  18
HETATM   18  C   UNL     1     -11.843  10.396  69.783  1.00  0.00    -0.278 C  
HETATM   19  C   UNL     1     -10.950   9.406  69.936  1.00  0.00    -0.251 C  
BRANCH  19  20
HETATM   20  C   UNL     1      -9.879   9.065  68.984  1.00  0.00    -0.178 A  
HETATM   21  C   UNL     1      -8.583   9.604  69.078  1.00  0.00    -0.133 A  
HETATM   22  C   UNL     1      -7.625   9.330  68.097  1.00  0.00    -0.084 A  
HETATM   23  C   UNL     1     -10.197   8.246  67.888  1.00  0.00    -0.276 A  
HETATM   24  C   UNL     1      -7.975   8.509  67.021  1.00  0.00    -0.100 A  
HETATM   25  H   UNL     1      -7.303   7.678  65.305  1.00  0.00     0.000 HD 
HETATM   26  O   UNL     1      -7.065   8.237  66.036  1.00  0.00    -0.067 OA 
HETATM   27  C   UNL     1      -9.245   7.962  66.910  1.00  0.00    -0.191 A  
BRANCH  22  28
HETATM   28  O   UNL     1      -6.342   9.810  68.069  1.00  0.00    -0.055 OA 
HETATM   29  C   UNL     1      -6.127  11.100  68.628  1.00  0.00    -0.043 C  
ENDBRANCH  22  28
ENDBRANCH  19  20
ENDBRANCH  16  18
ENDBRANCH  15  16
ENDBRANCH  13  15
ENDBRANCH  12  13
ENDBRANCH   5  11
ENDBRANCH   2   3
TORSDOF 8
ENDMDL
MODEL      202
REMARK 921   NORMALIZED FREE ENERGY PREDICTED BY IDOCK:   -4.05 KCAL/MOL
REMARK 922        TOTAL FREE ENERGY PREDICTED BY IDOCK:   -7.48 KCAL/MOL
REMARK 923 INTER-LIGAND FREE ENERGY PREDICTED BY IDOCK:   -7.33 KCAL/MOL
REMARK 924 INTRA-LIGAND FREE ENERGY PREDICTED BY IDOCK:   -0.16 KCAL/MOL
REMARK 927      BINDING AFFINITY PREDICTED BY RF-SCORE:    0.00 PKD
ROOT
HETATM    1  C   UNL     1      -5.649   6.641  73.644  1.00  0.00    -0.046 C  
HETATM    2  O   UNL     1      -6.565   5.876  74.423  1.00  0.00    -0.074 OA 
ENDROOT
BRANCH   2   3
HETATM    3  C   UNL     1      -7.825   5.762  73.891  1.00  0.00    -0.099 A  
HETATM    4  C   UNL     1      -8.693   6.847  73.738  1.00  0.00    -0.172 A  
HETATM    5  C   UNL     1      -9.987   6.679  73.229  1.00  0.00    -0.211 A  
HETATM    6  C   UNL     1     -10.375   5.408  72.785  1.00  0.00    -0.235 A  
HETATM    7  H   UNL     1      -7.670   2.573  73.285  1.00  0.00     0.000 HD 
HETATM    8  O   UNL     1      -7.392   3.431  73.585  1.00  0.00    -0.053 OA 
HETATM    9  C   UNL     1      -9.501   4.320  72.892  1.00  0.00    -0.151 A  
HETATM   10  C   UNL     1      -8.236   4.500  73.451  1.00  0.00    -0.099 A  
BRANCH   5  11
HETATM   11  C   UNL     1     -10.925   7.806  73.122  1.00  0.00    -0.372 C  
HETATM   12  C   UNL     1     -12.141   7.706  72.559  1.00  0.00    -0.204 C  
BRANCH  12  13
HETATM   13  C   UNL     1     -13.037   8.894  72.461  1.00  0.00    -0.364 C  
HETATM   14  O   UNL     1     -14.231   8.819  72.754  1.00  0.00    -0.520 OA 
BRANCH  13  15
HETATM   15  C   UNL     1     -12.428  10.194  72.014  1.00  0.00    -0.264 C  
BRANCH  15  16
HETATM   16  C   UNL     1     -11.887  10.137  70.613  1.00  0.00    -0.342 C  
HETATM   17  O   UNL     1     -11.395   9.102  70.165  1.00  0.00    -0.231 OA 
BRANCH  16  18
HETATM   18  C   UNL     1     -12.019  11.366  69.776  1.00  0.00    -0.422 C  
HETATM   19  C   UNL     1     -11.726  11.312  68.468  1.00  0.00    -0.378 C  
BRANCH  19  20
HETATM   20  C   UNL     1     -11.859  12.426  67.515  1.00  0.00    -0.354 A  
HETATM   21  C   UNL     1     -12.066  12.225  66.138  1.00  0.00    -0.189 A  
HETATM   22  C   UNL     1     -12.089  13.309  65.255  1.00  0.00    -0.418 A  
HETATM   23  C   UNL     1     -11.678  13.735  67.991  1.00  0.00    -0.390 A  
HETATM   24  C   UNL     1     -11.907  14.598  65.763  1.00  0.00    -0.274 A  
HETATM   25  H   UNL     1     -11.784  16.554  65.268  1.00  0.00     0.000 HD 
HETATM   26  O   UNL     1     -11.907  15.678  64.922  1.00  0.00    -0.117 OA 
HETATM   27  C   UNL     1     -11.708  14.822  67.118  1.00  0.00    -0.351 A  
BRANCH  22  28
HETATM   28  O   UNL     1     -12.261  13.237  63.898  1.00  0.00    -0.527 OA 
HETATM   29  C   UNL     1     -12.616  11.969  63.361  1.00  0.00    -0.469 C  
ENDBRANCH  22  28
ENDBRANCH  19  20
ENDBRANCH  16  18
ENDBRANCH  15  16
ENDBRANCH  13  15
ENDBRANCH  12  13
ENDBRANCH   5  11
ENDBRANCH   2   3
TORSDOF 8
ENDMDL
MODEL      203
REMARK 921   NORMALIZED FREE ENERGY PREDICTED BY IDOCK:   -4.04 KCAL/MOL
REMARK 922        TOTAL FREE ENERGY PREDICTED BY IDOCK:   -7.48 KCAL/MOL
REMARK 923 INTER-LIGAND FREE ENERGY PREDICTED BY IDOCK:   -6.48 KCAL/MOL
REMARK 924 INTRA-LIGAND FREE ENERGY PREDICTED BY IDOCK:   -1.00 KCAL/MOL
REMARK 927      BINDING AFFINITY PREDICTED BY RF-SCORE:    0.00 PKD
ROOT
HETATM    1  C   UNL     1     -11.006   6.392  68.560  1.00  0.00    -0.319 C  
HETATM    2  O   UNL     1     -10.491   5.515  67.561  1.00  0.00    -0.214 OA 
ENDROOT
BRANCH   2   3
HETATM    3  C   UNL     1      -9.256   5.856  67.069  1.00  0.00    -0.119 A  
HETATM    4  C   UNL     1      -8.843   7.180  66.887  1.00  0.00    -0.132 A  
HETATM    5  C   UNL     1      -7.588   7.483  66.343  1.00  0.00    -0.088 A  
HETATM    6  C   UNL     1      -6.705   6.432  66.065  1.00  0.00    -0.049 A  
HETATM    7  H   UNL     1      -8.142   2.819  66.760  1.00  0.00     0.000 HD 
HETATM    8  O   UNL     1      -8.749   3.522  66.960  1.00  0.00    -0.106 OA 
HETATM    9  C   UNL     1      -7.088   5.104  66.282  1.00  0.00    -0.072 A  
HETATM   10  C   UNL     1      -8.362   4.822  66.775  1.00  0.00    -0.106 A  
BRANCH   5  11
HETATM   11  C   UNL     1      -7.173   8.871  66.092  1.00  0.00    -0.090 C  
HETATM   12  C   UNL     1      -6.191   9.484  66.775  1.00  0.00    -0.065 C  
BRANCH  12  13
HETATM   13  C   UNL     1      -5.833  10.903  66.488  1.00  0.00    -0.106 C  
HETATM   14  O   UNL     1      -5.368  11.236  65.398  1.00  0.00    -0.236 OA 
BRANCH  13  15
HETATM   15  C   UNL     1      -6.079  11.918  67.569  1.00  0.00    -0.100 C  
BRANCH  15  16
HETATM   16  C   UNL     1      -7.432  11.779  68.208  1.00  0.00    -0.103 C  
HETATM   17  O   UNL     1      -7.558  11.284  69.327  1.00  0.00    -0.107 OA 
BRANCH  16  18
HETATM   18  C   UNL     1      -8.605  12.315  67.454  1.00  0.00    -0.178 C  
HETATM   19  C   UNL     1      -8.597  13.589  67.033  1.00  0.00    -0.169 C  
BRANCH  19  20
HETATM   20  C   UNL     1      -9.656  14.233  66.239  1.00  0.00    -0.310 A  
HETATM   21  C   UNL     1     -10.660  13.500  65.580  1.00  0.00    -0.284 A  
HETATM   22  C   UNL     1     -11.589  14.145  64.757  1.00  0.00    -0.396 A  
HETATM   23  C   UNL     1      -9.601  15.625  66.058  1.00  0.00    -0.386 A  
HETATM   24  C   UNL     1     -11.506  15.531  64.602  1.00  0.00    -0.324 A  
HETATM   25  H   UNL     1     -12.334  17.132  63.685  1.00  0.00     0.000 HD 
HETATM   26  O   UNL     1     -12.390  16.189  63.790  1.00  0.00    -0.864 OA 
HETATM   27  C   UNL     1     -10.529  16.276  65.246  1.00  0.00    -0.324 A  
BRANCH  22  28
HETATM   28  O   UNL     1     -12.595  13.539  64.051  1.00  0.00    -0.661 OA 
HETATM   29  C   UNL     1     -12.332  12.235  63.550  1.00  0.00    -0.565 C  
ENDBRANCH  22  28
ENDBRANCH  19  20
ENDBRANCH  16  18
ENDBRANCH  15  16
ENDBRANCH  13  15
ENDBRANCH  12  13
ENDBRANCH   5  11
ENDBRANCH   2   3
TORSDOF 8
ENDMDL
MODEL      204
REMARK 921   NORMALIZED FREE ENERGY PREDICTED BY IDOCK:   -4.04 KCAL/MOL
REMARK 922        TOTAL FREE ENERGY PREDICTED BY IDOCK:   -7.47 KCAL/MOL
REMARK 923 INTER-LIGAND FREE ENERGY PREDICTED BY IDOCK:   -6.96 KCAL/MOL
REMARK 924 INTRA-LIGAND FREE ENERGY PREDICTED BY IDOCK:   -0.51 KCAL/MOL
REMARK 927      BINDING AFFINITY PREDICTED BY RF-SCORE:    0.00 PKD
ROOT
HETATM    1  C   UNL     1      -7.202  16.549  69.129  1.00  0.00    -0.226 C  
HETATM    2  O   UNL     1      -7.758  17.691  68.483  1.00  0.00    -0.262 OA 
ENDROOT
BRANCH   2   3
HETATM    3  C   UNL     1      -8.714  17.415  67.538  1.00  0.00    -0.219 A  
HETATM    4  C   UNL     1      -8.995  16.122  67.087  1.00  0.00    -0.218 A  
HETATM    5  C   UNL     1      -9.951  15.889  66.090  1.00  0.00    -0.337 A  
HETATM    6  C   UNL     1     -10.698  16.973  65.610  1.00  0.00    -0.150 A  
HETATM    7  H   UNL     1      -9.717  20.480  67.138  1.00  0.00     0.000 HD 
HETATM    8  O   UNL     1      -9.208  19.754  67.478  1.00  0.00    -0.312 OA 
HETATM    9  C   UNL     1     -10.458  18.267  66.083  1.00  0.00    -0.403 A  
HETATM   10  C   UNL     1      -9.464  18.484  67.037  1.00  0.00    -0.288 A  
BRANCH   5  11
HETATM   11  C   UNL     1     -10.208  14.539  65.569  1.00  0.00    -0.394 C  
HETATM   12  C   UNL     1     -11.048  13.667  66.153  1.00  0.00    -0.299 C  
BRANCH  12  13
HETATM   13  C   UNL     1     -11.247  12.302  65.587  1.00  0.00    -0.333 C  
HETATM   14  O   UNL     1     -11.946  12.120  64.590  1.00  0.00    -0.366 OA 
BRANCH  13  15
HETATM   15  C   UNL     1     -10.546  11.157  66.262  1.00  0.00    -0.309 C  
BRANCH  15  16
HETATM   16  C   UNL     1     -11.241  10.699  67.514  1.00  0.00    -0.253 C  
HETATM   17  O   UNL     1     -12.057  11.420  68.086  1.00  0.00    -0.623 OA 
BRANCH  16  18
HETATM   18  C   UNL     1     -10.941   9.320  68.000  1.00  0.00    -0.076 C  
HETATM   19  C   UNL     1     -10.814   8.318  67.116  1.00  0.00    -0.095 C  
BRANCH  19  20
HETATM   20  C   UNL     1     -10.471   6.925  67.446  1.00  0.00    -0.339 A  
HETATM   21  C   UNL     1     -10.455   6.442  68.767  1.00  0.00    -0.260 A  
HETATM   22  C   UNL     1     -10.029   5.139  69.045  1.00  0.00    -0.195 A  
HETATM   23  C   UNL     1     -10.052   6.077  66.408  1.00  0.00    -0.142 A  
HETATM   24  C   UNL     1      -9.622   4.322  67.987  1.00  0.00    -0.147 A  
HETATM   25  H   UNL     1      -8.906   2.493  67.509  1.00  0.00     0.000 HD 
HETATM   26  O   UNL     1      -9.183   3.048  68.228  1.00  0.00    -0.154 OA 
HETATM   27  C   UNL     1      -9.634   4.773  66.676  1.00  0.00    -0.182 A  
BRANCH  22  28
HETATM   28  O   UNL     1      -9.952   4.566  70.287  1.00  0.00    -0.226 OA 
HETATM   29  C   UNL     1      -9.572   5.414  71.363  1.00  0.00    -0.156 C  
ENDBRANCH  22  28
ENDBRANCH  19  20
ENDBRANCH  16  18
ENDBRANCH  15  16
ENDBRANCH  13  15
ENDBRANCH  12  13
ENDBRANCH   5  11
ENDBRANCH   2   3
TORSDOF 8
ENDMDL
MODEL      205
REMARK 921   NORMALIZED FREE ENERGY PREDICTED BY IDOCK:   -4.03 KCAL/MOL
REMARK 922        TOTAL FREE ENERGY PREDICTED BY IDOCK:   -7.46 KCAL/MOL
REMARK 923 INTER-LIGAND FREE ENERGY PREDICTED BY IDOCK:   -6.53 KCAL/MOL
REMARK 924 INTRA-LIGAND FREE ENERGY PREDICTED BY IDOCK:   -0.92 KCAL/MOL
REMARK 927      BINDING AFFINITY PREDICTED BY RF-SCORE:    0.00 PKD
ROOT
HETATM    1  C   UNL     1     -10.223  19.716  66.414  1.00  0.00    -0.488 C  
HETATM    2  O   UNL     1      -8.922  19.133  66.411  1.00  0.00    -0.330 OA 
ENDROOT
BRANCH   2   3
HETATM    3  C   UNL     1      -8.865  17.840  66.869  1.00  0.00    -0.248 A  
HETATM    4  C   UNL     1      -9.564  16.786  66.275  1.00  0.00    -0.313 A  
HETATM    5  C   UNL     1      -9.510  15.488  66.802  1.00  0.00    -0.257 A  
HETATM    6  C   UNL     1      -8.664  15.239  67.890  1.00  0.00    -0.164 A  
HETATM    7  H   UNL     1      -6.770  18.411  69.287  1.00  0.00     0.000 HD 
HETATM    8  O   UNL     1      -7.335  18.594  68.545  1.00  0.00    -0.276 OA 
HETATM    9  C   UNL     1      -7.924  16.277  68.468  1.00  0.00    -0.184 A  
HETATM   10  C   UNL     1      -8.034  17.572  67.961  1.00  0.00    -0.234 A  
BRANCH   5  11
HETATM   11  C   UNL     1     -10.291  14.388  66.218  1.00  0.00    -0.300 C  
HETATM   12  C   UNL     1     -10.486  13.210  66.836  1.00  0.00    -0.256 C  
BRANCH  12  13
HETATM   13  C   UNL     1     -11.269  12.124  66.179  1.00  0.00    -0.338 C  
HETATM   14  O   UNL     1     -12.499  12.098  66.240  1.00  0.00    -0.321 OA 
BRANCH  13  15
HETATM   15  C   UNL     1     -10.508  11.074  65.420  1.00  0.00    -0.306 C  
BRANCH  15  16
HETATM   16  C   UNL     1      -9.331  10.535  66.184  1.00  0.00    -0.176 C  
HETATM   17  O   UNL     1      -8.186  10.910  65.932  1.00  0.00    -0.160 OA 
BRANCH  16  18
HETATM   18  C   UNL     1      -9.612   9.574  67.290  1.00  0.00    -0.192 C  
HETATM   19  C   UNL     1      -9.300   9.905  68.553  1.00  0.00    -0.143 C  
BRANCH  19  20
HETATM   20  C   UNL     1      -9.566   9.081  69.744  1.00  0.00    -0.182 A  
HETATM   21  C   UNL     1      -9.347   7.692  69.767  1.00  0.00    -0.150 A  
HETATM   22  C   UNL     1      -9.704   6.933  70.886  1.00  0.00    -0.178 A  
HETATM   23  C   UNL     1     -10.149   9.696  70.863  1.00  0.00    -0.257 A  
HETATM   24  C   UNL     1     -10.280   7.578  71.983  1.00  0.00    -0.196 A  
HETATM   25  H   UNL     1     -11.049   7.299  73.832  1.00  0.00     0.000 HD 
HETATM   26  O   UNL     1     -10.658   6.860  73.086  1.00  0.00    -0.250 OA 
HETATM   27  C   UNL     1     -10.501   8.948  71.986  1.00  0.00    -0.383 A  
BRANCH  22  28
HETATM   28  O   UNL     1      -9.560   5.577  71.017  1.00  0.00    -0.162 OA 
HETATM   29  C   UNL     1      -8.608   4.947  70.169  1.00  0.00    -0.091 C  
ENDBRANCH  22  28
ENDBRANCH  19  20
ENDBRANCH  16  18
ENDBRANCH  15  16
ENDBRANCH  13  15
ENDBRANCH  12  13
ENDBRANCH   5  11
ENDBRANCH   2   3
TORSDOF 8
ENDMDL
MODEL      206
REMARK 921   NORMALIZED FREE ENERGY PREDICTED BY IDOCK:   -4.02 KCAL/MOL
REMARK 922        TOTAL FREE ENERGY PREDICTED BY IDOCK:   -7.45 KCAL/MOL
REMARK 923 INTER-LIGAND FREE ENERGY PREDICTED BY IDOCK:   -6.54 KCAL/MOL
REMARK 924 INTRA-LIGAND FREE ENERGY PREDICTED BY IDOCK:   -0.91 KCAL/MOL
REMARK 927      BINDING AFFINITY PREDICTED BY RF-SCORE:    0.00 PKD
ROOT
HETATM    1  C   UNL     1     -10.771  16.773  67.709  1.00  0.00    -0.321 C  
HETATM    2  O   UNL     1      -9.770  17.721  68.068  1.00  0.00    -0.282 OA 
ENDROOT
BRANCH   2   3
HETATM    3  C   UNL     1      -8.560  17.181  68.426  1.00  0.00    -0.246 A  
HETATM    4  C   UNL     1      -8.242  15.830  68.249  1.00  0.00    -0.143 A  
HETATM    5  C   UNL     1      -7.009  15.312  68.667  1.00  0.00    -0.110 A  
HETATM    6  C   UNL     1      -6.052  16.192  69.187  1.00  0.00    -0.139 A  
HETATM    7  H   UNL     1      -7.230  19.950  69.485  1.00  0.00     0.000 HD 
HETATM    8  O   UNL     1      -7.887  19.366  69.124  1.00  0.00    -0.336 OA 
HETATM    9  C   UNL     1      -6.340  17.553  69.329  1.00  0.00    -0.244 A  
HETATM   10  C   UNL     1      -7.593  18.039  68.956  1.00  0.00    -0.136 A  
BRANCH   5  11
HETATM   11  C   UNL     1      -6.693  13.882  68.539  1.00  0.00    -0.100 C  
HETATM   12  C   UNL     1      -7.470  13.008  67.877  1.00  0.00    -0.137 C  
BRANCH  12  13
HETATM   13  C   UNL     1      -7.105  11.565  67.803  1.00  0.00    -0.079 C  
HETATM   14  O   UNL     1      -7.258  10.919  66.766  1.00  0.00    -0.118 OA 
BRANCH  13  15
HETATM   15  C   UNL     1      -6.521  10.928  69.034  1.00  0.00    -0.057 C  
BRANCH  15  16
HETATM   16  C   UNL     1      -7.198   9.639  69.405  1.00  0.00    -0.071 C  
HETATM   17  O   UNL     1      -6.707   8.553  69.098  1.00  0.00    -0.046 OA 
BRANCH  16  18
HETATM   18  C   UNL     1      -8.456   9.729  70.203  1.00  0.00    -0.204 C  
HETATM   19  C   UNL     1      -9.585   9.181  69.728  1.00  0.00    -0.191 C  
BRANCH  19  20
HETATM   20  C   UNL     1     -10.881   9.150  70.426  1.00  0.00    -0.285 A  
HETATM   21  C   UNL     1     -11.524  10.315  70.881  1.00  0.00    -0.425 A  
HETATM   22  C   UNL     1     -12.705  10.233  71.625  1.00  0.00    -0.456 A  
HETATM   23  C   UNL     1     -11.444   7.900  70.731  1.00  0.00    -0.273 A  
HETATM   24  C   UNL     1     -13.239   8.973  71.908  1.00  0.00    -0.405 A  
HETATM   25  H   UNL     1     -14.747   8.002  72.842  1.00  0.00     0.000 HD 
HETATM   26  O   UNL     1     -14.384   8.859  72.650  1.00  0.00    -0.613 OA 
HETATM   27  C   UNL     1     -12.626   7.810  71.466  1.00  0.00    -0.356 A  
BRANCH  22  28
HETATM   28  O   UNL     1     -13.408  11.292  72.137  1.00  0.00    -0.457 OA 
HETATM   29  C   UNL     1     -12.971  12.593  71.766  1.00  0.00    -0.313 C  
ENDBRANCH  22  28
ENDBRANCH  19  20
ENDBRANCH  16  18
ENDBRANCH  15  16
ENDBRANCH  13  15
ENDBRANCH  12  13
ENDBRANCH   5  11
ENDBRANCH   2   3
TORSDOF 8
ENDMDL
MODEL      207
REMARK 921   NORMALIZED FREE ENERGY PREDICTED BY IDOCK:   -4.00 KCAL/MOL
REMARK 922        TOTAL FREE ENERGY PREDICTED BY IDOCK:   -7.41 KCAL/MOL
REMARK 923 INTER-LIGAND FREE ENERGY PREDICTED BY IDOCK:   -6.35 KCAL/MOL
REMARK 924 INTRA-LIGAND FREE ENERGY PREDICTED BY IDOCK:   -1.06 KCAL/MOL
REMARK 927      BINDING AFFINITY PREDICTED BY RF-SCORE:    0.00 PKD
ROOT
HETATM    1  C   UNL     1     -13.744   8.956  71.881  1.00  0.00    -0.439 C  
HETATM    2  O   UNL     1     -13.389  10.301  72.190  1.00  0.00    -0.443 OA 
ENDROOT
BRANCH   2   3
HETATM    3  C   UNL     1     -12.839  11.010  71.151  1.00  0.00    -0.392 A  
HETATM    4  C   UNL     1     -12.244  10.403  70.040  1.00  0.00    -0.262 A  
HETATM    5  C   UNL     1     -11.658  11.165  69.022  1.00  0.00    -0.392 A  
HETATM    6  C   UNL     1     -11.756  12.561  69.085  1.00  0.00    -0.375 A  
HETATM    7  H   UNL     1     -13.559  13.960  72.309  1.00  0.00     0.000 HD 
HETATM    8  O   UNL     1     -13.506  13.011  72.276  1.00  0.00    -0.540 OA 
HETATM    9  C   UNL     1     -12.386  13.181  70.169  1.00  0.00    -0.284 A  
HETATM   10  C   UNL     1     -12.917  12.405  71.199  1.00  0.00    -0.141 A  
BRANCH   5  11
HETATM   11  C   UNL     1     -10.978  10.533  67.882  1.00  0.00    -0.352 C  
HETATM   12  C   UNL     1     -10.483  11.223  66.839  1.00  0.00    -0.286 C  
BRANCH  12  13
HETATM   13  C   UNL     1      -9.824  10.519  65.702  1.00  0.00    -0.252 C  
HETATM   14  O   UNL     1      -9.475  11.128  64.691  1.00  0.00    -0.220 OA 
BRANCH  13  15
HETATM   15  C   UNL     1      -9.580   9.042  65.841  1.00  0.00    -0.317 C  
BRANCH  15  16
HETATM   16  C   UNL     1      -8.423   8.721  66.744  1.00  0.00    -0.111 C  
HETATM   17  O   UNL     1      -7.491   9.512  66.886  1.00  0.00    -0.093 OA 
BRANCH  16  18
HETATM   18  C   UNL     1      -8.478   7.435  67.500  1.00  0.00    -0.116 C  
HETATM   19  C   UNL     1      -9.029   7.407  68.723  1.00  0.00    -0.129 C  
BRANCH  19  20
HETATM   20  C   UNL     1      -9.198   6.205  69.558  1.00  0.00    -0.143 A  
HETATM   21  C   UNL     1      -8.427   5.043  69.375  1.00  0.00    -0.087 A  
HETATM   22  C   UNL     1      -8.685   3.891  70.125  1.00  0.00    -0.071 A  
HETATM   23  C   UNL     1     -10.232   6.193  70.507  1.00  0.00    -0.251 A  
HETATM   24  C   UNL     1      -9.721   3.915  71.063  1.00  0.00    -0.182 A  
HETATM   25  H   UNL     1     -10.715   2.814  72.438  1.00  0.00     0.000 HD 
HETATM   26  O   UNL     1     -10.011   2.798  71.800  1.00  0.00    -0.161 OA 
HETATM   27  C   UNL     1     -10.491   5.051  71.265  1.00  0.00    -0.213 A  
BRANCH  22  28
HETATM   28  O   UNL     1      -8.019   2.698  70.023  1.00  0.00    -0.043 OA 
HETATM   29  C   UNL     1      -8.357   1.866  68.921  1.00  0.00    -0.052 C  
ENDBRANCH  22  28
ENDBRANCH  19  20
ENDBRANCH  16  18
ENDBRANCH  15  16
ENDBRANCH  13  15
ENDBRANCH  12  13
ENDBRANCH   5  11
ENDBRANCH   2   3
TORSDOF 8
ENDMDL
MODEL      208
REMARK 921   NORMALIZED FREE ENERGY PREDICTED BY IDOCK:   -3.99 KCAL/MOL
REMARK 922        TOTAL FREE ENERGY PREDICTED BY IDOCK:   -7.40 KCAL/MOL
REMARK 923 INTER-LIGAND FREE ENERGY PREDICTED BY IDOCK:   -5.72 KCAL/MOL
REMARK 924 INTRA-LIGAND FREE ENERGY PREDICTED BY IDOCK:   -1.68 KCAL/MOL
REMARK 927      BINDING AFFINITY PREDICTED BY RF-SCORE:    0.00 PKD
ROOT
HETATM    1  C   UNL     1      -6.255  11.501  66.743  1.00  0.00    -0.140 C  
HETATM    2  O   UNL     1      -7.009  10.445  66.154  1.00  0.00    -0.111 OA 
ENDROOT
BRANCH   2   3
HETATM    3  C   UNL     1      -8.339  10.723  65.954  1.00  0.00    -0.162 A  
HETATM    4  C   UNL     1      -9.207  11.093  66.986  1.00  0.00    -0.172 A  
HETATM    5  C   UNL     1     -10.567  11.327  66.743  1.00  0.00    -0.305 A  
HETATM    6  C   UNL     1     -11.034  11.273  65.424  1.00  0.00    -0.201 A  
HETATM    7  H   UNL     1      -8.318  10.274  62.736  1.00  0.00     0.000 HD 
HETATM    8  O   UNL     1      -7.986  10.314  63.625  1.00  0.00    -0.160 OA 
HETATM    9  C   UNL     1     -10.167  10.946  64.376  1.00  0.00    -0.423 A  
HETATM   10  C   UNL     1      -8.828  10.665  64.646  1.00  0.00    -0.177 A  
BRANCH   5  11
HETATM   11  C   UNL     1     -11.497  11.658  67.833  1.00  0.00    -0.381 C  
HETATM   12  C   UNL     1     -11.290  11.309  69.114  1.00  0.00    -0.349 C  
BRANCH  12  13
HETATM   13  C   UNL     1     -12.284  11.655  70.170  1.00  0.00    -0.288 C  
HETATM   14  O   UNL     1     -12.544  10.872  71.084  1.00  0.00    -0.368 OA 
BRANCH  13  15
HETATM   15  C   UNL     1     -12.943  13.004  70.094  1.00  0.00     0.473 C  
BRANCH  15  16
HETATM   16  C   UNL     1     -12.293  14.026  70.983  1.00  0.00    -0.369 C  
HETATM   17  O   UNL     1     -12.765  14.299  72.087  1.00  0.00    -0.327 OA 
BRANCH  16  18
HETATM   18  C   UNL     1     -11.028  14.652  70.498  1.00  0.00     0.022 C  
HETATM   19  C   UNL     1     -10.828  14.809  69.180  1.00  0.00    -0.267 C  
BRANCH  19  20
HETATM   20  C   UNL     1      -9.656  15.453  68.563  1.00  0.00    -0.201 A  
HETATM   21  C   UNL     1      -9.396  16.830  68.689  1.00  0.00    -0.252 A  
HETATM   22  C   UNL     1      -8.326  17.418  68.007  1.00  0.00    -0.231 A  
HETATM   23  C   UNL     1      -8.824  14.676  67.741  1.00  0.00    -0.177 A  
HETATM   24  C   UNL     1      -7.517  16.615  67.200  1.00  0.00    -0.183 A  
HETATM   25  H   UNL     1      -5.922  16.617  65.957  1.00  0.00     0.000 HD 
HETATM   26  O   UNL     1      -6.473  17.164  66.505  1.00  0.00    -0.208 OA 
HETATM   27  C   UNL     1      -7.750  15.254  67.064  1.00  0.00    -0.192 A  
BRANCH  22  28
HETATM   28  O   UNL     1      -7.987  18.745  68.035  1.00  0.00    -0.267 OA 
HETATM   29  C   UNL     1      -8.993  19.657  68.456  1.00  0.00    -0.305 C  
ENDBRANCH  22  28
ENDBRANCH  19  20
ENDBRANCH  16  18
ENDBRANCH  15  16
ENDBRANCH  13  15
ENDBRANCH  12  13
ENDBRANCH   5  11
ENDBRANCH   2   3
TORSDOF 8
ENDMDL
MODEL      209
REMARK 921   NORMALIZED FREE ENERGY PREDICTED BY IDOCK:   -3.97 KCAL/MOL
REMARK 922        TOTAL FREE ENERGY PREDICTED BY IDOCK:   -7.37 KCAL/MOL
REMARK 923 INTER-LIGAND FREE ENERGY PREDICTED BY IDOCK:   -6.49 KCAL/MOL
REMARK 924 INTRA-LIGAND FREE ENERGY PREDICTED BY IDOCK:   -0.88 KCAL/MOL
REMARK 927      BINDING AFFINITY PREDICTED BY RF-SCORE:    0.00 PKD
ROOT
HETATM    1  C   UNL     1     -10.022   4.149  71.913  1.00  0.00    -0.183 C  
HETATM    2  O   UNL     1     -10.628   4.943  70.897  1.00  0.00    -0.147 OA 
ENDROOT
BRANCH   2   3
HETATM    3  C   UNL     1     -10.635   6.294  71.143  1.00  0.00    -0.239 A  
HETATM    4  C   UNL     1      -9.640   7.161  70.682  1.00  0.00    -0.165 A  
HETATM    5  C   UNL     1      -9.665   8.528  70.992  1.00  0.00    -0.243 A  
HETATM    6  C   UNL     1     -10.761   9.036  71.700  1.00  0.00    -0.441 A  
HETATM    7  H   UNL     1     -13.437   6.343  72.789  1.00  0.00     0.000 HD 
HETATM    8  O   UNL     1     -12.703   5.984  72.304  1.00  0.00    -0.088 OA 
HETATM    9  C   UNL     1     -11.787   8.187  72.130  1.00  0.00    -0.417 A  
HETATM   10  C   UNL     1     -11.716   6.821  71.857  1.00  0.00    -0.310 A  
BRANCH   5  11
HETATM   11  C   UNL     1      -8.590   9.434  70.562  1.00  0.00    -0.265 C  
HETATM   12  C   UNL     1      -7.554   9.044  69.801  1.00  0.00    -0.075 C  
BRANCH  12  13
HETATM   13  C   UNL     1      -6.483  10.008  69.417  1.00  0.00    -0.048 C  
HETATM   14  O   UNL     1      -5.358   9.619  69.099  1.00  0.00    -0.036 OA 
BRANCH  13  15
HETATM   15  C   UNL     1      -6.829  11.471  69.410  1.00  0.00    -0.099 C  
BRANCH  15  16
HETATM   16  C   UNL     1      -6.549  12.133  68.091  1.00  0.00    -0.061 C  
HETATM   17  O   UNL     1      -5.516  12.778  67.911  1.00  0.00    -0.086 OA 
BRANCH  16  18
HETATM   18  C   UNL     1      -7.545  11.933  66.997  1.00  0.00    -0.134 C  
HETATM   19  C   UNL     1      -8.712  12.593  67.033  1.00  0.00    -0.198 C  
BRANCH  19  20
HETATM   20  C   UNL     1      -9.762  12.532  66.002  1.00  0.00    -0.247 A  
HETATM   21  C   UNL     1     -10.672  13.582  65.786  1.00  0.00    -0.278 A  
HETATM   22  C   UNL     1     -11.714  13.443  64.863  1.00  0.00    -0.351 A  
HETATM   23  C   UNL     1      -9.914  11.340  65.276  1.00  0.00    -0.301 A  
HETATM   24  C   UNL     1     -11.834  12.244  64.156  1.00  0.00    -0.419 A  
HETATM   25  H   UNL     1     -12.935  11.255  62.778  1.00  0.00     0.000 HD 
HETATM   26  O   UNL     1     -12.853  12.070  63.259  1.00  0.00    -0.732 OA 
HETATM   27  C   UNL     1     -10.945  11.196  64.348  1.00  0.00    -0.270 A  
BRANCH  22  28
HETATM   28  O   UNL     1     -12.670  14.383  64.582  1.00  0.00    -0.655 OA 
HETATM   29  C   UNL     1     -12.212  15.694  64.276  1.00  0.00    -0.002 C  
ENDBRANCH  22  28
ENDBRANCH  19  20
ENDBRANCH  16  18
ENDBRANCH  15  16
ENDBRANCH  13  15
ENDBRANCH  12  13
ENDBRANCH   5  11
ENDBRANCH   2   3
TORSDOF 8
ENDMDL
MODEL      210
REMARK 921   NORMALIZED FREE ENERGY PREDICTED BY IDOCK:   -3.93 KCAL/MOL
REMARK 922        TOTAL FREE ENERGY PREDICTED BY IDOCK:   -7.32 KCAL/MOL
REMARK 923 INTER-LIGAND FREE ENERGY PREDICTED BY IDOCK:   -6.51 KCAL/MOL
REMARK 924 INTRA-LIGAND FREE ENERGY PREDICTED BY IDOCK:   -0.81 KCAL/MOL
REMARK 927      BINDING AFFINITY PREDICTED BY RF-SCORE:    0.00 PKD
ROOT
HETATM    1  C   UNL     1      -9.022  16.567  66.090  1.00  0.00    -0.309 C  
HETATM    2  O   UNL     1     -10.292  16.476  65.450  1.00  0.00    -0.558 OA 
ENDROOT
BRANCH   2   3
HETATM    3  C   UNL     1     -10.691  15.202  65.130  1.00  0.00    -0.422 A  
HETATM    4  C   UNL     1     -10.070  14.056  65.637  1.00  0.00    -0.342 A  
HETATM    5  C   UNL     1     -10.484  12.773  65.251  1.00  0.00    -0.312 A  
HETATM    6  C   UNL     1     -11.599  12.650  64.413  1.00  0.00    -0.415 A  
HETATM    7  H   UNL     1     -13.170  16.072  63.219  1.00  0.00     0.000 HD 
HETATM    8  O   UNL     1     -12.419  16.170  63.792  1.00  0.00    -0.769 OA 
HETATM    9  C   UNL     1     -12.256  13.788  63.932  1.00  0.00    -0.402 A  
HETATM   10  C   UNL     1     -11.796  15.056  64.286  1.00  0.00    -0.275 A  
BRANCH   5  11
HETATM   11  C   UNL     1      -9.797  11.566  65.733  1.00  0.00    -0.266 C  
HETATM   12  C   UNL     1     -10.200  10.318  65.440  1.00  0.00    -0.312 C  
BRANCH  12  13
HETATM   13  C   UNL     1      -9.472   9.134  65.979  1.00  0.00    -0.255 C  
HETATM   14  O   UNL     1      -8.502   8.658  65.390  1.00  0.00    -0.153 OA 
BRANCH  13  15
HETATM   15  C   UNL     1      -9.950   8.553  67.281  1.00  0.00    -0.289 C  
BRANCH  15  16
HETATM   16  C   UNL     1      -8.993   8.789  68.415  1.00  0.00    -0.141 C  
HETATM   17  O   UNL     1      -8.775   9.926  68.836  1.00  0.00    -0.127 OA 
BRANCH  16  18
HETATM   18  C   UNL     1      -8.362   7.590  69.042  1.00  0.00    -0.129 C  
HETATM   19  C   UNL     1      -9.137   6.583  69.473  1.00  0.00    -0.140 C  
BRANCH  19  20
HETATM   20  C   UNL     1      -8.652   5.323  70.061  1.00  0.00    -0.117 A  
HETATM   21  C   UNL     1      -9.515   4.381  70.650  1.00  0.00    -0.242 A  
HETATM   22  C   UNL     1      -9.003   3.244  71.284  1.00  0.00    -0.097 A  
HETATM   23  C   UNL     1      -7.266   5.104  70.118  1.00  0.00    -0.058 A  
HETATM   24  C   UNL     1      -7.619   3.056  71.319  1.00  0.00    -0.044 A  
HETATM   25  H   UNL     1      -6.145   1.835  71.971  1.00  0.00     0.000 HD 
HETATM   26  O   UNL     1      -7.086   1.963  71.947  1.00  0.00    -0.029 OA 
HETATM   27  C   UNL     1      -6.748   3.968  70.741  1.00  0.00    -0.032 A  
BRANCH  22  28
HETATM   28  O   UNL     1      -9.739   2.271  71.907  1.00  0.00    -0.120 OA 
HETATM   29  C   UNL     1     -10.567   2.685  72.986  1.00  0.00    -0.153 C  
ENDBRANCH  22  28
ENDBRANCH  19  20
ENDBRANCH  16  18
ENDBRANCH  15  16
ENDBRANCH  13  15
ENDBRANCH  12  13
ENDBRANCH   5  11
ENDBRANCH   2   3
TORSDOF 8
ENDMDL
MODEL      211
REMARK 921   NORMALIZED FREE ENERGY PREDICTED BY IDOCK:   -3.93 KCAL/MOL
REMARK 922        TOTAL FREE ENERGY PREDICTED BY IDOCK:   -7.32 KCAL/MOL
REMARK 923 INTER-LIGAND FREE ENERGY PREDICTED BY IDOCK:   -7.37 KCAL/MOL
REMARK 924 INTRA-LIGAND FREE ENERGY PREDICTED BY IDOCK:    0.06 KCAL/MOL
REMARK 927      BINDING AFFINITY PREDICTED BY RF-SCORE:    0.00 PKD
ROOT
HETATM    1  C   UNL     1      -8.989   4.165  64.083  1.00  0.00    -0.144 C  
HETATM    2  O   UNL     1      -8.023   4.792  64.922  1.00  0.00    -0.092 OA 
ENDROOT
BRANCH   2   3
HETATM    3  C   UNL     1      -8.537   5.660  65.853  1.00  0.00    -0.144 A  
HETATM    4  C   UNL     1      -8.901   6.976  65.554  1.00  0.00     0.022 A  
HETATM    5  C   UNL     1      -9.384   7.841  66.545  1.00  0.00    -0.243 A  
HETATM    6  C   UNL     1      -9.586   7.338  67.836  1.00  0.00    -0.153 A  
HETATM    7  H   UNL     1      -8.533   3.564  68.337  1.00  0.00     0.000 HD 
HETATM    8  O   UNL     1      -8.396   3.890  67.454  1.00  0.00    -0.097 OA 
HETATM    9  C   UNL     1      -9.267   6.010  68.140  1.00  0.00    -0.116 A  
HETATM   10  C   UNL     1      -8.738   5.180  67.151  1.00  0.00    -0.103 A  
BRANCH   5  11
HETATM   11  C   UNL     1      -9.711   9.244  66.249  1.00  0.00    -0.340 C  
HETATM   12  C   UNL     1      -9.568   9.796  65.032  1.00  0.00    -0.333 C  
BRANCH  12  13
HETATM   13  C   UNL     1      -9.896  11.232  64.803  1.00  0.00    -0.266 C  
HETATM   14  O   UNL     1      -9.308  12.127  65.412  1.00  0.00    -0.094 OA 
BRANCH  13  15
HETATM   15  C   UNL     1     -10.955  11.554  63.785  1.00  0.00    -0.485 C  
BRANCH  15  16
HETATM   16  C   UNL     1     -12.000  12.501  64.305  1.00  0.00    -0.408 C  
HETATM   17  O   UNL     1     -13.199  12.244  64.195  1.00  0.00    -0.745 OA 
BRANCH  16  18
HETATM   18  C   UNL     1     -11.525  13.731  65.003  1.00  0.00    -0.340 C  
HETATM   19  C   UNL     1     -11.730  13.866  66.323  1.00  0.00    -0.402 C  
BRANCH  19  20
HETATM   20  C   UNL     1     -11.272  14.997  67.148  1.00  0.00    -0.336 A  
HETATM   21  C   UNL     1     -11.651  15.153  68.494  1.00  0.00    -0.354 A  
HETATM   22  C   UNL     1     -11.273  16.292  69.212  1.00  0.00    -0.312 A  
HETATM   23  C   UNL     1     -10.508  16.003  66.535  1.00  0.00    -0.303 A  
HETATM   24  C   UNL     1     -10.511  17.272  68.572  1.00  0.00    -0.375 A  
HETATM   25  H   UNL     1      -9.622  19.073  68.807  1.00  0.00     0.000 HD 
HETATM   26  O   UNL     1     -10.140  18.406  69.243  1.00  0.00    -0.278 OA 
HETATM   27  C   UNL     1     -10.120  17.138  67.247  1.00  0.00    -0.294 A  
BRANCH  22  28
HETATM   28  O   UNL     1     -11.597  16.565  70.515  1.00  0.00    -0.187 OA 
HETATM   29  C   UNL     1     -12.541  15.702  71.137  1.00  0.00    -0.453 C  
ENDBRANCH  22  28
ENDBRANCH  19  20
ENDBRANCH  16  18
ENDBRANCH  15  16
ENDBRANCH  13  15
ENDBRANCH  12  13
ENDBRANCH   5  11
ENDBRANCH   2   3
TORSDOF 8
ENDMDL
MODEL      212
REMARK 921   NORMALIZED FREE ENERGY PREDICTED BY IDOCK:   -3.93 KCAL/MOL
REMARK 922        TOTAL FREE ENERGY PREDICTED BY IDOCK:   -7.31 KCAL/MOL
REMARK 923 INTER-LIGAND FREE ENERGY PREDICTED BY IDOCK:   -6.38 KCAL/MOL
REMARK 924 INTRA-LIGAND FREE ENERGY PREDICTED BY IDOCK:   -0.94 KCAL/MOL
REMARK 927      BINDING AFFINITY PREDICTED BY RF-SCORE:    0.00 PKD
ROOT
HETATM    1  C   UNL     1     -13.661   9.115  71.840  1.00  0.00    -0.424 C  
HETATM    2  O   UNL     1     -13.462  10.454  72.286  1.00  0.00    -0.363 OA 
ENDROOT
BRANCH   2   3
HETATM    3  C   UNL     1     -12.978  11.317  71.334  1.00  0.00    -0.379 A  
HETATM    4  C   UNL     1     -12.425  10.889  70.123  1.00  0.00    -0.356 A  
HETATM    5  C   UNL     1     -11.905  11.803  69.197  1.00  0.00    -0.389 A  
HETATM    6  C   UNL     1     -12.028  13.173  69.463  1.00  0.00    -0.354 A  
HETATM    7  H   UNL     1     -13.701  14.053  72.931  1.00  0.00     0.000 HD 
HETATM    8  O   UNL     1     -13.630  13.121  72.761  1.00  0.00    -0.598 OA 
HETATM    9  C   UNL     1     -12.618  13.617  70.652  1.00  0.00    -0.366 A  
HETATM   10  C   UNL     1     -13.082  12.689  71.584  1.00  0.00    -0.323 A  
BRANCH   5  11
HETATM   11  C   UNL     1     -11.268  11.357  67.950  1.00  0.00    -0.352 C  
HETATM   12  C   UNL     1     -10.880  12.196  66.975  1.00  0.00    -0.289 C  
BRANCH  12  13
HETATM   13  C   UNL     1     -10.261  11.678  65.722  1.00  0.00    -0.240 C  
HETATM   14  O   UNL     1     -10.026  12.423  64.770  1.00  0.00    -0.251 OA 
BRANCH  13  15
HETATM   15  C   UNL     1      -9.912  10.216  65.668  1.00  0.00    -0.348 C  
BRANCH  15  16
HETATM   16  C   UNL     1      -8.596   9.903  66.324  1.00  0.00    -0.128 C  
HETATM   17  O   UNL     1      -7.585  10.553  66.060  1.00  0.00    -0.131 OA 
BRANCH  16  18
HETATM   18  C   UNL     1      -8.580   8.812  67.342  1.00  0.00    -0.126 C  
HETATM   19  C   UNL     1      -7.960   7.654  67.065  1.00  0.00    -0.116 C  
BRANCH  19  20
HETATM   20  C   UNL     1      -7.821   6.516  67.988  1.00  0.00    -0.105 A  
HETATM   21  C   UNL     1      -8.876   6.071  68.805  1.00  0.00    -0.116 A  
HETATM   22  C   UNL     1      -8.673   5.049  69.738  1.00  0.00    -0.091 A  
HETATM   23  C   UNL     1      -6.558   5.917  68.123  1.00  0.00    -0.055 A  
HETATM   24  C   UNL     1      -7.404   4.474  69.843  1.00  0.00    -0.050 A  
HETATM   25  H   UNL     1      -6.306   3.092  70.831  1.00  0.00     0.000 HD 
HETATM   26  O   UNL     1      -7.169   3.484  70.759  1.00  0.00    -0.033 OA 
HETATM   27  C   UNL     1      -6.349   4.891  69.045  1.00  0.00    -0.032 A  
BRANCH  22  28
HETATM   28  O   UNL     1      -9.613   4.548  70.599  1.00  0.00    -0.158 OA 
HETATM   29  C   UNL     1     -10.039   5.401  71.654  1.00  0.00    -0.203 C  
ENDBRANCH  22  28
ENDBRANCH  19  20
ENDBRANCH  16  18
ENDBRANCH  15  16
ENDBRANCH  13  15
ENDBRANCH  12  13
ENDBRANCH   5  11
ENDBRANCH   2   3
TORSDOF 8
ENDMDL
MODEL      213
REMARK 921   NORMALIZED FREE ENERGY PREDICTED BY IDOCK:   -3.93 KCAL/MOL
REMARK 922        TOTAL FREE ENERGY PREDICTED BY IDOCK:   -7.31 KCAL/MOL
REMARK 923 INTER-LIGAND FREE ENERGY PREDICTED BY IDOCK:   -6.30 KCAL/MOL
REMARK 924 INTRA-LIGAND FREE ENERGY PREDICTED BY IDOCK:   -1.01 KCAL/MOL
REMARK 927      BINDING AFFINITY PREDICTED BY RF-SCORE:    0.00 PKD
ROOT
HETATM    1  C   UNL     1      -8.084   8.210  73.056  1.00  0.00    -0.173 C  
HETATM    2  O   UNL     1      -9.258   8.779  72.482  1.00  0.00    -0.347 OA 
ENDROOT
BRANCH   2   3
HETATM    3  C   UNL     1      -9.867   8.010  71.522  1.00  0.00    -0.170 A  
HETATM    4  C   UNL     1      -9.309   7.777  70.261  1.00  0.00    -0.156 A  
HETATM    5  C   UNL     1      -9.985   7.019  69.295  1.00  0.00    -0.163 A  
HETATM    6  C   UNL     1     -11.199   6.414  69.644  1.00  0.00    -0.483 A  
HETATM    7  H   UNL     1     -12.464   7.206  73.301  1.00  0.00     0.000 HD 
HETATM    8  O   UNL     1     -11.636   7.617  73.081  1.00  0.00    -0.251 OA 
HETATM    9  C   UNL     1     -11.748   6.604  70.917  1.00  0.00    -0.431 A  
HETATM   10  C   UNL     1     -11.085   7.405  71.846  1.00  0.00    -0.242 A  
BRANCH   5  11
HETATM   11  C   UNL     1      -9.432   6.821  67.948  1.00  0.00    -0.118 C  
HETATM   12  C   UNL     1      -9.168   7.829  67.100  1.00  0.00    -0.174 C  
BRANCH  12  13
HETATM   13  C   UNL     1      -8.629   7.560  65.737  1.00  0.00    -0.142 C  
HETATM   14  O   UNL     1      -8.359   6.415  65.371  1.00  0.00    -0.142 OA 
BRANCH  13  15
HETATM   15  C   UNL     1      -8.446   8.732  64.813  1.00  0.00    -0.179 C  
BRANCH  15  16
HETATM   16  C   UNL     1      -7.796   9.910  65.481  1.00  0.00    -0.126 C  
HETATM   17  O   UNL     1      -6.600   9.895  65.773  1.00  0.00    -0.083 OA 
BRANCH  16  18
HETATM   18  C   UNL     1      -8.644  11.114  65.726  1.00  0.00    -0.113 C  
HETATM   19  C   UNL     1      -9.214  11.291  66.928  1.00  0.00    -0.184 C  
BRANCH  19  20
HETATM   20  C   UNL     1     -10.029  12.451  67.325  1.00  0.00    -0.209 A  
HETATM   21  C   UNL     1     -10.070  13.640  66.575  1.00  0.00    -0.286 A  
HETATM   22  C   UNL     1     -10.780  14.752  67.039  1.00  0.00    -0.300 A  
HETATM   23  C   UNL     1     -10.716  12.396  68.549  1.00  0.00    -0.262 A  
HETATM   24  C   UNL     1     -11.454  14.661  68.260  1.00  0.00    -0.314 A  
HETATM   25  H   UNL     1     -12.601  15.675  69.580  1.00  0.00     0.000 HD 
HETATM   26  O   UNL     1     -12.143  15.737  68.750  1.00  0.00    -0.314 OA 
HETATM   27  C   UNL     1     -11.433  13.497  69.015  1.00  0.00    -0.349 A  
BRANCH  22  28
HETATM   28  O   UNL     1     -10.876  15.965  66.411  1.00  0.00    -0.288 OA 
HETATM   29  C   UNL     1      -9.662  16.550  65.956  1.00  0.00    -0.301 C  
ENDBRANCH  22  28
ENDBRANCH  19  20
ENDBRANCH  16  18
ENDBRANCH  15  16
ENDBRANCH  13  15
ENDBRANCH  12  13
ENDBRANCH   5  11
ENDBRANCH   2   3
TORSDOF 8
ENDMDL
MODEL      214
REMARK 921   NORMALIZED FREE ENERGY PREDICTED BY IDOCK:   -3.91 KCAL/MOL
REMARK 922        TOTAL FREE ENERGY PREDICTED BY IDOCK:   -7.28 KCAL/MOL
REMARK 923 INTER-LIGAND FREE ENERGY PREDICTED BY IDOCK:   -6.63 KCAL/MOL
REMARK 924 INTRA-LIGAND FREE ENERGY PREDICTED BY IDOCK:   -0.65 KCAL/MOL
REMARK 927      BINDING AFFINITY PREDICTED BY RF-SCORE:    0.00 PKD
ROOT
HETATM    1  C   UNL     1     -11.057  16.466  64.893  1.00  0.00    -0.239 C  
HETATM    2  O   UNL     1     -10.108  17.293  65.560  1.00  0.00    -0.581 OA 
ENDROOT
BRANCH   2   3
HETATM    3  C   UNL     1      -9.121  16.616  66.235  1.00  0.00    -0.298 A  
HETATM    4  C   UNL     1      -9.112  15.226  66.386  1.00  0.00    -0.347 A  
HETATM    5  C   UNL     1      -8.107  14.581  67.118  1.00  0.00    -0.196 A  
HETATM    6  C   UNL     1      -7.049  15.345  67.626  1.00  0.00    -0.204 A  
HETATM    7  H   UNL     1      -7.331  19.229  66.964  1.00  0.00     0.000 HD 
HETATM    8  O   UNL     1      -8.052  18.722  66.608  1.00  0.00    -0.256 OA 
HETATM    9  C   UNL     1      -7.023  16.732  67.446  1.00  0.00    -0.182 A  
HETATM   10  C   UNL     1      -8.061  17.361  66.759  1.00  0.00    -0.250 A  
BRANCH   5  11
HETATM   11  C   UNL     1      -8.124  13.126  67.332  1.00  0.00    -0.181 C  
HETATM   12  C   UNL     1      -8.996  12.300  66.729  1.00  0.00    -0.209 C  
BRANCH  12  13
HETATM   13  C   UNL     1      -8.977  10.835  67.006  1.00  0.00    -0.141 C  
HETATM   14  O   UNL     1      -8.160  10.344  67.787  1.00  0.00    -0.103 OA 
BRANCH  13  15
HETATM   15  C   UNL     1     -10.003   9.980  66.317  1.00  0.00    -0.310 C  
BRANCH  15  16
HETATM   16  C   UNL     1      -9.737   8.508  66.468  1.00  0.00    -0.260 C  
HETATM   17  O   UNL     1      -8.909   7.937  65.759  1.00  0.00    -0.163 OA 
BRANCH  16  18
HETATM   18  C   UNL     1     -10.476   7.784  67.544  1.00  0.00    -0.338 C  
HETATM   19  C   UNL     1      -9.836   7.444  68.674  1.00  0.00    -0.165 C  
BRANCH  19  20
HETATM   20  C   UNL     1     -10.449   6.776  69.835  1.00  0.00    -0.242 A  
HETATM   21  C   UNL     1     -11.655   7.214  70.411  1.00  0.00    -0.300 A  
HETATM   22  C   UNL     1     -12.151   6.612  71.572  1.00  0.00    -0.355 A  
HETATM   23  C   UNL     1      -9.749   5.721  70.443  1.00  0.00    -0.224 A  
HETATM   24  C   UNL     1     -11.430   5.563  72.149  1.00  0.00    -0.106 A  
HETATM   25  H   UNL     1     -11.389   4.252  73.687  1.00  0.00     0.000 HD 
HETATM   26  O   UNL     1     -11.880   4.965  73.295  1.00  0.00    -0.264 OA 
HETATM   27  C   UNL     1     -10.241   5.110  71.596  1.00  0.00    -0.276 A  
BRANCH  22  28
HETATM   28  O   UNL     1     -13.298   6.963  72.233  1.00  0.00    -0.010 OA 
HETATM   29  C   UNL     1     -14.063   8.023  71.673  1.00  0.00    -0.431 C  
ENDBRANCH  22  28
ENDBRANCH  19  20
ENDBRANCH  16  18
ENDBRANCH  15  16
ENDBRANCH  13  15
ENDBRANCH  12  13
ENDBRANCH   5  11
ENDBRANCH   2   3
TORSDOF 8
ENDMDL
MODEL      215
REMARK 921   NORMALIZED FREE ENERGY PREDICTED BY IDOCK:   -3.91 KCAL/MOL
REMARK 922        TOTAL FREE ENERGY PREDICTED BY IDOCK:   -7.28 KCAL/MOL
REMARK 923 INTER-LIGAND FREE ENERGY PREDICTED BY IDOCK:   -6.72 KCAL/MOL
REMARK 924 INTRA-LIGAND FREE ENERGY PREDICTED BY IDOCK:   -0.57 KCAL/MOL
REMARK 927      BINDING AFFINITY PREDICTED BY RF-SCORE:    0.00 PKD
ROOT
HETATM    1  C   UNL     1      -9.147  18.613  68.324  1.00  0.00    -0.322 C  
HETATM    2  O   UNL     1     -10.457  18.075  68.162  1.00  0.00    -0.376 OA 
ENDROOT
BRANCH   2   3
HETATM    3  C   UNL     1     -10.579  17.132  67.172  1.00  0.00    -0.244 A  
HETATM    4  C   UNL     1     -10.630  15.758  67.424  1.00  0.00    -0.313 A  
HETATM    5  C   UNL     1     -10.713  14.829  66.379  1.00  0.00    -0.313 A  
HETATM    6  C   UNL     1     -10.839  15.302  65.067  1.00  0.00    -0.457 A  
HETATM    7  H   UNL     1     -10.738  19.233  64.697  1.00  0.00     0.000 HD 
HETATM    8  O   UNL     1     -10.659  18.927  65.593  1.00  0.00    -0.575 OA 
HETATM    9  C   UNL     1     -10.833  16.676  64.803  1.00  0.00    -0.076 A  
HETATM   10  C   UNL     1     -10.696  17.583  65.853  1.00  0.00    -0.119 A  
BRANCH   5  11
HETATM   11  C   UNL     1     -10.706  13.381  66.635  1.00  0.00    -0.282 C  
HETATM   12  C   UNL     1     -11.415  12.799  67.617  1.00  0.00    -0.387 C  
BRANCH  12  13
HETATM   13  C   UNL     1     -11.346  11.326  67.838  1.00  0.00    -0.299 C  
HETATM   14  O   UNL     1     -11.499  10.533  66.909  1.00  0.00    -0.175 OA 
BRANCH  13  15
HETATM   15  C   UNL     1     -11.062  10.842  69.233  1.00  0.00    -0.312 C  
BRANCH  15  16
HETATM   16  C   UNL     1      -9.652  10.350  69.407  1.00  0.00    -0.192 C  
HETATM   17  O   UNL     1      -8.698  10.994  68.972  1.00  0.00    -0.147 OA 
BRANCH  16  18
HETATM   18  C   UNL     1      -9.457   9.084  70.172  1.00  0.00    -0.217 C  
HETATM   19  C   UNL     1     -10.524   8.436  70.667  1.00  0.00    -0.227 C  
BRANCH  19  20
HETATM   20  C   UNL     1     -10.485   7.156  71.394  1.00  0.00    -0.220 A  
HETATM   21  C   UNL     1      -9.428   6.239  71.256  1.00  0.00    -0.171 A  
HETATM   22  C   UNL     1      -9.479   4.993  71.890  1.00  0.00    -0.148 A  
HETATM   23  C   UNL     1     -11.594   6.803  72.180  1.00  0.00    -0.324 A  
HETATM   24  C   UNL     1     -10.596   4.675  72.666  1.00  0.00    -0.195 A  
HETATM   25  H   UNL     1     -11.443   3.241  73.813  1.00  0.00     0.000 HD 
HETATM   26  O   UNL     1     -10.684   3.457  73.285  1.00  0.00    -0.175 OA 
HETATM   27  C   UNL     1     -11.649   5.566  72.822  1.00  0.00    -0.298 A  
BRANCH  22  28
HETATM   28  O   UNL     1      -8.524   4.013  71.814  1.00  0.00    -0.094 OA 
HETATM   29  C   UNL     1      -8.341   3.391  70.549  1.00  0.00    -0.060 C  
ENDBRANCH  22  28
ENDBRANCH  19  20
ENDBRANCH  16  18
ENDBRANCH  15  16
ENDBRANCH  13  15
ENDBRANCH  12  13
ENDBRANCH   5  11
ENDBRANCH   2   3
TORSDOF 8
ENDMDL
MODEL      216
REMARK 921   NORMALIZED FREE ENERGY PREDICTED BY IDOCK:   -3.89 KCAL/MOL
REMARK 922        TOTAL FREE ENERGY PREDICTED BY IDOCK:   -7.26 KCAL/MOL
REMARK 923 INTER-LIGAND FREE ENERGY PREDICTED BY IDOCK:   -6.47 KCAL/MOL
REMARK 924 INTRA-LIGAND FREE ENERGY PREDICTED BY IDOCK:   -0.79 KCAL/MOL
REMARK 927      BINDING AFFINITY PREDICTED BY RF-SCORE:    0.00 PKD
ROOT
HETATM    1  C   UNL     1     -10.175   4.905  70.531  1.00  0.00    -0.218 C  
HETATM    2  O   UNL     1     -11.270   5.739  70.163  1.00  0.00    -0.319 OA 
ENDROOT
BRANCH   2   3
HETATM    3  C   UNL     1     -11.053   7.086  70.319  1.00  0.00    -0.285 A  
HETATM    4  C   UNL     1      -9.997   7.766  69.705  1.00  0.00    -0.190 A  
HETATM    5  C   UNL     1      -9.787   9.134  69.925  1.00  0.00    -0.206 A  
HETATM    6  C   UNL     1     -10.713   9.840  70.703  1.00  0.00    -0.394 A  
HETATM    7  H   UNL     1     -13.621   7.645  72.230  1.00  0.00     0.000 HD 
HETATM    8  O   UNL     1     -13.004   7.155  71.698  1.00  0.00    -0.365 OA 
HETATM    9  C   UNL     1     -11.799   9.180  71.289  1.00  0.00    -0.396 A  
HETATM   10  C   UNL     1     -11.960   7.807  71.101  1.00  0.00    -0.291 A  
BRANCH   5  11
HETATM   11  C   UNL     1      -8.644   9.843  69.331  1.00  0.00    -0.180 C  
HETATM   12  C   UNL     1      -7.659  10.399  70.057  1.00  0.00    -0.048 C  
BRANCH  12  13
HETATM   13  C   UNL     1      -6.538  11.124  69.394  1.00  0.00    -0.109 C  
HETATM   14  O   UNL     1      -5.481  11.343  69.986  1.00  0.00    -0.065 OA 
BRANCH  13  15
HETATM   15  C   UNL     1      -6.734  11.561  67.969  1.00  0.00    -0.059 C  
BRANCH  15  16
HETATM   16  C   UNL     1      -6.305  12.980  67.726  1.00  0.00    -0.149 C  
HETATM   17  O   UNL     1      -5.171  13.240  67.322  1.00  0.00    -0.338 OA 
BRANCH  16  18
HETATM   18  C   UNL     1      -7.322  14.051  67.940  1.00  0.00    -0.162 C  
HETATM   19  C   UNL     1      -7.087  15.291  67.484  1.00  0.00    -0.224 C  
BRANCH  19  20
HETATM   20  C   UNL     1      -8.018  16.428  67.579  1.00  0.00    -0.172 A  
HETATM   21  C   UNL     1      -7.673  17.725  67.160  1.00  0.00    -0.224 A  
HETATM   22  C   UNL     1      -8.552  18.795  67.357  1.00  0.00    -0.273 A  
HETATM   23  C   UNL     1      -9.261  16.222  68.200  1.00  0.00    -0.199 A  
HETATM   24  C   UNL     1      -9.782  18.554  67.976  1.00  0.00    -0.327 A  
HETATM   25  H   UNL     1     -11.492  19.418  68.621  1.00  0.00     0.000 HD 
HETATM   26  O   UNL     1     -10.656  19.583  68.200  1.00  0.00    -0.405 OA 
HETATM   27  C   UNL     1     -10.146  17.282  68.394  1.00  0.00    -0.333 A  
BRANCH  22  28
HETATM   28  O   UNL     1      -8.321  20.101  67.011  1.00  0.00    -0.309 OA 
HETATM   29  C   UNL     1      -7.335  20.336  66.014  1.00  0.00    -0.234 C  
ENDBRANCH  22  28
ENDBRANCH  19  20
ENDBRANCH  16  18
ENDBRANCH  15  16
ENDBRANCH  13  15
ENDBRANCH  12  13
ENDBRANCH   5  11
ENDBRANCH   2   3
TORSDOF 8
ENDMDL
MODEL      217
REMARK 921   NORMALIZED FREE ENERGY PREDICTED BY IDOCK:   -3.88 KCAL/MOL
REMARK 922        TOTAL FREE ENERGY PREDICTED BY IDOCK:   -7.24 KCAL/MOL
REMARK 923 INTER-LIGAND FREE ENERGY PREDICTED BY IDOCK:   -6.41 KCAL/MOL
REMARK 924 INTRA-LIGAND FREE ENERGY PREDICTED BY IDOCK:   -0.83 KCAL/MOL
REMARK 927      BINDING AFFINITY PREDICTED BY RF-SCORE:    0.00 PKD
ROOT
HETATM    1  C   UNL     1      -9.098   2.218  71.973  1.00  0.00    -0.082 C  
HETATM    2  O   UNL     1      -9.008   3.489  72.612  1.00  0.00    -0.088 OA 
ENDROOT
BRANCH   2   3
HETATM    3  C   UNL     1      -9.736   4.490  72.018  1.00  0.00    -0.170 A  
HETATM    4  C   UNL     1      -9.432   5.014  70.758  1.00  0.00    -0.230 A  
HETATM    5  C   UNL     1     -10.176   6.065  70.207  1.00  0.00    -0.266 A  
HETATM    6  C   UNL     1     -11.299   6.530  70.904  1.00  0.00    -0.393 A  
HETATM    7  H   UNL     1     -11.931   4.795  74.395  1.00  0.00     0.000 HD 
HETATM    8  O   UNL     1     -11.170   4.465  73.931  1.00  0.00    -0.234 OA 
HETATM    9  C   UNL     1     -11.641   5.986  72.147  1.00  0.00    -0.348 A  
HETATM   10  C   UNL     1     -10.855   4.976  72.701  1.00  0.00    -0.226 A  
BRANCH   5  11
HETATM   11  C   UNL     1      -9.825   6.660  68.910  1.00  0.00    -0.143 C  
HETATM   12  C   UNL     1      -8.610   7.162  68.630  1.00  0.00    -0.124 C  
BRANCH  12  13
HETATM   13  C   UNL     1      -8.323   7.773  67.301  1.00  0.00    -0.118 C  
HETATM   14  O   UNL     1      -7.169   8.000  66.938  1.00  0.00    -0.079 OA 
BRANCH  13  15
HETATM   15  C   UNL     1      -9.492   8.083  66.408  1.00  0.00    -0.268 C  
BRANCH  15  16
HETATM   16  C   UNL     1      -9.252   9.270  65.518  1.00  0.00    -0.231 C  
HETATM   17  O   UNL     1      -9.002   9.125  64.321  1.00  0.00    -0.163 OA 
BRANCH  16  18
HETATM   18  C   UNL     1      -9.382  10.625  66.130  1.00  0.00    -0.207 C  
HETATM   19  C   UNL     1     -10.602  11.146  66.334  1.00  0.00    -0.315 C  
BRANCH  19  20
HETATM   20  C   UNL     1     -10.881  12.444  66.972  1.00  0.00    -0.282 A  
HETATM   21  C   UNL     1     -10.143  13.605  66.680  1.00  0.00    -0.277 A  
HETATM   22  C   UNL     1     -10.378  14.793  67.380  1.00  0.00    -0.242 A  
HETATM   23  C   UNL     1     -11.860  12.495  67.978  1.00  0.00    -0.382 A  
HETATM   24  C   UNL     1     -11.361  14.809  68.373  1.00  0.00    -0.299 A  
HETATM   25  H   UNL     1     -12.271  15.961  69.763  1.00  0.00     0.000 HD 
HETATM   26  O   UNL     1     -11.602  15.951  69.088  1.00  0.00    -0.362 OA 
HETATM   27  C   UNL     1     -12.106  13.677  68.675  1.00  0.00    -0.325 A  
BRANCH  22  28
HETATM   28  O   UNL     1      -9.713  15.977  67.200  1.00  0.00    -0.224 OA 
HETATM   29  C   UNL     1     -10.053  16.736  66.047  1.00  0.00    -0.332 C  
ENDBRANCH  22  28
ENDBRANCH  19  20
ENDBRANCH  16  18
ENDBRANCH  15  16
ENDBRANCH  13  15
ENDBRANCH  12  13
ENDBRANCH   5  11
ENDBRANCH   2   3
TORSDOF 8
ENDMDL
MODEL      218
REMARK 921   NORMALIZED FREE ENERGY PREDICTED BY IDOCK:   -3.88 KCAL/MOL
REMARK 922        TOTAL FREE ENERGY PREDICTED BY IDOCK:   -7.24 KCAL/MOL
REMARK 923 INTER-LIGAND FREE ENERGY PREDICTED BY IDOCK:   -6.76 KCAL/MOL
REMARK 924 INTRA-LIGAND FREE ENERGY PREDICTED BY IDOCK:   -0.48 KCAL/MOL
REMARK 927      BINDING AFFINITY PREDICTED BY RF-SCORE:    0.00 PKD
ROOT
HETATM    1  C   UNL     1      -8.775   6.330  73.999  1.00  0.00    -0.124 C  
HETATM    2  O   UNL     1      -9.185   5.581  72.858  1.00  0.00    -0.135 OA 
ENDROOT
BRANCH   2   3
HETATM    3  C   UNL     1      -9.871   6.297  71.909  1.00  0.00    -0.155 A  
HETATM    4  C   UNL     1      -9.241   7.066  70.926  1.00  0.00    -0.156 A  
HETATM    5  C   UNL     1      -9.981   7.816  70.002  1.00  0.00    -0.187 A  
HETATM    6  C   UNL     1     -11.378   7.712  70.018  1.00  0.00    -0.081 A  
HETATM    7  H   UNL     1     -12.845   5.403  72.867  1.00  0.00     0.000 HD 
HETATM    8  O   UNL     1     -11.896   5.458  72.864  1.00  0.00    -0.263 OA 
HETATM    9  C   UNL     1     -12.021   6.913  70.969  1.00  0.00    -0.422 A  
HETATM   10  C   UNL     1     -11.267   6.216  71.914  1.00  0.00    -0.284 A  
BRANCH   5  11
HETATM   11  C   UNL     1      -9.325   8.673  69.005  1.00  0.00    -0.146 C  
HETATM   12  C   UNL     1      -9.985   9.293  68.012  1.00  0.00    -0.216 C  
BRANCH  12  13
HETATM   13  C   UNL     1      -9.257  10.131  67.018  1.00  0.00    -0.146 C  
HETATM   14  O   UNL     1      -8.287  10.815  67.347  1.00  0.00    -0.118 OA 
BRANCH  13  15
HETATM   15  C   UNL     1      -9.732  10.097  65.592  1.00  0.00    -0.322 C  
BRANCH  15  16
HETATM   16  C   UNL     1     -10.551  11.300  65.217  1.00  0.00    -0.261 C  
HETATM   17  O   UNL     1     -11.258  11.298  64.210  1.00  0.00    -0.299 OA 
BRANCH  16  18
HETATM   18  C   UNL     1     -10.511  12.472  66.141  1.00  0.00    -0.272 C  
HETATM   19  C   UNL     1     -10.364  13.708  65.640  1.00  0.00    -0.309 C  
BRANCH  19  20
HETATM   20  C   UNL     1     -10.360  14.954  66.424  1.00  0.00    -0.291 A  
HETATM   21  C   UNL     1     -10.925  15.041  67.709  1.00  0.00    -0.298 A  
HETATM   22  C   UNL     1     -10.986  16.268  68.379  1.00  0.00    -0.351 A  
HETATM   23  C   UNL     1      -9.855  16.118  65.823  1.00  0.00    -0.354 A  
HETATM   24  C   UNL     1     -10.472  17.406  67.752  1.00  0.00    -0.376 A  
HETATM   25  H   UNL     1     -10.183  19.397  67.948  1.00  0.00     0.000 HD 
HETATM   26  O   UNL     1     -10.533  18.623  68.374  1.00  0.00    -0.337 OA 
HETATM   27  C   UNL     1      -9.904  17.344  66.488  1.00  0.00    -0.310 A  
BRANCH  22  28
HETATM   28  O   UNL     1     -11.529  16.481  69.619  1.00  0.00    -0.186 OA 
HETATM   29  C   UNL     1     -12.370  15.458  70.136  1.00  0.00    -0.361 C  
ENDBRANCH  22  28
ENDBRANCH  19  20
ENDBRANCH  16  18
ENDBRANCH  15  16
ENDBRANCH  13  15
ENDBRANCH  12  13
ENDBRANCH   5  11
ENDBRANCH   2   3
TORSDOF 8
ENDMDL
MODEL      219
REMARK 921   NORMALIZED FREE ENERGY PREDICTED BY IDOCK:   -3.88 KCAL/MOL
REMARK 922        TOTAL FREE ENERGY PREDICTED BY IDOCK:   -7.24 KCAL/MOL
REMARK 923 INTER-LIGAND FREE ENERGY PREDICTED BY IDOCK:   -6.76 KCAL/MOL
REMARK 924 INTRA-LIGAND FREE ENERGY PREDICTED BY IDOCK:   -0.47 KCAL/MOL
REMARK 927      BINDING AFFINITY PREDICTED BY RF-SCORE:    0.00 PKD
ROOT
HETATM    1  C   UNL     1      -8.836   6.280  73.996  1.00  0.00    -0.126 C  
HETATM    2  O   UNL     1      -9.249   5.498  72.878  1.00  0.00    -0.135 OA 
ENDROOT
BRANCH   2   3
HETATM    3  C   UNL     1      -9.924   6.191  71.904  1.00  0.00    -0.164 A  
HETATM    4  C   UNL     1      -9.283   6.955  70.924  1.00  0.00    -0.157 A  
HETATM    5  C   UNL     1     -10.013   7.679  69.973  1.00  0.00    -0.190 A  
HETATM    6  C   UNL     1     -11.408   7.555  69.959  1.00  0.00    -0.115 A  
HETATM    7  H   UNL     1     -12.905   5.264  72.808  1.00  0.00     0.000 HD 
HETATM    8  O   UNL     1     -11.957   5.334  72.825  1.00  0.00    -0.211 OA 
HETATM    9  C   UNL     1     -12.061   6.759  70.907  1.00  0.00    -0.421 A  
HETATM   10  C   UNL     1     -11.318   6.088  71.878  1.00  0.00    -0.279 A  
BRANCH   5  11
HETATM   11  C   UNL     1      -9.347   8.533  68.978  1.00  0.00    -0.146 C  
HETATM   12  C   UNL     1      -9.993   9.125  67.959  1.00  0.00    -0.213 C  
BRANCH  12  13
HETATM   13  C   UNL     1      -9.255   9.961  66.970  1.00  0.00    -0.142 C  
HETATM   14  O   UNL     1      -8.309  10.670  67.313  1.00  0.00    -0.119 OA 
BRANCH  13  15
HETATM   15  C   UNL     1      -9.691   9.891  65.533  1.00  0.00    -0.370 C  
BRANCH  15  16
HETATM   16  C   UNL     1     -10.468  11.101  65.096  1.00  0.00    -0.277 C  
HETATM   17  O   UNL     1     -11.117  11.095  64.050  1.00  0.00    -0.331 OA 
BRANCH  16  18
HETATM   18  C   UNL     1     -10.465  12.284  66.006  1.00  0.00    -0.284 C  
HETATM   19  C   UNL     1     -10.144  13.494  65.521  1.00  0.00    -0.283 C  
BRANCH  19  20
HETATM   20  C   UNL     1     -10.149  14.751  66.287  1.00  0.00    -0.299 A  
HETATM   21  C   UNL     1      -9.214  15.777  66.062  1.00  0.00    -0.379 A  
HETATM   22  C   UNL     1      -9.192  16.913  66.878  1.00  0.00    -0.238 A  
HETATM   23  C   UNL     1     -11.064  14.885  67.344  1.00  0.00    -0.325 A  
HETATM   24  C   UNL     1     -10.119  17.014  67.919  1.00  0.00    -0.306 A  
HETATM   25  H   UNL     1     -10.743  18.174  69.453  1.00  0.00     0.000 HD 
HETATM   26  O   UNL     1     -10.113  18.105  68.745  1.00  0.00    -0.375 OA 
HETATM   27  C   UNL     1     -11.055  16.018  68.157  1.00  0.00    -0.344 A  
BRANCH  22  28
HETATM   28  O   UNL     1      -8.321  17.965  66.770  1.00  0.00    -0.234 OA 
HETATM   29  C   UNL     1      -7.155  17.755  65.983  1.00  0.00    -0.300 C  
ENDBRANCH  22  28
ENDBRANCH  19  20
ENDBRANCH  16  18
ENDBRANCH  15  16
ENDBRANCH  13  15
ENDBRANCH  12  13
ENDBRANCH   5  11
ENDBRANCH   2   3
TORSDOF 8
ENDMDL
MODEL      220
REMARK 921   NORMALIZED FREE ENERGY PREDICTED BY IDOCK:   -3.87 KCAL/MOL
REMARK 922        TOTAL FREE ENERGY PREDICTED BY IDOCK:   -7.22 KCAL/MOL
REMARK 923 INTER-LIGAND FREE ENERGY PREDICTED BY IDOCK:   -6.13 KCAL/MOL
REMARK 924 INTRA-LIGAND FREE ENERGY PREDICTED BY IDOCK:   -1.09 KCAL/MOL
REMARK 927      BINDING AFFINITY PREDICTED BY RF-SCORE:    0.00 PKD
ROOT
HETATM    1  C   UNL     1      -9.519  11.240  68.923  1.00  0.00    -0.089 C  
HETATM    2  O   UNL     1      -8.237  10.631  68.791  1.00  0.00    -0.125 OA 
ENDROOT
BRANCH   2   3
HETATM    3  C   UNL     1      -7.241  11.466  68.346  1.00  0.00    -0.087 A  
HETATM    4  C   UNL     1      -7.116  12.796  68.758  1.00  0.00    -0.089 A  
HETATM    5  C   UNL     1      -6.109  13.625  68.246  1.00  0.00    -0.108 A  
HETATM    6  C   UNL     1      -5.162  13.072  67.375  1.00  0.00     0.064 A  
HETATM    7  H   UNL     1      -5.749   9.273  66.468  1.00  0.00     0.000 HD 
HETATM    8  O   UNL     1      -6.395   9.632  67.065  1.00  0.00    -0.064 OA 
HETATM    9  C   UNL     1      -5.249  11.730  66.988  1.00  0.00    -0.115 A  
HETATM   10  C   UNL     1      -6.291  10.937  67.468  1.00  0.00    -0.057 A  
BRANCH   5  11
HETATM   11  C   UNL     1      -6.009  15.041  68.629  1.00  0.00    -0.088 C  
HETATM   12  C   UNL     1      -6.712  16.020  68.035  1.00  0.00    -0.140 C  
BRANCH  12  13
HETATM   13  C   UNL     1      -6.548  17.441  68.455  1.00  0.00    -0.180 C  
HETATM   14  O   UNL     1      -6.062  17.731  69.548  1.00  0.00    -0.231 OA 
BRANCH  13  15
HETATM   15  C   UNL     1      -6.977  18.509  67.488  1.00  0.00    -0.206 C  
BRANCH  15  16
HETATM   16  C   UNL     1      -8.414  18.914  67.661  1.00  0.00    -0.280 C  
HETATM   17  O   UNL     1      -8.724  20.092  67.841  1.00  0.00    -0.309 OA 
BRANCH  16  18
HETATM   18  C   UNL     1      -9.447  17.842  67.550  1.00  0.00    -0.258 C  
HETATM   19  C   UNL     1      -9.649  17.235  66.371  1.00  0.00    -0.290 C  
BRANCH  19  20
HETATM   20  C   UNL     1     -10.593  16.131  66.128  1.00  0.00    -0.288 A  
HETATM   21  C   UNL     1     -10.891  15.162  67.103  1.00  0.00    -0.320 A  
HETATM   22  C   UNL     1     -11.719  14.076  66.799  1.00  0.00    -0.407 A  
HETATM   23  C   UNL     1     -11.140  15.993  64.842  1.00  0.00    -0.381 A  
HETATM   24  C   UNL     1     -12.248  13.971  65.510  1.00  0.00    -0.439 A  
HETATM   25  H   UNL     1     -13.407  12.840  64.300  1.00  0.00     0.000 HD 
HETATM   26  O   UNL     1     -13.047  12.911  65.176  1.00  0.00    -0.753 OA 
HETATM   27  C   UNL     1     -11.973  14.917  64.533  1.00  0.00    -0.420 A  
BRANCH  22  28
HETATM   28  O   UNL     1     -12.064  13.064  67.654  1.00  0.00    -0.325 OA 
HETATM   29  C   UNL     1     -12.285  13.418  69.014  1.00  0.00    -0.148 C  
ENDBRANCH  22  28
ENDBRANCH  19  20
ENDBRANCH  16  18
ENDBRANCH  15  16
ENDBRANCH  13  15
ENDBRANCH  12  13
ENDBRANCH   5  11
ENDBRANCH   2   3
TORSDOF 8
ENDMDL
MODEL      221
REMARK 921   NORMALIZED FREE ENERGY PREDICTED BY IDOCK:   -3.86 KCAL/MOL
REMARK 922        TOTAL FREE ENERGY PREDICTED BY IDOCK:   -7.21 KCAL/MOL
REMARK 923 INTER-LIGAND FREE ENERGY PREDICTED BY IDOCK:   -6.35 KCAL/MOL
REMARK 924 INTRA-LIGAND FREE ENERGY PREDICTED BY IDOCK:   -0.86 KCAL/MOL
REMARK 927      BINDING AFFINITY PREDICTED BY RF-SCORE:    0.00 PKD
ROOT
HETATM    1  C   UNL     1     -11.231  15.822  71.419  1.00  0.00    -0.284 C  
HETATM    2  O   UNL     1     -12.422  15.302  70.835  1.00  0.00    -0.326 OA 
ENDROOT
BRANCH   2   3
HETATM    3  C   UNL     1     -12.579  13.943  70.949  1.00  0.00    -0.361 A  
HETATM    4  C   UNL     1     -11.964  13.026  70.091  1.00  0.00    -0.374 A  
HETATM    5  C   UNL     1     -12.185  11.648  70.219  1.00  0.00    -0.401 A  
HETATM    6  C   UNL     1     -12.967  11.189  71.286  1.00  0.00    -0.457 A  
HETATM    7  H   UNL     1     -14.496  14.024  73.572  1.00  0.00     0.000 HD 
HETATM    8  O   UNL     1     -13.963  14.349  72.856  1.00  0.00    -0.564 OA 
HETATM    9  C   UNL     1     -13.554  12.092  72.178  1.00  0.00    -0.285 A  
HETATM   10  C   UNL     1     -13.364  13.463  72.002  1.00  0.00    -0.479 A  
BRANCH   5  11
HETATM   11  C   UNL     1     -11.590  10.684  69.282  1.00  0.00    -0.346 C  
HETATM   12  C   UNL     1     -11.221  11.000  68.029  1.00  0.00    -0.372 C  
BRANCH  12  13
HETATM   13  C   UNL     1     -10.643   9.968  67.121  1.00  0.00    -0.232 C  
HETATM   14  O   UNL     1     -10.760   8.767  67.363  1.00  0.00    -0.267 OA 
BRANCH  13  15
HETATM   15  C   UNL     1      -9.932  10.445  65.885  1.00  0.00    -0.317 C  
BRANCH  15  16
HETATM   16  C   UNL     1     -10.522  11.704  65.317  1.00  0.00    -0.273 C  
HETATM   17  O   UNL     1     -11.540  11.672  64.625  1.00  0.00    -0.239 OA 
BRANCH  16  18
HETATM   18  C   UNL     1      -9.858  12.994  65.669  1.00  0.00    -0.181 C  
HETATM   19  C   UNL     1      -9.046  13.052  66.736  1.00  0.00    -0.212 C  
BRANCH  19  20
HETATM   20  C   UNL     1      -8.289  14.237  67.171  1.00  0.00    -0.202 A  
HETATM   21  C   UNL     1      -7.947  14.466  68.516  1.00  0.00    -0.144 A  
HETATM   22  C   UNL     1      -7.312  15.652  68.898  1.00  0.00    -0.153 A  
HETATM   23  C   UNL     1      -7.981  15.219  66.215  1.00  0.00     0.658 A  
HETATM   24  C   UNL     1      -7.019  16.606  67.920  1.00  0.00    -0.144 A  
HETATM   25  H   UNL     1      -6.215  18.433  67.600  1.00  0.00     0.000 HD 
HETATM   26  O   UNL     1      -6.414  17.785  68.265  1.00  0.00    -0.182 OA 
HETATM   27  C   UNL     1      -7.341  16.401  66.586  1.00  0.00    -0.241 A  
BRANCH  22  28
HETATM   28  O   UNL     1      -6.949  15.995  70.174  1.00  0.00     0.092 OA 
HETATM   29  C   UNL     1      -5.745  15.428  70.674  1.00  0.00    -0.061 C  
ENDBRANCH  22  28
ENDBRANCH  19  20
ENDBRANCH  16  18
ENDBRANCH  15  16
ENDBRANCH  13  15
ENDBRANCH  12  13
ENDBRANCH   5  11
ENDBRANCH   2   3
TORSDOF 8
ENDMDL
MODEL      222
REMARK 921   NORMALIZED FREE ENERGY PREDICTED BY IDOCK:   -3.84 KCAL/MOL
REMARK 922        TOTAL FREE ENERGY PREDICTED BY IDOCK:   -7.18 KCAL/MOL
REMARK 923 INTER-LIGAND FREE ENERGY PREDICTED BY IDOCK:   -5.70 KCAL/MOL
REMARK 924 INTRA-LIGAND FREE ENERGY PREDICTED BY IDOCK:   -1.47 KCAL/MOL
REMARK 927      BINDING AFFINITY PREDICTED BY RF-SCORE:    0.00 PKD
ROOT
HETATM    1  C   UNL     1     -10.921   5.606  72.231  1.00  0.00    -0.258 C  
HETATM    2  O   UNL     1     -11.558   6.039  71.032  1.00  0.00    -0.253 OA 
ENDROOT
BRANCH   2   3
HETATM    3  C   UNL     1     -11.967   7.349  71.032  1.00  0.00    -0.306 A  
HETATM    4  C   UNL     1     -11.202   8.390  70.498  1.00  0.00    -0.252 A  
HETATM    5  C   UNL     1     -11.640   9.720  70.556  1.00  0.00    -0.365 A  
HETATM    6  C   UNL     1     -12.911   9.986  71.082  1.00  0.00    -0.480 A  
HETATM    7  H   UNL     1     -14.850   6.823  72.437  1.00  0.00     0.000 HD 
HETATM    8  O   UNL     1     -13.993   6.627  72.078  1.00  0.00    -0.146 OA 
HETATM    9  C   UNL     1     -13.706   8.949  71.581  1.00  0.00    -0.444 A  
HETATM   10  C   UNL     1     -13.229   7.639  71.561  1.00  0.00    -0.334 A  
BRANCH   5  11
HETATM   11  C   UNL     1     -10.813  10.825  70.051  1.00  0.00    -0.218 C  
HETATM   12  C   UNL     1     -11.266  11.757  69.194  1.00  0.00    -0.324 C  
BRANCH  12  13
HETATM   13  C   UNL     1     -10.369  12.840  68.701  1.00  0.00    -0.179 C  
HETATM   14  O   UNL     1     -10.693  14.026  68.787  1.00  0.00    -0.250 OA 
BRANCH  13  15
HETATM   15  C   UNL     1      -9.045  12.439  68.115  1.00  0.00    -0.200 C  
BRANCH  15  16
HETATM   16  C   UNL     1      -9.180  11.681  66.824  1.00  0.00    -0.186 C  
HETATM   17  O   UNL     1      -9.109  12.259  65.739  1.00  0.00    -0.057 OA 
BRANCH  16  18
HETATM   18  C   UNL     1      -9.347  10.201  66.911  1.00  0.00    -0.185 C  
HETATM   19  C   UNL     1      -8.494   9.479  67.653  1.00  0.00    -0.122 C  
BRANCH  19  20
HETATM   20  C   UNL     1      -8.568   8.025  67.871  1.00  0.00    -0.129 A  
HETATM   21  C   UNL     1      -8.915   7.123  66.848  1.00  0.00    -0.145 A  
HETATM   22  C   UNL     1      -9.069   5.760  67.121  1.00  0.00    -0.112 A  
HETATM   23  C   UNL     1      -8.379   7.535  69.173  1.00  0.00    -0.135 A  
HETATM   24  C   UNL     1      -8.870   5.307  68.428  1.00  0.00    -0.101 A  
HETATM   25  H   UNL     1      -8.896   3.674  69.620  1.00  0.00     0.000 HD 
HETATM   26  O   UNL     1      -9.031   3.982  68.731  1.00  0.00    -0.099 OA 
HETATM   27  C   UNL     1      -8.523   6.176  69.453  1.00  0.00    -0.120 A  
BRANCH  22  28
HETATM   28  O   UNL     1      -9.422   4.793  66.217  1.00  0.00    -0.137 OA 
HETATM   29  C   UNL     1     -10.771   4.796  65.767  1.00  0.00    -0.170 C  
ENDBRANCH  22  28
ENDBRANCH  19  20
ENDBRANCH  16  18
ENDBRANCH  15  16
ENDBRANCH  13  15
ENDBRANCH  12  13
ENDBRANCH   5  11
ENDBRANCH   2   3
TORSDOF 8
ENDMDL
MODEL      223
REMARK 921   NORMALIZED FREE ENERGY PREDICTED BY IDOCK:   -3.83 KCAL/MOL
REMARK 922        TOTAL FREE ENERGY PREDICTED BY IDOCK:   -7.16 KCAL/MOL
REMARK 923 INTER-LIGAND FREE ENERGY PREDICTED BY IDOCK:   -5.50 KCAL/MOL
REMARK 924 INTRA-LIGAND FREE ENERGY PREDICTED BY IDOCK:   -1.66 KCAL/MOL
REMARK 927      BINDING AFFINITY PREDICTED BY RF-SCORE:    0.00 PKD
ROOT
HETATM    1  C   UNL     1     -11.055  11.208  66.793  1.00  0.00    -0.214 C  
HETATM    2  O   UNL     1     -10.194  12.117  67.475  1.00  0.00    -0.196 OA 
ENDROOT
BRANCH   2   3
HETATM    3  C   UNL     1      -9.248  11.528  68.277  1.00  0.00    -0.186 A  
HETATM    4  C   UNL     1      -9.528  10.458  69.132  1.00  0.00    -0.220 A  
HETATM    5  C   UNL     1      -8.541   9.914  69.965  1.00  0.00    -0.196 A  
HETATM    6  C   UNL     1      -7.232  10.403  69.864  1.00  0.00    -0.157 A  
HETATM    7  H   UNL     1      -6.756  13.375  67.306  1.00  0.00     0.000 HD 
HETATM    8  O   UNL     1      -7.647  13.049  67.359  1.00  0.00    -0.154 OA 
HETATM    9  C   UNL     1      -6.928  11.446  68.982  1.00  0.00    -0.106 A  
HETATM   10  C   UNL     1      -7.937  12.008  68.200  1.00  0.00    -0.152 A  
BRANCH   5  11
HETATM   11  C   UNL     1      -8.843   8.829  70.909  1.00  0.00    -0.243 C  
HETATM   12  C   UNL     1      -9.926   8.820  71.705  1.00  0.00    -0.381 C  
BRANCH  12  13
HETATM   13  C   UNL     1     -10.164   7.699  72.658  1.00  0.00    -0.265 C  
HETATM   14  O   UNL     1      -9.917   7.818  73.859  1.00  0.00    -0.161 OA 
BRANCH  13  15
HETATM   15  C   UNL     1     -10.737   6.423  72.108  1.00  0.00    -0.259 C  
BRANCH  15  16
HETATM   16  C   UNL     1     -11.839   6.656  71.112  1.00  0.00    -0.360 C  
HETATM   17  O   UNL     1     -12.960   7.007  71.478  1.00  0.00    -0.382 OA 
BRANCH  16  18
HETATM   18  C   UNL     1     -11.502   6.497  69.667  1.00  0.00    -0.417 C  
HETATM   19  C   UNL     1     -10.265   6.118  69.311  1.00  0.00    -0.251 C  
BRANCH  19  20
HETATM   20  C   UNL     1      -9.808   5.874  67.933  1.00  0.00    -0.139 A  
HETATM   21  C   UNL     1      -9.139   6.850  67.173  1.00  0.00    -0.137 A  
HETATM   22  C   UNL     1      -8.809   6.609  65.835  1.00  0.00    -0.112 A  
HETATM   23  C   UNL     1     -10.141   4.651  67.328  1.00  0.00    -0.169 A  
HETATM   24  C   UNL     1      -9.153   5.380  65.266  1.00  0.00    -0.051 A  
HETATM   25  H   UNL     1      -9.094   4.285  63.567  1.00  0.00     0.000 HD 
HETATM   26  O   UNL     1      -8.861   5.121  63.954  1.00  0.00    -0.099 OA 
HETATM   27  C   UNL     1      -9.809   4.399  65.997  1.00  0.00    -0.241 A  
BRANCH  22  28
HETATM   28  O   UNL     1      -8.179   7.485  64.992  1.00  0.00    -0.134 OA 
HETATM   29  C   UNL     1      -8.126   8.846  65.402  1.00  0.00    -0.119 C  
ENDBRANCH  22  28
ENDBRANCH  19  20
ENDBRANCH  16  18
ENDBRANCH  15  16
ENDBRANCH  13  15
ENDBRANCH  12  13
ENDBRANCH   5  11
ENDBRANCH   2   3
TORSDOF 8
ENDMDL
MODEL      224
REMARK 921   NORMALIZED FREE ENERGY PREDICTED BY IDOCK:   -3.82 KCAL/MOL
REMARK 922        TOTAL FREE ENERGY PREDICTED BY IDOCK:   -7.15 KCAL/MOL
REMARK 923 INTER-LIGAND FREE ENERGY PREDICTED BY IDOCK:   -6.47 KCAL/MOL
REMARK 924 INTRA-LIGAND FREE ENERGY PREDICTED BY IDOCK:   -0.68 KCAL/MOL
REMARK 927      BINDING AFFINITY PREDICTED BY RF-SCORE:    0.00 PKD
ROOT
HETATM    1  C   UNL     1      -5.827   7.130  73.868  1.00  0.00    -0.057 C  
HETATM    2  O   UNL     1      -7.051   6.435  74.089  1.00  0.00    -0.085 OA 
ENDROOT
BRANCH   2   3
HETATM    3  C   UNL     1      -7.975   6.551  73.080  1.00  0.00    -0.103 A  
HETATM    4  C   UNL     1      -8.809   7.663  72.931  1.00  0.00    -0.211 A  
HETATM    5  C   UNL     1      -9.768   7.722  71.911  1.00  0.00    -0.216 A  
HETATM    6  C   UNL     1      -9.820   6.681  70.976  1.00  0.00    -0.196 A  
HETATM    7  H   UNL     1      -7.282   3.726  71.632  1.00  0.00     0.000 HD 
HETATM    8  O   UNL     1      -7.232   4.428  72.270  1.00  0.00    -0.059 OA 
HETATM    9  C   UNL     1      -8.962   5.582  71.088  1.00  0.00    -0.153 A  
HETATM   10  C   UNL     1      -8.050   5.518  72.142  1.00  0.00    -0.111 A  
BRANCH   5  11
HETATM   11  C   UNL     1     -10.689   8.862  71.786  1.00  0.00    -0.432 C  
HETATM   12  C   UNL     1     -11.908   8.770  71.228  1.00  0.00    -0.358 C  
BRANCH  12  13
HETATM   13  C   UNL     1     -12.786   9.970  71.110  1.00  0.00    -0.387 C  
HETATM   14  O   UNL     1     -14.010   9.877  71.206  1.00  0.00    -0.103 OA 
BRANCH  13  15
HETATM   15  C   UNL     1     -12.123  11.302  70.892  1.00  0.00    -0.406 C  
BRANCH  15  16
HETATM   16  C   UNL     1     -11.773  11.554  69.453  1.00  0.00    -0.346 C  
HETATM   17  O   UNL     1     -12.174  10.807  68.561  1.00  0.00    -0.470 OA 
BRANCH  16  18
HETATM   18  C   UNL     1     -10.968  12.773  69.147  1.00  0.00    -0.185 C  
HETATM   19  C   UNL     1     -11.423  13.661  68.249  1.00  0.00    -0.348 C  
BRANCH  19  20
HETATM   20  C   UNL     1     -10.763  14.927  67.888  1.00  0.00    -0.265 A  
HETATM   21  C   UNL     1      -9.531  14.971  67.211  1.00  0.00    -0.212 A  
HETATM   22  C   UNL     1      -8.891  16.192  66.973  1.00  0.00    -0.207 A  
HETATM   23  C   UNL     1     -11.343  16.130  68.322  1.00  0.00    -0.316 A  
HETATM   24  C   UNL     1      -9.499  17.370  67.417  1.00  0.00    -0.246 A  
HETATM   25  H   UNL     1      -9.303  19.380  67.517  1.00  0.00     0.000 HD 
HETATM   26  O   UNL     1      -8.890  18.579  67.216  1.00  0.00    -0.265 OA 
HETATM   27  C   UNL     1     -10.716  17.352  68.082  1.00  0.00    -0.343 A  
BRANCH  22  28
HETATM   28  O   UNL     1      -7.686  16.360  66.345  1.00  0.00    -0.277 OA 
HETATM   29  C   UNL     1      -6.523  16.005  67.081  1.00  0.00    -0.110 C  
ENDBRANCH  22  28
ENDBRANCH  19  20
ENDBRANCH  16  18
ENDBRANCH  15  16
ENDBRANCH  13  15
ENDBRANCH  12  13
ENDBRANCH   5  11
ENDBRANCH   2   3
TORSDOF 8
ENDMDL
MODEL      225
REMARK 921   NORMALIZED FREE ENERGY PREDICTED BY IDOCK:   -3.81 KCAL/MOL
REMARK 922        TOTAL FREE ENERGY PREDICTED BY IDOCK:   -7.14 KCAL/MOL
REMARK 923 INTER-LIGAND FREE ENERGY PREDICTED BY IDOCK:   -6.49 KCAL/MOL
REMARK 924 INTRA-LIGAND FREE ENERGY PREDICTED BY IDOCK:   -0.64 KCAL/MOL
REMARK 927      BINDING AFFINITY PREDICTED BY RF-SCORE:    0.00 PKD
ROOT
HETATM    1  C   UNL     1     -11.856  15.657  63.840  1.00  0.00     0.259 C  
HETATM    2  O   UNL     1     -11.239  16.793  64.438  1.00  0.00    -1.112 OA 
ENDROOT
BRANCH   2   3
HETATM    3  C   UNL     1     -10.588  16.545  65.621  1.00  0.00    -0.304 A  
HETATM    4  C   UNL     1     -10.329  15.256  66.097  1.00  0.00    -0.314 A  
HETATM    5  C   UNL     1      -9.699  15.049  67.331  1.00  0.00    -0.216 A  
HETATM    6  C   UNL     1      -9.244  16.162  68.049  1.00  0.00    -0.195 A  
HETATM    7  H   UNL     1     -10.063  19.656  66.400  1.00  0.00     0.000 HD 
HETATM    8  O   UNL     1     -10.371  18.910  65.899  1.00  0.00    -0.503 OA 
HETATM    9  C   UNL     1      -9.457  17.457  67.564  1.00  0.00    -0.250 A  
HETATM   10  C   UNL     1     -10.134  17.643  66.359  1.00  0.00    -0.356 A  
BRANCH   5  11
HETATM   11  C   UNL     1      -9.478  13.697  67.865  1.00  0.00    -0.213 C  
HETATM   12  C   UNL     1     -10.304  12.664  67.628  1.00  0.00    -0.221 C  
BRANCH  12  13
HETATM   13  C   UNL     1     -10.036  11.321  68.218  1.00  0.00    -0.188 C  
HETATM   14  O   UNL     1      -9.091  11.138  68.986  1.00  0.00    -0.134 OA 
BRANCH  13  15
HETATM   15  C   UNL     1     -10.974  10.201  67.863  1.00  0.00    -0.335 C  
BRANCH  15  16
HETATM   16  C   UNL     1     -10.312   9.111  67.068  1.00  0.00    -0.263 C  
HETATM   17  O   UNL     1     -10.211   9.190  65.844  1.00  0.00    -0.209 OA 
BRANCH  16  18
HETATM   18  C   UNL     1      -9.738   7.961  67.827  1.00  0.00    -0.189 C  
HETATM   19  C   UNL     1     -10.454   6.835  67.968  1.00  0.00    -0.253 C  
BRANCH  19  20
HETATM   20  C   UNL     1      -9.996   5.609  68.643  1.00  0.00    -0.213 A  
HETATM   21  C   UNL     1     -10.311   5.321  69.983  1.00  0.00    -0.365 A  
HETATM   22  C   UNL     1      -9.775   4.194  70.615  1.00  0.00    -0.203 A  
HETATM   23  C   UNL     1      -9.134   4.746  67.947  1.00  0.00    -0.133 A  
HETATM   24  C   UNL     1      -8.923   3.356  69.891  1.00  0.00    -0.106 A  
HETATM   25  H   UNL     1      -7.789   1.685  69.994  1.00  0.00     0.000 HD 
HETATM   26  O   UNL     1      -8.368   2.255  70.486  1.00  0.00    -0.048 OA 
HETATM   27  C   UNL     1      -8.602   3.616  68.567  1.00  0.00    -0.118 A  
BRANCH  22  28
HETATM   28  O   UNL     1      -9.992   3.821  71.915  1.00  0.00    -0.172 OA 
HETATM   29  C   UNL     1      -9.717   4.793  72.916  1.00  0.00    -0.139 C  
ENDBRANCH  22  28
ENDBRANCH  19  20
ENDBRANCH  16  18
ENDBRANCH  15  16
ENDBRANCH  13  15
ENDBRANCH  12  13
ENDBRANCH   5  11
ENDBRANCH   2   3
TORSDOF 8
ENDMDL
MODEL      226
REMARK 921   NORMALIZED FREE ENERGY PREDICTED BY IDOCK:   -3.80 KCAL/MOL
REMARK 922        TOTAL FREE ENERGY PREDICTED BY IDOCK:   -7.12 KCAL/MOL
REMARK 923 INTER-LIGAND FREE ENERGY PREDICTED BY IDOCK:   -6.11 KCAL/MOL
REMARK 924 INTRA-LIGAND FREE ENERGY PREDICTED BY IDOCK:   -1.01 KCAL/MOL
REMARK 927      BINDING AFFINITY PREDICTED BY RF-SCORE:    0.00 PKD
ROOT
HETATM    1  C   UNL     1     -12.117  10.980  69.990  1.00  0.00    -0.364 C  
HETATM    2  O   UNL     1     -13.102  11.874  70.502  1.00  0.00     0.148 OA 
ENDROOT
BRANCH   2   3
HETATM    3  C   UNL     1     -12.766  13.203  70.443  1.00  0.00    -0.010 A  
HETATM    4  C   UNL     1     -11.882  13.728  69.495  1.00  0.00    -0.394 A  
HETATM    5  C   UNL     1     -11.535  15.086  69.497  1.00  0.00    -0.317 A  
HETATM    6  C   UNL     1     -12.161  15.939  70.415  1.00  0.00    -0.292 A  
HETATM    7  H   UNL     1     -14.661  14.161  72.903  1.00  0.00     0.000 HD 
HETATM    8  O   UNL     1     -14.248  13.571  72.282  1.00  0.00    -0.539 OA 
HETATM    9  C   UNL     1     -13.081  15.435  71.341  1.00  0.00    -0.563 A  
HETATM   10  C   UNL     1     -13.372  14.071  71.356  1.00  0.00    -0.317 A  
BRANCH   5  11
HETATM   11  C   UNL     1     -10.560  15.632  68.542  1.00  0.00    -0.256 C  
HETATM   12  C   UNL     1     -10.876  15.996  67.287  1.00  0.00    -0.255 C  
BRANCH  12  13
HETATM   13  C   UNL     1      -9.835  16.522  66.359  1.00  0.00    -0.293 C  
HETATM   14  O   UNL     1      -9.433  15.854  65.406  1.00  0.00    -0.355 OA 
BRANCH  13  15
HETATM   15  C   UNL     1      -9.308  17.907  66.613  1.00  0.00    -0.293 C  
BRANCH  15  16
HETATM   16  C   UNL     1      -8.089  17.919  67.492  1.00  0.00    -0.225 C  
HETATM   17  O   UNL     1      -7.661  18.970  67.968  1.00  0.00    -0.259 OA 
BRANCH  16  18
HETATM   18  C   UNL     1      -7.456  16.604  67.805  1.00  0.00    -0.169 C  
HETATM   19  C   UNL     1      -7.200  16.278  69.082  1.00  0.00    -0.213 C  
BRANCH  19  20
HETATM   20  C   UNL     1      -6.629  15.001  69.540  1.00  0.00    -0.155 A  
HETATM   21  C   UNL     1      -7.017  13.761  69.000  1.00  0.00    -0.104 A  
HETATM   22  C   UNL     1      -6.522  12.566  69.531  1.00  0.00    -0.083 A  
HETATM   23  C   UNL     1      -5.734  15.020  70.622  1.00  0.00    -0.123 A  
HETATM   24  C   UNL     1      -5.631  12.623  70.606  1.00  0.00    -0.177 A  
HETATM   25  H   UNL     1      -4.536  11.509  71.891  1.00  0.00     0.000 HD 
HETATM   26  O   UNL     1      -5.142  11.471  71.160  1.00  0.00    -0.113 OA 
HETATM   27  C   UNL     1      -5.229  13.833  71.152  1.00  0.00    -0.158 A  
BRANCH  22  28
HETATM   28  O   UNL     1      -6.840  11.303  69.106  1.00  0.00    -0.089 OA 
HETATM   29  C   UNL     1      -8.206  11.056  68.794  1.00  0.00    -0.146 C  
ENDBRANCH  22  28
ENDBRANCH  19  20
ENDBRANCH  16  18
ENDBRANCH  15  16
ENDBRANCH  13  15
ENDBRANCH  12  13
ENDBRANCH   5  11
ENDBRANCH   2   3
TORSDOF 8
ENDMDL
MODEL      227
REMARK 921   NORMALIZED FREE ENERGY PREDICTED BY IDOCK:   -3.79 KCAL/MOL
REMARK 922        TOTAL FREE ENERGY PREDICTED BY IDOCK:   -7.11 KCAL/MOL
REMARK 923 INTER-LIGAND FREE ENERGY PREDICTED BY IDOCK:   -6.58 KCAL/MOL
REMARK 924 INTRA-LIGAND FREE ENERGY PREDICTED BY IDOCK:   -0.53 KCAL/MOL
REMARK 927      BINDING AFFINITY PREDICTED BY RF-SCORE:    0.00 PKD
ROOT
HETATM    1  C   UNL     1     -10.409   7.151  73.280  1.00  0.00    -0.327 C  
HETATM    2  O   UNL     1     -11.657   7.692  72.854  1.00  0.00    -0.325 OA 
ENDROOT
BRANCH   2   3
HETATM    3  C   UNL     1     -11.569   8.681  71.907  1.00  0.00    -0.350 A  
HETATM    4  C   UNL     1     -10.451   8.857  71.086  1.00  0.00    -0.336 A  
HETATM    5  C   UNL     1     -10.386   9.907  70.160  1.00  0.00    -0.336 A  
HETATM    6  C   UNL     1     -11.506  10.734  70.002  1.00  0.00    -0.412 A  
HETATM    7  H   UNL     1     -14.526   9.929  72.417  1.00  0.00     0.000 HD 
HETATM    8  O   UNL     1     -13.776   9.356  72.530  1.00  0.00    -0.448 OA 
HETATM    9  C   UNL     1     -12.648  10.543  70.787  1.00  0.00    -0.474 A  
HETATM   10  C   UNL     1     -12.671   9.524  71.740  1.00  0.00    -0.404 A  
BRANCH   5  11
HETATM   11  C   UNL     1      -9.190  10.134  69.336  1.00  0.00    -0.229 C  
HETATM   12  C   UNL     1      -8.972   9.517  68.162  1.00  0.00    -0.123 C  
BRANCH  12  13
HETATM   13  C   UNL     1      -7.726   9.774  67.385  1.00  0.00    -0.095 C  
HETATM   14  O   UNL     1      -6.616   9.525  67.856  1.00  0.00    -0.061 OA 
BRANCH  13  15
HETATM   15  C   UNL     1      -7.871  10.327  65.994  1.00  0.00    -0.133 C  
BRANCH  15  16
HETATM   16  C   UNL     1      -9.066  11.227  65.842  1.00  0.00    -0.204 C  
HETATM   17  O   UNL     1     -10.192  10.761  65.666  1.00  0.00    -0.249 OA 
BRANCH  16  18
HETATM   18  C   UNL     1      -8.839  12.696  65.968  1.00  0.00     0.304 C  
HETATM   19  C   UNL     1      -9.484  13.388  66.920  1.00  0.00    -0.253 C  
BRANCH  19  20
HETATM   20  C   UNL     1      -9.320  14.826  67.192  1.00  0.00    -0.233 A  
HETATM   21  C   UNL     1      -8.383  15.318  68.118  1.00  0.00    -0.149 A  
HETATM   22  C   UNL     1      -8.326  16.684  68.418  1.00  0.00    -0.208 A  
HETATM   23  C   UNL     1     -10.199  15.727  66.571  1.00  0.00    -0.294 A  
HETATM   24  C   UNL     1      -9.215  17.552  67.779  1.00  0.00    -0.253 A  
HETATM   25  H   UNL     1      -9.801  19.481  67.629  1.00  0.00     0.000 HD 
HETATM   26  O   UNL     1      -9.197  18.891  68.064  1.00  0.00    -0.292 OA 
HETATM   27  C   UNL     1     -10.144  17.091  66.858  1.00  0.00    -0.298 A  
BRANCH  22  28
HETATM   28  O   UNL     1      -7.475  17.276  69.313  1.00  0.00    -0.180 OA 
HETATM   29  C   UNL     1      -6.391  18.021  68.772  1.00  0.00    -0.219 C  
ENDBRANCH  22  28
ENDBRANCH  19  20
ENDBRANCH  16  18
ENDBRANCH  15  16
ENDBRANCH  13  15
ENDBRANCH  12  13
ENDBRANCH   5  11
ENDBRANCH   2   3
TORSDOF 8
ENDMDL
MODEL      228
REMARK 921   NORMALIZED FREE ENERGY PREDICTED BY IDOCK:   -3.79 KCAL/MOL
REMARK 922        TOTAL FREE ENERGY PREDICTED BY IDOCK:   -7.11 KCAL/MOL
REMARK 923 INTER-LIGAND FREE ENERGY PREDICTED BY IDOCK:   -6.54 KCAL/MOL
REMARK 924 INTRA-LIGAND FREE ENERGY PREDICTED BY IDOCK:   -0.57 KCAL/MOL
REMARK 927      BINDING AFFINITY PREDICTED BY RF-SCORE:    0.00 PKD
ROOT
HETATM    1  C   UNL     1     -10.781   5.841  66.915  1.00  0.00    -0.305 C  
HETATM    2  O   UNL     1      -9.370   5.640  66.889  1.00  0.00    -0.120 OA 
ENDROOT
BRANCH   2   3
HETATM    3  C   UNL     1      -8.620   6.790  66.887  1.00  0.00    -0.116 A  
HETATM    4  C   UNL     1      -9.181   8.070  66.938  1.00  0.00    -0.191 A  
HETATM    5  C   UNL     1      -8.379   9.218  66.891  1.00  0.00    -0.123 A  
HETATM    6  C   UNL     1      -6.987   9.066  66.884  1.00  0.00    -0.078 A  
HETATM    7  H   UNL     1      -5.720   5.325  66.820  1.00  0.00     0.000 HD 
HETATM    8  O   UNL     1      -6.666   5.413  66.831  1.00  0.00    -0.058 OA 
HETATM    9  C   UNL     1      -6.411   7.791  66.877  1.00  0.00    -0.054 A  
HETATM   10  C   UNL     1      -7.228   6.661  66.870  1.00  0.00    -0.077 A  
BRANCH   5  11
HETATM   11  C   UNL     1      -8.966  10.566  66.884  1.00  0.00    -0.151 C  
HETATM   12  C   UNL     1      -8.381  11.624  66.296  1.00  0.00    -0.027 C  
BRANCH  12  13
HETATM   13  C   UNL     1      -9.017  12.972  66.344  1.00  0.00     0.011 C  
HETATM   14  O   UNL     1      -8.480  13.911  66.932  1.00  0.00    -0.174 OA 
BRANCH  13  15
HETATM   15  C   UNL     1     -10.328  13.151  65.630  1.00  0.00    -0.291 C  
BRANCH  15  16
HETATM   16  C   UNL     1     -10.927  14.515  65.836  1.00  0.00    -0.320 C  
HETATM   17  O   UNL     1     -10.994  15.324  64.911  1.00  0.00    -0.408 OA 
BRANCH  16  18
HETATM   18  C   UNL     1     -11.482  14.823  67.186  1.00  0.00    -0.375 C  
HETATM   19  C   UNL     1     -11.706  13.825  68.055  1.00  0.00    -0.390 C  
BRANCH  19  20
HETATM   20  C   UNL     1     -12.200  13.986  69.433  1.00  0.00    -0.336 A  
HETATM   21  C   UNL     1     -12.526  12.891  70.253  1.00  0.00    -0.198 A  
HETATM   22  C   UNL     1     -13.084  13.090  71.520  1.00  0.00    -0.310 A  
HETATM   23  C   UNL     1     -12.443  15.286  69.907  1.00  0.00    -0.275 A  
HETATM   24  C   UNL     1     -13.310  14.397  71.960  1.00  0.00    -0.384 A  
HETATM   25  H   UNL     1     -14.024  15.513  73.487  1.00  0.00     0.000 HD 
HETATM   26  O   UNL     1     -13.871  14.625  73.188  1.00  0.00    -0.464 OA 
HETATM   27  C   UNL     1     -12.991  15.494  71.172  1.00  0.00    -0.560 A  
BRANCH  22  28
HETATM   28  O   UNL     1     -13.460  12.107  72.397  1.00  0.00    -0.425 OA 
HETATM   29  C   UNL     1     -13.324  10.763  71.952  1.00  0.00    -0.340 C  
ENDBRANCH  22  28
ENDBRANCH  19  20
ENDBRANCH  16  18
ENDBRANCH  15  16
ENDBRANCH  13  15
ENDBRANCH  12  13
ENDBRANCH   5  11
ENDBRANCH   2   3
TORSDOF 8
ENDMDL
MODEL      229
REMARK 921   NORMALIZED FREE ENERGY PREDICTED BY IDOCK:   -3.77 KCAL/MOL
REMARK 922        TOTAL FREE ENERGY PREDICTED BY IDOCK:   -7.08 KCAL/MOL
REMARK 923 INTER-LIGAND FREE ENERGY PREDICTED BY IDOCK:   -6.22 KCAL/MOL
REMARK 924 INTRA-LIGAND FREE ENERGY PREDICTED BY IDOCK:   -0.86 KCAL/MOL
REMARK 927      BINDING AFFINITY PREDICTED BY RF-SCORE:    0.00 PKD
ROOT
HETATM    1  C   UNL     1      -9.567  10.605  63.533  1.00  0.00    -0.323 C  
HETATM    2  O   UNL     1      -8.545   9.617  63.431  1.00  0.00    -0.178 OA 
ENDROOT
BRANCH   2   3
HETATM    3  C   UNL     1      -8.526   8.694  64.447  1.00  0.00    -0.095 A  
HETATM    4  C   UNL     1      -9.202   8.875  65.658  1.00  0.00    -0.268 A  
HETATM    5  C   UNL     1      -9.121   7.925  66.685  1.00  0.00    -0.199 A  
HETATM    6  C   UNL     1      -8.420   6.736  66.448  1.00  0.00    -0.126 A  
HETATM    7  H   UNL     1      -6.689   6.501  62.906  1.00  0.00     0.000 HD 
HETATM    8  O   UNL     1      -7.166   7.310  63.050  1.00  0.00    -0.068 OA 
HETATM    9  C   UNL     1      -7.774   6.523  65.226  1.00  0.00    -0.102 A  
HETATM   10  C   UNL     1      -7.823   7.504  64.235  1.00  0.00    -0.133 A  
BRANCH   5  11
HETATM   11  C   UNL     1      -9.779   8.137  67.982  1.00  0.00    -0.186 C  
HETATM   12  C   UNL     1      -9.498   9.169  68.796  1.00  0.00    -0.147 C  
BRANCH  12  13
HETATM   13  C   UNL     1     -10.186   9.315  70.110  1.00  0.00    -0.215 C  
HETATM   14  O   UNL     1     -10.122   8.432  70.966  1.00  0.00    -0.186 OA 
BRANCH  13  15
HETATM   15  C   UNL     1     -10.943  10.589  70.366  1.00  0.00    -0.252 C  
BRANCH  15  16
HETATM   16  C   UNL     1     -11.635  11.116  69.140  1.00  0.00    -0.324 C  
HETATM   17  O   UNL     1     -12.680  10.608  68.734  1.00  0.00     0.058 OA 
BRANCH  16  18
HETATM   18  C   UNL     1     -11.035  12.308  68.472  1.00  0.00    -0.275 C  
HETATM   19  C   UNL     1     -11.824  13.156  67.795  1.00  0.00    -0.392 C  
BRANCH  19  20
HETATM   20  C   UNL     1     -11.379  14.394  67.133  1.00  0.00    -0.356 A  
HETATM   21  C   UNL     1     -10.961  15.528  67.852  1.00  0.00    -0.316 A  
HETATM   22  C   UNL     1     -10.639  16.716  67.186  1.00  0.00    -0.264 A  
HETATM   23  C   UNL     1     -11.469  14.471  65.734  1.00  0.00    -0.342 A  
HETATM   24  C   UNL     1     -10.737  16.756  65.793  1.00  0.00    -0.180 A  
HETATM   25  H   UNL     1     -10.514  17.936  64.166  1.00  0.00     0.000 HD 
HETATM   26  O   UNL     1     -10.447  17.908  65.113  1.00  0.00    -0.431 OA 
HETATM   27  C   UNL     1     -11.143  15.649  65.061  1.00  0.00    -0.399 A  
BRANCH  22  28
HETATM   28  O   UNL     1     -10.240  17.886  67.776  1.00  0.00    -0.332 OA 
HETATM   29  C   UNL     1     -10.186  17.903  69.197  1.00  0.00    -0.185 C  
ENDBRANCH  22  28
ENDBRANCH  19  20
ENDBRANCH  16  18
ENDBRANCH  15  16
ENDBRANCH  13  15
ENDBRANCH  12  13
ENDBRANCH   5  11
ENDBRANCH   2   3
TORSDOF 8
ENDMDL
MODEL      230
REMARK 921   NORMALIZED FREE ENERGY PREDICTED BY IDOCK:   -3.75 KCAL/MOL
REMARK 922        TOTAL FREE ENERGY PREDICTED BY IDOCK:   -7.05 KCAL/MOL
REMARK 923 INTER-LIGAND FREE ENERGY PREDICTED BY IDOCK:   -6.27 KCAL/MOL
REMARK 924 INTRA-LIGAND FREE ENERGY PREDICTED BY IDOCK:   -0.78 KCAL/MOL
REMARK 927      BINDING AFFINITY PREDICTED BY RF-SCORE:    0.00 PKD
ROOT
HETATM    1  C   UNL     1     -11.225  15.820  71.420  1.00  0.00    -0.284 C  
HETATM    2  O   UNL     1     -12.415  15.283  70.849  1.00  0.00    -0.326 OA 
ENDROOT
BRANCH   2   3
HETATM    3  C   UNL     1     -12.565  13.925  70.990  1.00  0.00    -0.371 A  
HETATM    4  C   UNL     1     -11.943  12.995  70.152  1.00  0.00    -0.374 A  
HETATM    5  C   UNL     1     -12.157  11.619  70.306  1.00  0.00    -0.443 A  
HETATM    6  C   UNL     1     -12.938  11.176  71.380  1.00  0.00    -0.506 A  
HETATM    7  H   UNL     1     -14.487  14.048  73.607  1.00  0.00     0.000 HD 
HETATM    8  O   UNL     1     -13.954  14.362  72.886  1.00  0.00    -0.564 OA 
HETATM    9  C   UNL     1     -13.532  12.094  72.254  1.00  0.00    -0.298 A  
HETATM   10  C   UNL     1     -13.349  13.462  72.051  1.00  0.00    -0.479 A  
BRANCH   5  11
HETATM   11  C   UNL     1     -11.555  10.639  69.390  1.00  0.00    -0.352 C  
HETATM   12  C   UNL     1     -11.180  10.934  68.133  1.00  0.00    -0.363 C  
BRANCH  12  13
HETATM   13  C   UNL     1     -10.596   9.888  67.246  1.00  0.00    -0.252 C  
HETATM   14  O   UNL     1     -10.711   8.690  67.509  1.00  0.00    -0.249 OA 
BRANCH  13  15
HETATM   15  C   UNL     1      -9.879  10.344  66.006  1.00  0.00    -0.289 C  
BRANCH  15  16
HETATM   16  C   UNL     1      -8.386  10.380  66.171  1.00  0.00    -0.149 C  
HETATM   17  O   UNL     1      -7.835  11.310  66.759  1.00  0.00    -0.145 OA 
BRANCH  16  18
HETATM   18  C   UNL     1      -7.609   9.220  65.642  1.00  0.00    -0.094 C  
HETATM   19  C   UNL     1      -8.249   8.230  65.001  1.00  0.00    -0.160 C  
BRANCH  19  20
HETATM   20  C   UNL     1      -7.608   7.056  64.385  1.00  0.00    -0.108 A  
HETATM   21  C   UNL     1      -8.258   5.814  64.267  1.00  0.00    -0.106 A  
HETATM   22  C   UNL     1      -7.580   4.699  63.765  1.00  0.00    -0.064 A  
HETATM   23  C   UNL     1      -6.265   7.160  63.989  1.00  0.00    -0.044 A  
HETATM   24  C   UNL     1      -6.244   4.839  63.378  1.00  0.00    -0.022 A  
HETATM   25  H   UNL     1      -4.640   3.859  62.636  1.00  0.00     0.000 HD 
HETATM   26  O   UNL     1      -5.547   3.763  62.899  1.00  0.00    -0.012 OA 
HETATM   27  C   UNL     1      -5.583   6.055  63.479  1.00  0.00    -0.018 A  
BRANCH  22  28
HETATM   28  O   UNL     1      -8.098   3.439  63.622  1.00  0.00    -0.083 OA 
HETATM   29  C   UNL     1      -9.515   3.325  63.604  1.00  0.00    -0.116 C  
ENDBRANCH  22  28
ENDBRANCH  19  20
ENDBRANCH  16  18
ENDBRANCH  15  16
ENDBRANCH  13  15
ENDBRANCH  12  13
ENDBRANCH   5  11
ENDBRANCH   2   3
TORSDOF 8
ENDMDL
MODEL      231
REMARK 921   NORMALIZED FREE ENERGY PREDICTED BY IDOCK:   -3.75 KCAL/MOL
REMARK 922        TOTAL FREE ENERGY PREDICTED BY IDOCK:   -7.05 KCAL/MOL
REMARK 923 INTER-LIGAND FREE ENERGY PREDICTED BY IDOCK:   -5.73 KCAL/MOL
REMARK 924 INTRA-LIGAND FREE ENERGY PREDICTED BY IDOCK:   -1.32 KCAL/MOL
REMARK 927      BINDING AFFINITY PREDICTED BY RF-SCORE:    0.00 PKD
ROOT
HETATM    1  C   UNL     1     -10.435   6.125  69.461  1.00  0.00    -0.254 C  
HETATM    2  O   UNL     1     -10.089   7.388  70.023  1.00  0.00    -0.187 OA 
ENDROOT
BRANCH   2   3
HETATM    3  C   UNL     1      -9.456   8.252  69.164  1.00  0.00    -0.155 A  
HETATM    4  C   UNL     1     -10.130   8.993  68.188  1.00  0.00    -0.229 A  
HETATM    5  C   UNL     1      -9.438   9.832  67.305  1.00  0.00    -0.183 A  
HETATM    6  C   UNL     1      -8.057   9.992  67.471  1.00  0.00    -0.110 A  
HETATM    7  H   UNL     1      -6.466   7.822  70.363  1.00  0.00     0.000 HD 
HETATM    8  O   UNL     1      -7.404   7.709  70.266  1.00  0.00    -0.069 OA 
HETATM    9  C   UNL     1      -7.376   9.290  68.472  1.00  0.00    -0.076 A  
HETATM   10  C   UNL     1      -8.075   8.419  69.307  1.00  0.00    -0.115 A  
BRANCH   5  11
HETATM   11  C   UNL     1     -10.134  10.566  66.238  1.00  0.00    -0.290 C  
HETATM   12  C   UNL     1      -9.828  10.446  64.935  1.00  0.00    -0.400 C  
BRANCH  12  13
HETATM   13  C   UNL     1     -10.557  11.236  63.903  1.00  0.00    -0.391 C  
HETATM   14  O   UNL     1     -10.079  11.418  62.782  1.00  0.00    -0.226 OA 
BRANCH  13  15
HETATM   15  C   UNL     1     -11.907  11.787  64.269  1.00  0.00    -0.307 C  
BRANCH  15  16
HETATM   16  C   UNL     1     -11.939  13.289  64.302  1.00  0.00    -0.421 C  
HETATM   17  O   UNL     1     -12.462  13.932  63.392  1.00  0.00    -0.833 OA 
BRANCH  16  18
HETATM   18  C   UNL     1     -11.363  13.961  65.504  1.00  0.00    -0.310 C  
HETATM   19  C   UNL     1     -10.130  14.486  65.442  1.00  0.00    -0.394 C  
BRANCH  19  20
HETATM   20  C   UNL     1      -9.458  15.219  66.528  1.00  0.00    -0.308 A  
HETATM   21  C   UNL     1      -8.076  15.115  66.770  1.00  0.00    -0.113 A  
HETATM   22  C   UNL     1      -7.495  15.751  67.871  1.00  0.00    -0.134 A  
HETATM   23  C   UNL     1     -10.247  15.974  67.411  1.00  0.00    -0.273 A  
HETATM   24  C   UNL     1      -8.310  16.497  68.727  1.00  0.00    -0.248 A  
HETATM   25  H   UNL     1      -8.328  17.624  70.406  1.00  0.00     0.000 HD 
HETATM   26  O   UNL     1      -7.774  17.117  69.824  1.00  0.00     0.425 OA 
HETATM   27  C   UNL     1      -9.674  16.619  68.507  1.00  0.00    -0.244 A  
BRANCH  22  28
HETATM   28  O   UNL     1      -6.171  15.707  68.220  1.00  0.00    -0.103 OA 
HETATM   29  C   UNL     1      -5.226  15.953  67.186  1.00  0.00     0.215 C  
ENDBRANCH  22  28
ENDBRANCH  19  20
ENDBRANCH  16  18
ENDBRANCH  15  16
ENDBRANCH  13  15
ENDBRANCH  12  13
ENDBRANCH   5  11
ENDBRANCH   2   3
TORSDOF 8
ENDMDL
MODEL      232
REMARK 921   NORMALIZED FREE ENERGY PREDICTED BY IDOCK:   -3.74 KCAL/MOL
REMARK 922        TOTAL FREE ENERGY PREDICTED BY IDOCK:   -7.03 KCAL/MOL
REMARK 923 INTER-LIGAND FREE ENERGY PREDICTED BY IDOCK:   -5.96 KCAL/MOL
REMARK 924 INTRA-LIGAND FREE ENERGY PREDICTED BY IDOCK:   -1.07 KCAL/MOL
REMARK 927      BINDING AFFINITY PREDICTED BY RF-SCORE:    0.00 PKD
ROOT
HETATM    1  C   UNL     1     -13.168  11.101  71.808  1.00  0.00    -0.381 C  
HETATM    2  O   UNL     1     -13.131   9.676  71.784  1.00  0.00    -0.361 OA 
ENDROOT
BRANCH   2   3
HETATM    3  C   UNL     1     -12.000   9.135  71.224  1.00  0.00    -0.325 A  
HETATM    4  C   UNL     1     -11.435   9.604  70.035  1.00  0.00    -0.191 A  
HETATM    5  C   UNL     1     -10.303   8.994  69.477  1.00  0.00    -0.211 A  
HETATM    6  C   UNL     1      -9.683   7.954  70.181  1.00  0.00    -0.179 A  
HETATM    7  H   UNL     1     -11.482   6.916  73.542  1.00  0.00     0.000 HD 
HETATM    8  O   UNL     1     -11.909   7.627  73.078  1.00  0.00    -0.168 OA 
HETATM    9  C   UNL     1     -10.213   7.503  71.395  1.00  0.00    -0.201 A  
HETATM   10  C   UNL     1     -11.372   8.089  71.906  1.00  0.00    -0.283 A  
BRANCH   5  11
HETATM   11  C   UNL     1      -9.739   9.444  68.196  1.00  0.00    -0.164 C  
HETATM   12  C   UNL     1     -10.072   8.904  67.011  1.00  0.00    -0.331 C  
BRANCH  12  13
HETATM   13  C   UNL     1      -9.446   9.391  65.748  1.00  0.00    -0.259 C  
HETATM   14  O   UNL     1      -8.270   9.143  65.481  1.00  0.00    -0.113 OA 
BRANCH  13  15
HETATM   15  C   UNL     1     -10.307  10.178  64.799  1.00  0.00     0.051 C  
BRANCH  15  16
HETATM   16  C   UNL     1      -9.569  11.303  64.131  1.00  0.00    -0.225 C  
HETATM   17  O   UNL     1      -9.309  11.266  62.929  1.00  0.00    -0.333 OA 
BRANCH  16  18
HETATM   18  C   UNL     1      -9.213  12.485  64.971  1.00  0.00     0.554 C  
HETATM   19  C   UNL     1     -10.189  13.233  65.510  1.00  0.00    -0.298 C  
BRANCH  19  20
HETATM   20  C   UNL     1      -9.987  14.391  66.396  1.00  0.00    -0.305 A  
HETATM   21  C   UNL     1     -10.725  14.576  67.579  1.00  0.00    -0.276 A  
HETATM   22  C   UNL     1     -10.571  15.739  68.342  1.00  0.00    -0.264 A  
HETATM   23  C   UNL     1      -9.090  15.393  65.991  1.00  0.00    -0.284 A  
HETATM   24  C   UNL     1      -9.668  16.714  67.910  1.00  0.00    -0.244 A  
HETATM   25  H   UNL     1      -8.893  18.533  68.331  1.00  0.00     0.000 HD 
HETATM   26  O   UNL     1      -9.507  17.870  68.624  1.00  0.00    -0.299 OA 
HETATM   27  C   UNL     1      -8.924  16.552  66.750  1.00  0.00    -0.261 A  
BRANCH  22  28
HETATM   28  O   UNL     1     -11.245  16.039  69.495  1.00  0.00    -0.305 OA 
HETATM   29  C   UNL     1     -11.726  14.943  70.263  1.00  0.00    -0.303 C  
ENDBRANCH  22  28
ENDBRANCH  19  20
ENDBRANCH  16  18
ENDBRANCH  15  16
ENDBRANCH  13  15
ENDBRANCH  12  13
ENDBRANCH   5  11
ENDBRANCH   2   3
TORSDOF 8
ENDMDL
MODEL      233
REMARK 921   NORMALIZED FREE ENERGY PREDICTED BY IDOCK:   -3.73 KCAL/MOL
REMARK 922        TOTAL FREE ENERGY PREDICTED BY IDOCK:   -7.02 KCAL/MOL
REMARK 923 INTER-LIGAND FREE ENERGY PREDICTED BY IDOCK:   -5.76 KCAL/MOL
REMARK 924 INTRA-LIGAND FREE ENERGY PREDICTED BY IDOCK:   -1.26 KCAL/MOL
REMARK 927      BINDING AFFINITY PREDICTED BY RF-SCORE:    0.00 PKD
ROOT
HETATM    1  C   UNL     1     -12.004  11.571  70.782  1.00  0.00    -0.214 C  
HETATM    2  O   UNL     1     -12.615  10.570  71.592  1.00  0.00    -0.394 OA 
ENDROOT
BRANCH   2   3
HETATM    3  C   UNL     1     -12.282   9.278  71.269  1.00  0.00    -0.334 A  
HETATM    4  C   UNL     1     -11.110   8.938  70.587  1.00  0.00    -0.306 A  
HETATM    5  C   UNL     1     -10.829   7.609  70.240  1.00  0.00    -0.253 A  
HETATM    6  C   UNL     1     -11.704   6.603  70.670  1.00  0.00    -0.452 A  
HETATM    7  H   UNL     1     -14.880   7.885  72.638  1.00  0.00     0.000 HD 
HETATM    8  O   UNL     1     -14.292   8.578  72.358  1.00  0.00    -0.432 OA 
HETATM    9  C   UNL     1     -12.859   6.925  71.391  1.00  0.00    -0.365 A  
HETATM   10  C   UNL     1     -13.146   8.259  71.680  1.00  0.00    -0.334 A  
BRANCH   5  11
HETATM   11  C   UNL     1      -9.629   7.252  69.470  1.00  0.00    -0.155 C  
HETATM   12  C   UNL     1      -9.664   6.536  68.334  1.00  0.00    -0.132 C  
BRANCH  12  13
HETATM   13  C   UNL     1      -8.407   6.187  67.612  1.00  0.00    -0.112 C  
HETATM   14  O   UNL     1      -7.470   5.637  68.191  1.00  0.00    -0.072 OA 
BRANCH  13  15
HETATM   15  C   UNL     1      -8.330   6.511  66.146  1.00  0.00    -0.129 C  
BRANCH  15  16
HETATM   16  C   UNL     1      -7.433   7.679  65.849  1.00  0.00    -0.082 C  
HETATM   17  O   UNL     1      -6.231   7.518  65.638  1.00  0.00    -0.038 OA 
BRANCH  16  18
HETATM   18  C   UNL     1      -8.067   9.028  65.766  1.00  0.00    -0.109 C  
HETATM   19  C   UNL     1      -7.971   9.870  66.806  1.00  0.00    -0.116 C  
BRANCH  19  20
HETATM   20  C   UNL     1      -8.500  11.244  66.845  1.00  0.00    -0.152 A  
HETATM   21  C   UNL     1      -7.853  12.285  67.534  1.00  0.00    -0.166 A  
HETATM   22  C   UNL     1      -8.440  13.551  67.628  1.00  0.00    -0.184 A  
HETATM   23  C   UNL     1      -9.748  11.495  66.251  1.00  0.00    -0.240 A  
HETATM   24  C   UNL     1      -9.680  13.766  67.022  1.00  0.00    -0.251 A  
HETATM   25  H   UNL     1     -11.133  15.135  66.698  1.00  0.00     0.000 HD 
HETATM   26  O   UNL     1     -10.290  14.989  67.110  1.00  0.00    -0.252 OA 
HETATM   27  C   UNL     1     -10.336  12.757  66.332  1.00  0.00    -0.271 A  
BRANCH  22  28
HETATM   28  O   UNL     1      -7.918  14.634  68.285  1.00  0.00    -0.120 OA 
HETATM   29  C   UNL     1      -6.615  14.483  68.837  1.00  0.00    -0.095 C  
ENDBRANCH  22  28
ENDBRANCH  19  20
ENDBRANCH  16  18
ENDBRANCH  15  16
ENDBRANCH  13  15
ENDBRANCH  12  13
ENDBRANCH   5  11
ENDBRANCH   2   3
TORSDOF 8
ENDMDL
MODEL      234
REMARK 921   NORMALIZED FREE ENERGY PREDICTED BY IDOCK:   -3.71 KCAL/MOL
REMARK 922        TOTAL FREE ENERGY PREDICTED BY IDOCK:   -7.00 KCAL/MOL
REMARK 923 INTER-LIGAND FREE ENERGY PREDICTED BY IDOCK:   -7.22 KCAL/MOL
REMARK 924 INTRA-LIGAND FREE ENERGY PREDICTED BY IDOCK:    0.23 KCAL/MOL
REMARK 927      BINDING AFFINITY PREDICTED BY RF-SCORE:    0.00 PKD
ROOT
HETATM    1  C   UNL     1     -12.182  14.584  64.205  1.00  0.00    -0.415 C  
HETATM    2  O   UNL     1     -11.877  13.195  64.114  1.00  0.00    -0.381 OA 
ENDROOT
BRANCH   2   3
HETATM    3  C   UNL     1     -11.394  12.630  65.268  1.00  0.00    -0.315 A  
HETATM    4  C   UNL     1     -10.910  11.319  65.334  1.00  0.00    -0.255 A  
HETATM    5  C   UNL     1     -10.464  10.768  66.543  1.00  0.00    -0.299 A  
HETATM    6  C   UNL     1     -10.423  11.585  67.679  1.00  0.00    -0.218 A  
HETATM    7  H   UNL     1     -11.786  15.254  67.144  1.00  0.00     0.000 HD 
HETATM    8  O   UNL     1     -11.813  14.713  66.363  1.00  0.00    -0.365 OA 
HETATM    9  C   UNL     1     -10.863  12.912  67.618  1.00  0.00    -0.252 A  
HETATM   10  C   UNL     1     -11.353  13.425  66.417  1.00  0.00    -0.313 A  
BRANCH   5  11
HETATM   11  C   UNL     1     -10.012   9.372  66.631  1.00  0.00    -0.326 C  
HETATM   12  C   UNL     1      -8.720   9.007  66.564  1.00  0.00    -0.144 C  
BRANCH  12  13
HETATM   13  C   UNL     1      -8.328   7.571  66.638  1.00  0.00    -0.127 C  
HETATM   14  O   UNL     1      -8.987   6.699  66.070  1.00  0.00    -0.154 OA 
BRANCH  13  15
HETATM   15  C   UNL     1      -7.086   7.224  67.410  1.00  0.00    -0.088 C  
BRANCH  15  16
HETATM   16  C   UNL     1      -7.177   7.591  68.865  1.00  0.00    -0.082 C  
HETATM   17  O   UNL     1      -6.178   7.934  69.496  1.00  0.00    -0.033 OA 
BRANCH  16  18
HETATM   18  C   UNL     1      -8.532   7.575  69.492  1.00  0.00    -0.132 C  
HETATM   19  C   UNL     1      -8.945   8.634  70.205  1.00  0.00    -0.157 C  
BRANCH  19  20
HETATM   20  C   UNL     1     -10.269   8.777  70.834  1.00  0.00    -0.284 A  
HETATM   21  C   UNL     1     -11.039   9.948  70.718  1.00  0.00    -0.417 A  
HETATM   22  C   UNL     1     -12.247  10.078  71.412  1.00  0.00    -0.416 A  
HETATM   23  C   UNL     1     -10.730   7.738  71.659  1.00  0.00    -0.257 A  
HETATM   24  C   UNL     1     -12.677   9.024  72.221  1.00  0.00    -0.387 A  
HETATM   25  H   UNL     1     -14.138   8.411  73.477  1.00  0.00     0.000 HD 
HETATM   26  O   UNL     1     -13.846   9.127  72.927  1.00  0.00    -0.364 OA 
HETATM   27  C   UNL     1     -11.937   7.857  72.348  1.00  0.00    -0.373 A  
BRANCH  22  28
HETATM   28  O   UNL     1     -13.071  11.172  71.394  1.00  0.00    -0.396 OA 
HETATM   29  C   UNL     1     -12.522  12.382  70.886  1.00  0.00    -0.274 C  
ENDBRANCH  22  28
ENDBRANCH  19  20
ENDBRANCH  16  18
ENDBRANCH  15  16
ENDBRANCH  13  15
ENDBRANCH  12  13
ENDBRANCH   5  11
ENDBRANCH   2   3
TORSDOF 8
ENDMDL
MODEL      235
REMARK 921   NORMALIZED FREE ENERGY PREDICTED BY IDOCK:   -3.70 KCAL/MOL
REMARK 922        TOTAL FREE ENERGY PREDICTED BY IDOCK:   -6.98 KCAL/MOL
REMARK 923 INTER-LIGAND FREE ENERGY PREDICTED BY IDOCK:   -6.26 KCAL/MOL
REMARK 924 INTRA-LIGAND FREE ENERGY PREDICTED BY IDOCK:   -0.72 KCAL/MOL
REMARK 927      BINDING AFFINITY PREDICTED BY RF-SCORE:    0.00 PKD
ROOT
HETATM    1  C   UNL     1      -5.466   7.563  67.260  1.00  0.00    -0.030 C  
HETATM    2  O   UNL     1      -6.708   6.874  67.372  1.00  0.00    -0.062 OA 
ENDROOT
BRANCH   2   3
HETATM    3  C   UNL     1      -7.772   7.654  67.750  1.00  0.00    -0.122 A  
HETATM    4  C   UNL     1      -8.390   8.573  66.895  1.00  0.00    -0.109 A  
HETATM    5  C   UNL     1      -9.447   9.379  67.336  1.00  0.00    -0.163 A  
HETATM    6  C   UNL     1      -9.945   9.188  68.631  1.00  0.00    -0.185 A  
HETATM    7  H   UNL     1      -8.033   6.468  70.764  1.00  0.00     0.000 HD 
HETATM    8  O   UNL     1      -7.690   6.583  69.886  1.00  0.00    -0.103 OA 
HETATM    9  C   UNL     1      -9.365   8.242  69.483  1.00  0.00    -0.158 A  
HETATM   10  C   UNL     1      -8.278   7.486  69.042  1.00  0.00    -0.128 A  
BRANCH   5  11
HETATM   11  C   UNL     1     -10.061  10.389  66.461  1.00  0.00    -0.285 C  
HETATM   12  C   UNL     1      -9.916  10.398  65.125  1.00  0.00    -0.390 C  
BRANCH  12  13
HETATM   13  C   UNL     1     -10.545  11.464  64.295  1.00  0.00    -0.355 C  
HETATM   14  O   UNL     1     -11.498  11.218  63.554  1.00  0.00    -0.266 OA 
BRANCH  13  15
HETATM   15  C   UNL     1      -9.993  12.857  64.410  1.00  0.00    -0.159 C  
BRANCH  15  16
HETATM   16  C   UNL     1     -10.803  13.736  65.321  1.00  0.00    -0.324 C  
HETATM   17  O   UNL     1     -11.931  13.405  65.685  1.00  0.00    -0.358 OA 
BRANCH  16  18
HETATM   18  C   UNL     1     -10.164  14.995  65.807  1.00  0.00    -0.361 C  
HETATM   19  C   UNL     1      -9.841  15.118  67.104  1.00  0.00    -0.228 C  
BRANCH  19  20
HETATM   20  C   UNL     1      -9.163  16.275  67.710  1.00  0.00    -0.203 A  
HETATM   21  C   UNL     1      -9.625  17.594  67.547  1.00  0.00    -0.267 A  
HETATM   22  C   UNL     1      -8.897  18.673  68.058  1.00  0.00    -0.306 A  
HETATM   23  C   UNL     1      -7.958  16.058  68.397  1.00  0.00    -0.151 A  
HETATM   24  C   UNL     1      -7.703  18.419  68.739  1.00  0.00    -0.267 A  
HETATM   25  H   UNL     1      -6.146  19.283  69.698  1.00  0.00     0.000 HD 
HETATM   26  O   UNL     1      -6.958  19.455  69.236  1.00  0.00    -0.339 OA 
HETATM   27  C   UNL     1      -7.229  17.128  68.918  1.00  0.00    -0.242 A  
BRANCH  22  28
HETATM   28  O   UNL     1      -9.233  19.996  67.945  1.00  0.00    -0.336 OA 
HETATM   29  C   UNL     1     -10.121  20.345  66.891  1.00  0.00    -0.363 C  
ENDBRANCH  22  28
ENDBRANCH  19  20
ENDBRANCH  16  18
ENDBRANCH  15  16
ENDBRANCH  13  15
ENDBRANCH  12  13
ENDBRANCH   5  11
ENDBRANCH   2   3
TORSDOF 8
ENDMDL
MODEL      236
REMARK 921   NORMALIZED FREE ENERGY PREDICTED BY IDOCK:   -3.70 KCAL/MOL
REMARK 922        TOTAL FREE ENERGY PREDICTED BY IDOCK:   -6.97 KCAL/MOL
REMARK 923 INTER-LIGAND FREE ENERGY PREDICTED BY IDOCK:   -6.30 KCAL/MOL
REMARK 924 INTRA-LIGAND FREE ENERGY PREDICTED BY IDOCK:   -0.67 KCAL/MOL
REMARK 927      BINDING AFFINITY PREDICTED BY RF-SCORE:    0.00 PKD
ROOT
HETATM    1  C   UNL     1     -10.013   4.328  66.270  1.00  0.00    -0.211 C  
HETATM    2  O   UNL     1      -8.845   5.065  66.624  1.00  0.00    -0.112 OA 
ENDROOT
BRANCH   2   3
HETATM    3  C   UNL     1      -8.737   6.300  66.034  1.00  0.00    -0.151 A  
HETATM    4  C   UNL     1      -9.279   7.463  66.589  1.00  0.00    -0.196 A  
HETATM    5  C   UNL     1      -9.181   8.697  65.933  1.00  0.00    -0.264 A  
HETATM    6  C   UNL     1      -8.445   8.769  64.743  1.00  0.00    -0.179 A  
HETATM    7  H   UNL     1      -6.979   5.325  63.481  1.00  0.00     0.000 HD 
HETATM    8  O   UNL     1      -7.469   5.263  64.292  1.00  0.00    -0.058 OA 
HETATM    9  C   UNL     1      -7.860   7.621  64.198  1.00  0.00    -0.133 A  
HETATM   10  C   UNL     1      -8.015   6.392  64.841  1.00  0.00    -0.124 A  
BRANCH   5  11
HETATM   11  C   UNL     1      -9.801   9.912  66.481  1.00  0.00    -0.274 C  
HETATM   12  C   UNL     1     -10.588   9.914  67.570  1.00  0.00    -0.333 C  
BRANCH  12  13
HETATM   13  C   UNL     1     -11.206  11.178  68.063  1.00  0.00    -0.296 C  
HETATM   14  O   UNL     1     -12.321  11.183  68.585  1.00  0.00    -0.549 OA 
BRANCH  13  15
HETATM   15  C   UNL     1     -10.411  12.446  67.922  1.00  0.00    -0.215 C  
BRANCH  15  16
HETATM   16  C   UNL     1     -10.913  13.334  66.818  1.00  0.00    -0.287 C  
HETATM   17  O   UNL     1     -11.883  13.008  66.134  1.00  0.00    -0.370 OA 
BRANCH  16  18
HETATM   18  C   UNL     1     -10.224  14.644  66.623  1.00  0.00    -0.275 C  
HETATM   19  C   UNL     1      -9.314  15.054  67.520  1.00  0.00    -0.195 C  
BRANCH  19  20
HETATM   20  C   UNL     1      -8.523  16.293  67.430  1.00  0.00    -0.190 A  
HETATM   21  C   UNL     1      -7.737  16.768  68.495  1.00  0.00    -0.223 A  
HETATM   22  C   UNL     1      -7.080  17.999  68.402  1.00  0.00    -0.247 A  
HETATM   23  C   UNL     1      -8.637  17.074  66.268  1.00  0.00    -0.298 A  
HETATM   24  C   UNL     1      -7.214  18.749  67.230  1.00  0.00    -0.209 A  
HETATM   25  H   UNL     1      -6.688  20.475  66.318  1.00  0.00     0.000 HD 
HETATM   26  O   UNL     1      -6.597  19.966  67.115  1.00  0.00    -0.202 OA 
HETATM   27  C   UNL     1      -7.978  18.299  66.164  1.00  0.00    -0.219 A  
BRANCH  22  28
HETATM   28  O   UNL     1      -6.306  18.574  69.375  1.00  0.00    -0.257 OA 
HETATM   29  C   UNL     1      -5.585  17.692  70.226  1.00  0.00    -0.235 C  
ENDBRANCH  22  28
ENDBRANCH  19  20
ENDBRANCH  16  18
ENDBRANCH  15  16
ENDBRANCH  13  15
ENDBRANCH  12  13
ENDBRANCH   5  11
ENDBRANCH   2   3
TORSDOF 8
ENDMDL
MODEL      237
REMARK 921   NORMALIZED FREE ENERGY PREDICTED BY IDOCK:   -3.69 KCAL/MOL
REMARK 922        TOTAL FREE ENERGY PREDICTED BY IDOCK:   -6.96 KCAL/MOL
REMARK 923 INTER-LIGAND FREE ENERGY PREDICTED BY IDOCK:   -5.29 KCAL/MOL
REMARK 924 INTRA-LIGAND FREE ENERGY PREDICTED BY IDOCK:   -1.67 KCAL/MOL
REMARK 927      BINDING AFFINITY PREDICTED BY RF-SCORE:    0.00 PKD
ROOT
HETATM    1  C   UNL     1      -7.457   5.299  69.596  1.00  0.00    -0.065 C  
HETATM    2  O   UNL     1      -7.306   4.144  68.776  1.00  0.00    -0.054 OA 
ENDROOT
BRANCH   2   3
HETATM    3  C   UNL     1      -7.835   4.256  67.514  1.00  0.00    -0.088 A  
HETATM    4  C   UNL     1      -7.672   5.390  66.713  1.00  0.00    -0.100 A  
HETATM    5  C   UNL     1      -8.265   5.478  65.446  1.00  0.00    -0.133 A  
HETATM    6  C   UNL     1      -8.954   4.366  64.948  1.00  0.00    -0.147 A  
HETATM    7  H   UNL     1      -9.170   1.294  67.422  1.00  0.00     0.000 HD 
HETATM    8  O   UNL     1      -8.693   2.039  67.770  1.00  0.00    -0.081 OA 
HETATM    9  C   UNL     1      -9.089   3.207  65.721  1.00  0.00    -0.149 A  
HETATM   10  C   UNL     1      -8.536   3.160  67.001  1.00  0.00    -0.113 A  
BRANCH   5  11
HETATM   11  C   UNL     1      -8.148   6.692  64.624  1.00  0.00    -0.088 C  
HETATM   12  C   UNL     1      -7.286   7.687  64.893  1.00  0.00    -0.075 C  
BRANCH  12  13
HETATM   13  C   UNL     1      -7.233   8.904  64.033  1.00  0.00    -0.095 C  
HETATM   14  O   UNL     1      -6.810   8.850  62.877  1.00  0.00    -0.091 OA 
BRANCH  13  15
HETATM   15  C   UNL     1      -7.733  10.195  64.617  1.00  0.00    -0.141 C  
BRANCH  15  16
HETATM   16  C   UNL     1      -9.222  10.208  64.824  1.00  0.00    -0.242 C  
HETATM   17  O   UNL     1      -9.990  10.436  63.890  1.00  0.00    -0.315 OA 
BRANCH  16  18
HETATM   18  C   UNL     1      -9.727   9.881  66.189  1.00  0.00    -0.297 C  
HETATM   19  C   UNL     1     -10.083   8.620  66.480  1.00  0.00    -0.339 C  
BRANCH  19  20
HETATM   20  C   UNL     1     -10.548   8.144  67.794  1.00  0.00    -0.233 A  
HETATM   21  C   UNL     1     -10.657   8.993  68.910  1.00  0.00    -0.203 A  
HETATM   22  C   UNL     1     -11.010   8.480  70.163  1.00  0.00    -0.216 A  
HETATM   23  C   UNL     1     -10.798   6.772  67.956  1.00  0.00    -0.306 A  
HETATM   24  C   UNL     1     -11.255   7.110  70.287  1.00  0.00    -0.276 A  
HETATM   25  H   UNL     1     -11.751   5.643  71.588  1.00  0.00     0.000 HD 
HETATM   26  O   UNL     1     -11.584   6.575  71.504  1.00  0.00    -0.288 OA 
HETATM   27  C   UNL     1     -11.158   6.254  69.200  1.00  0.00    -0.457 A  
BRANCH  22  28
HETATM   28  O   UNL     1     -11.128   9.200  71.323  1.00  0.00    -0.278 OA 
HETATM   29  C   UNL     1     -12.282  10.021  71.454  1.00  0.00    -0.416 C  
ENDBRANCH  22  28
ENDBRANCH  19  20
ENDBRANCH  16  18
ENDBRANCH  15  16
ENDBRANCH  13  15
ENDBRANCH  12  13
ENDBRANCH   5  11
ENDBRANCH   2   3
TORSDOF 8
ENDMDL
MODEL      238
REMARK 921   NORMALIZED FREE ENERGY PREDICTED BY IDOCK:   -3.66 KCAL/MOL
REMARK 922        TOTAL FREE ENERGY PREDICTED BY IDOCK:   -6.92 KCAL/MOL
REMARK 923 INTER-LIGAND FREE ENERGY PREDICTED BY IDOCK:   -6.47 KCAL/MOL
REMARK 924 INTRA-LIGAND FREE ENERGY PREDICTED BY IDOCK:   -0.45 KCAL/MOL
REMARK 927      BINDING AFFINITY PREDICTED BY RF-SCORE:    0.00 PKD
ROOT
HETATM    1  C   UNL     1      -9.053   2.289  69.348  1.00  0.00    -0.117 C  
HETATM    2  O   UNL     1      -8.926   2.754  68.007  1.00  0.00    -0.119 OA 
ENDROOT
BRANCH   2   3
HETATM    3  C   UNL     1      -9.476   3.989  67.766  1.00  0.00    -0.178 A  
HETATM    4  C   UNL     1      -9.640   4.960  68.759  1.00  0.00    -0.219 A  
HETATM    5  C   UNL     1     -10.244   6.193  68.478  1.00  0.00    -0.221 A  
HETATM    6  C   UNL     1     -10.603   6.480  67.155  1.00  0.00    -0.398 A  
HETATM    7  H   UNL     1      -9.940   3.560  64.579  1.00  0.00     0.000 HD 
HETATM    8  O   UNL     1      -9.685   3.354  65.471  1.00  0.00    -0.133 OA 
HETATM    9  C   UNL     1     -10.405   5.534  66.143  1.00  0.00    -0.145 A  
HETATM   10  C   UNL     1      -9.851   4.292  66.454  1.00  0.00    -0.220 A  
BRANCH   5  11
HETATM   11  C   UNL     1     -10.474   7.194  69.529  1.00  0.00    -0.236 C  
HETATM   12  C   UNL     1      -9.921   8.419  69.519  1.00  0.00    -0.190 C  
BRANCH  12  13
HETATM   13  C   UNL     1     -10.176   9.382  70.628  1.00  0.00    -0.288 C  
HETATM   14  O   UNL     1      -9.573   9.297  71.698  1.00  0.00    -0.277 OA 
BRANCH  13  15
HETATM   15  C   UNL     1     -11.180  10.475  70.389  1.00  0.00    -0.378 C  
BRANCH  15  16
HETATM   16  C   UNL     1     -11.147  11.004  68.982  1.00  0.00    -0.244 C  
HETATM   17  O   UNL     1     -11.714  10.408  68.067  1.00  0.00    -0.383 OA 
BRANCH  16  18
HETATM   18  C   UNL     1     -10.449  12.303  68.755  1.00  0.00    -0.187 C  
HETATM   19  C   UNL     1     -11.160  13.440  68.713  1.00  0.00    -0.297 C  
BRANCH  19  20
HETATM   20  C   UNL     1     -10.602  14.793  68.548  1.00  0.00    -0.248 A  
HETATM   21  C   UNL     1      -9.287  15.120  68.925  1.00  0.00    -0.207 A  
HETATM   22  C   UNL     1      -8.828  16.439  68.842  1.00  0.00    -0.256 A  
HETATM   23  C   UNL     1     -11.449  15.812  68.083  1.00  0.00    -0.302 A  
HETATM   24  C   UNL     1      -9.698  17.427  68.373  1.00  0.00    -0.304 A  
HETATM   25  H   UNL     1      -9.876  19.402  67.977  1.00  0.00     0.000 HD 
HETATM   26  O   UNL     1      -9.285  18.730  68.296  1.00  0.00    -0.308 OA 
HETATM   27  C   UNL     1     -10.997  17.128  67.989  1.00  0.00    -0.229 A  
BRANCH  22  28
HETATM   28  O   UNL     1      -7.582  16.881  69.197  1.00  0.00    -0.233 OA 
HETATM   29  C   UNL     1      -6.547  16.728  68.234  1.00  0.00    -0.152 C  
ENDBRANCH  22  28
ENDBRANCH  19  20
ENDBRANCH  16  18
ENDBRANCH  15  16
ENDBRANCH  13  15
ENDBRANCH  12  13
ENDBRANCH   5  11
ENDBRANCH   2   3
TORSDOF 8
ENDMDL
MODEL      239
REMARK 921   NORMALIZED FREE ENERGY PREDICTED BY IDOCK:   -3.66 KCAL/MOL
REMARK 922        TOTAL FREE ENERGY PREDICTED BY IDOCK:   -6.92 KCAL/MOL
REMARK 923 INTER-LIGAND FREE ENERGY PREDICTED BY IDOCK:   -5.86 KCAL/MOL
REMARK 924 INTRA-LIGAND FREE ENERGY PREDICTED BY IDOCK:   -1.06 KCAL/MOL
REMARK 927      BINDING AFFINITY PREDICTED BY RF-SCORE:    0.00 PKD
ROOT
HETATM    1  C   UNL     1     -10.599   5.302  66.445  1.00  0.00    -0.276 C  
HETATM    2  O   UNL     1      -9.760   4.795  67.479  1.00  0.00    -0.156 OA 
ENDROOT
BRANCH   2   3
HETATM    3  C   UNL     1      -9.053   5.747  68.172  1.00  0.00    -0.110 A  
HETATM    4  C   UNL     1      -9.164   7.117  67.920  1.00  0.00    -0.129 A  
HETATM    5  C   UNL     1      -8.392   8.052  68.624  1.00  0.00    -0.127 A  
HETATM    6  C   UNL     1      -7.565   7.597  69.658  1.00  0.00    -0.093 A  
HETATM    7  H   UNL     1      -7.534   3.680  70.168  1.00  0.00     0.000 HD 
HETATM    8  O   UNL     1      -8.104   3.975  69.467  1.00  0.00    -0.055 OA 
HETATM    9  C   UNL     1      -7.476   6.232  69.951  1.00  0.00    -0.084 A  
HETATM   10  C   UNL     1      -8.214   5.314  69.203  1.00  0.00    -0.092 A  
BRANCH   5  11
HETATM   11  C   UNL     1      -8.460   9.489  68.322  1.00  0.00    -0.119 C  
HETATM   12  C   UNL     1      -7.374  10.252  68.106  1.00  0.00    -0.085 C  
BRANCH  12  13
HETATM   13  C   UNL     1      -7.509  11.710  67.826  1.00  0.00    -0.111 C  
HETATM   14  O   UNL     1      -6.802  12.538  68.400  1.00  0.00    -0.072 OA 
BRANCH  13  15
HETATM   15  C   UNL     1      -8.525  12.134  66.802  1.00  0.00    -0.138 C  
BRANCH  15  16
HETATM   16  C   UNL     1      -9.010  13.542  67.005  1.00  0.00    -0.231 C  
HETATM   17  O   UNL     1      -8.704  14.438  66.219  1.00  0.00    -0.019 OA 
BRANCH  16  18
HETATM   18  C   UNL     1      -9.918  13.794  68.163  1.00  0.00    -0.242 C  
HETATM   19  C   UNL     1     -10.681  12.798  68.637  1.00  0.00    -0.273 C  
BRANCH  19  20
HETATM   20  C   UNL     1     -11.580  12.888  69.799  1.00  0.00    -0.288 A  
HETATM   21  C   UNL     1     -12.108  11.752  70.439  1.00  0.00    -0.440 A  
HETATM   22  C   UNL     1     -13.035  11.884  71.477  1.00  0.00    -0.323 A  
HETATM   23  C   UNL     1     -11.999  14.161  70.221  1.00  0.00    -0.404 A  
HETATM   24  C   UNL     1     -13.427  13.166  71.873  1.00  0.00    -0.424 A  
HETATM   25  H   UNL     1     -14.613  14.200  73.143  1.00  0.00     0.000 HD 
HETATM   26  O   UNL     1     -14.346  13.329  72.874  1.00  0.00    -0.429 OA 
HETATM   27  C   UNL     1     -12.917  14.302  71.261  1.00  0.00    -0.422 A  
BRANCH  22  28
HETATM   28  O   UNL     1     -13.631  10.857  72.160  1.00  0.00    -0.280 OA 
HETATM   29  C   UNL     1     -13.046   9.568  72.019  1.00  0.00    -0.438 C  
ENDBRANCH  22  28
ENDBRANCH  19  20
ENDBRANCH  16  18
ENDBRANCH  15  16
ENDBRANCH  13  15
ENDBRANCH  12  13
ENDBRANCH   5  11
ENDBRANCH   2   3
TORSDOF 8
ENDMDL
MODEL      240
REMARK 921   NORMALIZED FREE ENERGY PREDICTED BY IDOCK:   -3.64 KCAL/MOL
REMARK 922        TOTAL FREE ENERGY PREDICTED BY IDOCK:   -6.89 KCAL/MOL
REMARK 923 INTER-LIGAND FREE ENERGY PREDICTED BY IDOCK:   -6.47 KCAL/MOL
REMARK 924 INTRA-LIGAND FREE ENERGY PREDICTED BY IDOCK:   -0.42 KCAL/MOL
REMARK 927      BINDING AFFINITY PREDICTED BY RF-SCORE:    0.00 PKD
ROOT
HETATM    1  C   UNL     1     -10.784  16.807  69.337  1.00  0.00    -0.300 C  
HETATM    2  O   UNL     1     -11.748  15.930  68.760  1.00  0.00    -0.387 OA 
ENDROOT
BRANCH   2   3
HETATM    3  C   UNL     1     -11.843  14.698  69.358  1.00  0.00    -0.329 A  
HETATM    4  C   UNL     1     -11.175  13.565  68.886  1.00  0.00    -0.316 A  
HETATM    5  C   UNL     1     -11.334  12.317  69.503  1.00  0.00    -0.258 A  
HETATM    6  C   UNL     1     -12.109  12.236  70.667  1.00  0.00    -0.330 A  
HETATM    7  H   UNL     1     -13.800  15.627  71.781  1.00  0.00     0.000 HD 
HETATM    8  O   UNL     1     -13.272  15.698  70.994  1.00  0.00    -0.508 OA 
HETATM    9  C   UNL     1     -12.749  13.371  71.175  1.00  0.00    -0.411 A  
HETATM   10  C   UNL     1     -12.620  14.593  70.515  1.00  0.00    -0.350 A  
BRANCH   5  11
HETATM   11  C   UNL     1     -10.681  11.109  68.976  1.00  0.00    -0.265 C  
HETATM   12  C   UNL     1     -11.110  10.452  67.886  1.00  0.00    -0.363 C  
BRANCH  12  13
HETATM   13  C   UNL     1     -10.417   9.219  67.415  1.00  0.00    -0.273 C  
HETATM   14  O   UNL     1     -10.379   8.924  66.220  1.00  0.00    -0.240 OA 
BRANCH  13  15
HETATM   15  C   UNL     1      -9.745   8.357  68.448  1.00  0.00    -0.168 C  
BRANCH  15  16
HETATM   16  C   UNL     1     -10.623   7.242  68.943  1.00  0.00    -0.191 C  
HETATM   17  O   UNL     1     -11.369   7.403  69.909  1.00  0.00    -0.195 OA 
BRANCH  16  18
HETATM   18  C   UNL     1     -10.592   5.957  68.186  1.00  0.00    -0.312 C  
HETATM   19  C   UNL     1      -9.924   5.887  67.024  1.00  0.00    -0.195 C  
BRANCH  19  20
HETATM   20  C   UNL     1      -9.767   4.678  66.199  1.00  0.00    -0.211 A  
HETATM   21  C   UNL     1      -8.809   3.688  66.482  1.00  0.00    -0.131 A  
HETATM   22  C   UNL     1      -8.628   2.603  65.617  1.00  0.00    -0.109 A  
HETATM   23  C   UNL     1     -10.543   4.560  65.034  1.00  0.00    -0.090 A  
HETATM   24  C   UNL     1      -9.418   2.517  64.468  1.00  0.00    -0.132 A  
HETATM   25  H   UNL     1      -9.790   1.418  62.812  1.00  0.00     0.000 HD 
HETATM   26  O   UNL     1      -9.253   1.477  63.593  1.00  0.00    -0.088 OA 
HETATM   27  C   UNL     1     -10.374   3.477  64.171  1.00  0.00    -0.220 A  
BRANCH  22  28
HETATM   28  O   UNL     1      -7.717   1.593  65.775  1.00  0.00    -0.065 OA 
HETATM   29  C   UNL     1      -6.960   1.592  66.979  1.00  0.00    -0.038 C  
ENDBRANCH  22  28
ENDBRANCH  19  20
ENDBRANCH  16  18
ENDBRANCH  15  16
ENDBRANCH  13  15
ENDBRANCH  12  13
ENDBRANCH   5  11
ENDBRANCH   2   3
TORSDOF 8
ENDMDL
MODEL      241
REMARK 921   NORMALIZED FREE ENERGY PREDICTED BY IDOCK:   -3.59 KCAL/MOL
REMARK 922        TOTAL FREE ENERGY PREDICTED BY IDOCK:   -6.81 KCAL/MOL
REMARK 923 INTER-LIGAND FREE ENERGY PREDICTED BY IDOCK:   -6.26 KCAL/MOL
REMARK 924 INTRA-LIGAND FREE ENERGY PREDICTED BY IDOCK:   -0.55 KCAL/MOL
REMARK 927      BINDING AFFINITY PREDICTED BY RF-SCORE:    0.00 PKD
ROOT
HETATM    1  C   UNL     1      -9.439   3.727  64.852  1.00  0.00    -0.167 C  
HETATM    2  O   UNL     1      -8.659   4.229  65.933  1.00  0.00    -0.113 OA 
ENDROOT
BRANCH   2   3
HETATM    3  C   UNL     1      -9.334   5.043  66.808  1.00  0.00    -0.135 A  
HETATM    4  C   UNL     1      -9.716   6.352  66.497  1.00  0.00    -0.177 A  
HETATM    5  C   UNL     1     -10.368   7.162  67.436  1.00  0.00    -0.324 A  
HETATM    6  C   UNL     1     -10.718   6.609  68.674  1.00  0.00    -0.303 A  
HETATM    7  H   UNL     1      -9.566   2.869  69.213  1.00  0.00     0.000 HD 
HETATM    8  O   UNL     1      -9.328   3.229  68.366  1.00  0.00    -0.170 OA 
HETATM    9  C   UNL     1     -10.381   5.286  68.983  1.00  0.00    -0.246 A  
HETATM   10  C   UNL     1      -9.685   4.513  68.054  1.00  0.00    -0.134 A  
BRANCH   5  11
HETATM   11  C   UNL     1     -10.717   8.558  67.137  1.00  0.00    -0.209 C  
HETATM   12  C   UNL     1      -9.994   9.344  66.320  1.00  0.00    -0.353 C  
BRANCH  12  13
HETATM   13  C   UNL     1     -10.389  10.760  66.075  1.00  0.00    -0.238 C  
HETATM   14  O   UNL     1     -10.186  11.301  64.988  1.00  0.00    -0.252 OA 
BRANCH  13  15
HETATM   15  C   UNL     1     -11.066  11.500  67.195  1.00  0.00    -0.355 C  
BRANCH  15  16
HETATM   16  C   UNL     1     -10.109  11.959  68.258  1.00  0.00    -0.203 C  
HETATM   17  O   UNL     1      -9.493  11.149  68.950  1.00  0.00    -0.188 OA 
BRANCH  16  18
HETATM   18  C   UNL     1      -9.896  13.430  68.401  1.00  0.00    -0.216 C  
HETATM   19  C   UNL     1      -8.697  13.958  68.110  1.00  0.00    -0.182 C  
BRANCH  19  20
HETATM   20  C   UNL     1      -8.360  15.391  68.156  1.00  0.00    -0.145 A  
HETATM   21  C   UNL     1      -9.299  16.378  68.505  1.00  0.00    -0.225 A  
HETATM   22  C   UNL     1      -8.964  17.735  68.441  1.00  0.00    -0.281 A  
HETATM   23  C   UNL     1      -7.078  15.788  67.743  1.00  0.00    -0.171 A  
HETATM   24  C   UNL     1      -7.678  18.094  68.029  1.00  0.00    -0.255 A  
HETATM   25  H   UNL     1      -6.451  19.657  67.659  1.00  0.00     0.000 HD 
HETATM   26  O   UNL     1      -7.325  19.413  67.939  1.00  0.00    -0.248 OA 
HETATM   27  C   UNL     1      -6.733  17.138  67.685  1.00  0.00    -0.160 A  
BRANCH  22  28
HETATM   28  O   UNL     1      -9.795  18.783  68.735  1.00  0.00    -0.368 OA 
HETATM   29  C   UNL     1     -10.645  19.241  67.691  1.00  0.00    -0.447 C  
ENDBRANCH  22  28
ENDBRANCH  19  20
ENDBRANCH  16  18
ENDBRANCH  15  16
ENDBRANCH  13  15
ENDBRANCH  12  13
ENDBRANCH   5  11
ENDBRANCH   2   3
TORSDOF 8
ENDMDL
MODEL      242
REMARK 921   NORMALIZED FREE ENERGY PREDICTED BY IDOCK:   -3.57 KCAL/MOL
REMARK 922        TOTAL FREE ENERGY PREDICTED BY IDOCK:   -6.79 KCAL/MOL
REMARK 923 INTER-LIGAND FREE ENERGY PREDICTED BY IDOCK:   -5.67 KCAL/MOL
REMARK 924 INTRA-LIGAND FREE ENERGY PREDICTED BY IDOCK:   -1.12 KCAL/MOL
REMARK 927      BINDING AFFINITY PREDICTED BY RF-SCORE:    0.00 PKD
ROOT
HETATM    1  C   UNL     1      -9.852   3.742  64.162  1.00  0.00    -0.183 C  
HETATM    2  O   UNL     1      -9.021   3.473  65.288  1.00  0.00    -0.126 OA 
ENDROOT
BRANCH   2   3
HETATM    3  C   UNL     1      -8.649   4.578  66.012  1.00  0.00    -0.114 A  
HETATM    4  C   UNL     1      -8.779   5.886  65.534  1.00  0.00    -0.133 A  
HETATM    5  C   UNL     1      -8.347   6.984  66.291  1.00  0.00    -0.129 A  
HETATM    6  C   UNL     1      -7.863   6.759  67.585  1.00  0.00    -0.112 A  
HETATM    7  H   UNL     1      -7.695   2.964  68.666  1.00  0.00     0.000 HD 
HETATM    8  O   UNL     1      -8.032   3.101  67.788  1.00  0.00    -0.074 OA 
HETATM    9  C   UNL     1      -7.768   5.459  68.094  1.00  0.00    -0.085 A  
HETATM   10  C   UNL     1      -8.153   4.376  67.304  1.00  0.00    -0.101 A  
BRANCH   5  11
HETATM   11  C   UNL     1      -8.425   8.356  65.769  1.00  0.00    -0.169 C  
HETATM   12  C   UNL     1      -8.650   8.645  64.476  1.00  0.00    -0.097 C  
BRANCH  12  13
HETATM   13  C   UNL     1      -8.694  10.059  64.006  1.00  0.00    -0.208 C  
HETATM   14  O   UNL     1      -7.668  10.654  63.676  1.00  0.00    -0.026 OA 
BRANCH  13  15
HETATM   15  C   UNL     1     -10.038  10.727  63.926  1.00  0.00    -0.397 C  
BRANCH  15  16
HETATM   16  C   UNL     1     -10.352  11.561  65.137  1.00  0.00    -0.278 C  
HETATM   17  O   UNL     1     -10.415  12.788  65.062  1.00  0.00    -0.297 OA 
BRANCH  16  18
HETATM   18  C   UNL     1     -10.635  10.840  66.412  1.00  0.00    -0.266 C  
HETATM   19  C   UNL     1     -10.700  11.528  67.563  1.00  0.00    -0.267 C  
BRANCH  19  20
HETATM   20  C   UNL     1     -11.020  10.958  68.882  1.00  0.00    -0.278 A  
HETATM   21  C   UNL     1     -10.107  10.172  69.609  1.00  0.00    -0.265 A  
HETATM   22  C   UNL     1     -10.485   9.570  70.813  1.00  0.00    -0.314 A  
HETATM   23  C   UNL     1     -12.320  11.130  69.386  1.00  0.00    -0.224 A  
HETATM   24  C   UNL     1     -11.786   9.764  71.286  1.00  0.00    -0.399 A  
HETATM   25  H   UNL     1     -13.077   9.306  72.773  1.00  0.00     0.000 HD 
HETATM   26  O   UNL     1     -12.193   9.174  72.452  1.00  0.00    -0.307 OA 
HETATM   27  C   UNL     1     -12.703  10.540  70.590  1.00  0.00    -0.441 A  
BRANCH  22  28
HETATM   28  O   UNL     1      -9.695   8.771  71.596  1.00  0.00    -0.244 OA 
HETATM   29  C   UNL     1      -8.555   8.190  70.976  1.00  0.00    -0.137 C  
ENDBRANCH  22  28
ENDBRANCH  19  20
ENDBRANCH  16  18
ENDBRANCH  15  16
ENDBRANCH  13  15
ENDBRANCH  12  13
ENDBRANCH   5  11
ENDBRANCH   2   3
TORSDOF 8
ENDMDL
MODEL      243
REMARK 921   NORMALIZED FREE ENERGY PREDICTED BY IDOCK:   -3.54 KCAL/MOL
REMARK 922        TOTAL FREE ENERGY PREDICTED BY IDOCK:   -6.74 KCAL/MOL
REMARK 923 INTER-LIGAND FREE ENERGY PREDICTED BY IDOCK:   -5.86 KCAL/MOL
REMARK 924 INTRA-LIGAND FREE ENERGY PREDICTED BY IDOCK:   -0.88 KCAL/MOL
REMARK 927      BINDING AFFINITY PREDICTED BY RF-SCORE:    0.00 PKD
ROOT
HETATM    1  C   UNL     1      -8.564  16.983  66.234  1.00  0.00    -0.262 C  
HETATM    2  O   UNL     1      -9.808  16.937  65.541  1.00  0.00    -0.559 OA 
ENDROOT
BRANCH   2   3
HETATM    3  C   UNL     1     -10.369  15.688  65.438  1.00  0.00    -0.393 A  
HETATM    4  C   UNL     1      -9.970  14.602  66.223  1.00  0.00    -0.306 A  
HETATM    5  C   UNL     1     -10.541  13.333  66.055  1.00  0.00    -0.292 A  
HETATM    6  C   UNL     1     -11.594  13.186  65.143  1.00  0.00    -0.347 A  
HETATM    7  H   UNL     1     -12.535  16.457  63.140  1.00  0.00     0.000 HD 
HETATM    8  O   UNL     1     -11.824  16.574  63.760  1.00  0.00    -1.011 OA 
HETATM    9  C   UNL     1     -12.033  14.274  64.382  1.00  0.00    -0.476 A  
HETATM   10  C   UNL     1     -11.415  15.516  64.526  1.00  0.00    -0.308 A  
BRANCH   5  11
HETATM   11  C   UNL     1     -10.083  12.174  66.834  1.00  0.00    -0.222 C  
HETATM   12  C   UNL     1     -10.351  10.901  66.495  1.00  0.00    -0.299 C  
BRANCH  12  13
HETATM   13  C   UNL     1      -9.877   9.770  67.342  1.00  0.00    -0.174 C  
HETATM   14  O   UNL     1     -10.578   8.775  67.530  1.00  0.00    -0.267 OA 
BRANCH  13  15
HETATM   15  C   UNL     1      -8.502   9.874  67.942  1.00  0.00    -0.121 C  
BRANCH  15  16
HETATM   16  C   UNL     1      -7.435   9.271  67.073  1.00  0.00    -0.091 C  
HETATM   17  O   UNL     1      -6.999   9.875  66.093  1.00  0.00    -0.093 OA 
BRANCH  16  18
HETATM   18  C   UNL     1      -6.891   7.941  67.477  1.00  0.00    -0.070 C  
HETATM   19  C   UNL     1      -7.595   6.829  67.216  1.00  0.00    -0.104 C  
BRANCH  19  20
HETATM   20  C   UNL     1      -7.161   5.453  67.510  1.00  0.00    -0.067 A  
HETATM   21  C   UNL     1      -7.782   4.326  66.942  1.00  0.00    -0.093 A  
HETATM   22  C   UNL     1      -7.401   3.035  67.324  1.00  0.00    -0.062 A  
HETATM   23  C   UNL     1      -6.151   5.263  68.467  1.00  0.00    -0.026 A  
HETATM   24  C   UNL     1      -6.391   2.883  68.277  1.00  0.00    -0.029 A  
HETATM   25  H   UNL     1      -5.321   1.530  69.332  1.00  0.00     0.000 HD 
HETATM   26  O   UNL     1      -6.008   1.633  68.684  1.00  0.00    -0.022 OA 
HETATM   27  C   UNL     1      -5.760   3.979  68.847  1.00  0.00    -0.021 A  
BRANCH  22  28
HETATM   28  O   UNL     1      -7.943   1.866  66.858  1.00  0.00    -0.065 OA 
HETATM   29  C   UNL     1      -8.082   1.739  65.449  1.00  0.00    -0.076 C  
ENDBRANCH  22  28
ENDBRANCH  19  20
ENDBRANCH  16  18
ENDBRANCH  15  16
ENDBRANCH  13  15
ENDBRANCH  12  13
ENDBRANCH   5  11
ENDBRANCH   2   3
TORSDOF 8
ENDMDL
MODEL      244
REMARK 921   NORMALIZED FREE ENERGY PREDICTED BY IDOCK:   -3.51 KCAL/MOL
REMARK 922        TOTAL FREE ENERGY PREDICTED BY IDOCK:   -6.70 KCAL/MOL
REMARK 923 INTER-LIGAND FREE ENERGY PREDICTED BY IDOCK:   -6.01 KCAL/MOL
REMARK 924 INTRA-LIGAND FREE ENERGY PREDICTED BY IDOCK:   -0.69 KCAL/MOL
REMARK 927      BINDING AFFINITY PREDICTED BY RF-SCORE:    0.00 PKD
ROOT
HETATM    1  C   UNL     1     -10.872  19.221  66.848  1.00  0.00    -0.381 C  
HETATM    2  O   UNL     1     -10.495  18.606  65.619  1.00  0.00    -0.603 OA 
ENDROOT
BRANCH   2   3
HETATM    3  C   UNL     1     -10.156  17.279  65.713  1.00  0.00    -0.141 A  
HETATM    4  C   UNL     1      -9.186  16.797  66.597  1.00  0.00    -0.279 A  
HETATM    5  C   UNL     1      -8.843  15.439  66.630  1.00  0.00    -0.330 A  
HETATM    6  C   UNL     1      -9.556  14.545  65.822  1.00  0.00    -0.242 A  
HETATM    7  H   UNL     1     -12.280  16.211  63.497  1.00  0.00     0.000 HD 
HETATM    8  O   UNL     1     -11.809  16.828  64.045  1.00  0.00    -0.956 OA 
HETATM    9  C   UNL     1     -10.559  15.007  64.964  1.00  0.00    -0.437 A  
HETATM   10  C   UNL     1     -10.849  16.370  64.907  1.00  0.00    -0.250 A  
BRANCH   5  11
HETATM   11  C   UNL     1      -7.782  14.935  67.515  1.00  0.00    -0.214 C  
HETATM   12  C   UNL     1      -7.889  13.802  68.229  1.00  0.00    -0.144 C  
BRANCH  12  13
HETATM   13  C   UNL     1      -6.784  13.357  69.126  1.00  0.00    -0.099 C  
HETATM   14  O   UNL     1      -6.486  13.996  70.136  1.00  0.00    -0.129 OA 
BRANCH  13  15
HETATM   15  C   UNL     1      -6.060  12.089  68.768  1.00  0.00    -0.059 C  
BRANCH  15  16
HETATM   16  C   UNL     1      -6.865  11.186  67.876  1.00  0.00    -0.068 C  
HETATM   17  O   UNL     1      -6.617  11.097  66.674  1.00  0.00    -0.119 OA 
BRANCH  16  18
HETATM   18  C   UNL     1      -7.936  10.366  68.516  1.00  0.00    -0.114 C  
HETATM   19  C   UNL     1      -7.661   9.116  68.921  1.00  0.00    -0.083 C  
BRANCH  19  20
HETATM   20  C   UNL     1      -8.600   8.215  69.610  1.00  0.00    -0.131 A  
HETATM   21  C   UNL     1      -8.244   6.915  70.012  1.00  0.00    -0.134 A  
HETATM   22  C   UNL     1      -9.194   6.058  70.576  1.00  0.00    -0.156 A  
HETATM   23  C   UNL     1      -9.927   8.641  69.783  1.00  0.00    -0.190 A  
HETATM   24  C   UNL     1     -10.505   6.516  70.736  1.00  0.00    -0.220 A  
HETATM   25  H   UNL     1     -12.353   6.006  71.378  1.00  0.00     0.000 HD 
HETATM   26  O   UNL     1     -11.463   5.695  71.269  1.00  0.00    -0.112 OA 
HETATM   27  C   UNL     1     -10.879   7.795  70.352  1.00  0.00    -0.248 A  
BRANCH  22  28
HETATM   28  O   UNL     1      -8.973   4.770  70.986  1.00  0.00    -0.120 OA 
HETATM   29  C   UNL     1      -7.656   4.261  70.821  1.00  0.00    -0.052 C  
ENDBRANCH  22  28
ENDBRANCH  19  20
ENDBRANCH  16  18
ENDBRANCH  15  16
ENDBRANCH  13  15
ENDBRANCH  12  13
ENDBRANCH   5  11
ENDBRANCH   2   3
TORSDOF 8
ENDMDL
MODEL      245
REMARK 921   NORMALIZED FREE ENERGY PREDICTED BY IDOCK:   -3.50 KCAL/MOL
REMARK 922        TOTAL FREE ENERGY PREDICTED BY IDOCK:   -6.68 KCAL/MOL
REMARK 923 INTER-LIGAND FREE ENERGY PREDICTED BY IDOCK:   -5.81 KCAL/MOL
REMARK 924 INTRA-LIGAND FREE ENERGY PREDICTED BY IDOCK:   -0.87 KCAL/MOL
REMARK 927      BINDING AFFINITY PREDICTED BY RF-SCORE:    0.00 PKD
ROOT
HETATM    1  C   UNL     1      -8.564  16.983  66.234  1.00  0.00    -0.262 C  
HETATM    2  O   UNL     1      -9.808  16.937  65.541  1.00  0.00    -0.559 OA 
ENDROOT
BRANCH   2   3
HETATM    3  C   UNL     1     -10.369  15.688  65.438  1.00  0.00    -0.393 A  
HETATM    4  C   UNL     1      -9.970  14.602  66.223  1.00  0.00    -0.306 A  
HETATM    5  C   UNL     1     -10.541  13.333  66.055  1.00  0.00    -0.292 A  
HETATM    6  C   UNL     1     -11.594  13.186  65.143  1.00  0.00    -0.347 A  
HETATM    7  H   UNL     1     -12.535  16.457  63.140  1.00  0.00     0.000 HD 
HETATM    8  O   UNL     1     -11.824  16.574  63.760  1.00  0.00    -1.011 OA 
HETATM    9  C   UNL     1     -12.033  14.274  64.382  1.00  0.00    -0.476 A  
HETATM   10  C   UNL     1     -11.415  15.516  64.526  1.00  0.00    -0.308 A  
BRANCH   5  11
HETATM   11  C   UNL     1     -10.083  12.174  66.834  1.00  0.00    -0.222 C  
HETATM   12  C   UNL     1     -10.351  10.901  66.495  1.00  0.00    -0.299 C  
BRANCH  12  13
HETATM   13  C   UNL     1      -9.877   9.770  67.342  1.00  0.00    -0.174 C  
HETATM   14  O   UNL     1     -10.578   8.775  67.530  1.00  0.00    -0.267 OA 
BRANCH  13  15
HETATM   15  C   UNL     1      -8.502   9.874  67.942  1.00  0.00    -0.121 C  
BRANCH  15  16
HETATM   16  C   UNL     1      -7.435   9.271  67.073  1.00  0.00    -0.091 C  
HETATM   17  O   UNL     1      -6.999   9.875  66.093  1.00  0.00    -0.093 OA 
BRANCH  16  18
HETATM   18  C   UNL     1      -6.891   7.941  67.477  1.00  0.00    -0.070 C  
HETATM   19  C   UNL     1      -7.555   7.198  68.376  1.00  0.00    -0.118 C  
BRANCH  19  20
HETATM   20  C   UNL     1      -7.165   5.852  68.828  1.00  0.00    -0.083 A  
HETATM   21  C   UNL     1      -7.086   5.504  70.188  1.00  0.00    -0.066 A  
HETATM   22  C   UNL     1      -6.617   4.244  70.576  1.00  0.00    -0.032 A  
HETATM   23  C   UNL     1      -6.767   4.914  67.862  1.00  0.00    -0.055 A  
HETATM   24  C   UNL     1      -6.232   3.334  69.587  1.00  0.00    -0.028 A  
HETATM   25  H   UNL     1      -5.491   1.481  69.263  1.00  0.00     0.000 HD 
HETATM   26  O   UNL     1      -5.753   2.100  69.934  1.00  0.00    -0.016 OA 
HETATM   27  C   UNL     1      -6.306   3.652  68.239  1.00  0.00    -0.036 A  
BRANCH  22  28
HETATM   28  O   UNL     1      -6.477   3.799  71.864  1.00  0.00    -0.014 OA 
HETATM   29  C   UNL     1      -7.584   3.994  72.735  1.00  0.00    -0.074 C  
ENDBRANCH  22  28
ENDBRANCH  19  20
ENDBRANCH  16  18
ENDBRANCH  15  16
ENDBRANCH  13  15
ENDBRANCH  12  13
ENDBRANCH   5  11
ENDBRANCH   2   3
TORSDOF 8
ENDMDL
MODEL      246
REMARK 921   NORMALIZED FREE ENERGY PREDICTED BY IDOCK:   -3.50 KCAL/MOL
REMARK 922        TOTAL FREE ENERGY PREDICTED BY IDOCK:   -6.68 KCAL/MOL
REMARK 923 INTER-LIGAND FREE ENERGY PREDICTED BY IDOCK:   -6.71 KCAL/MOL
REMARK 924 INTRA-LIGAND FREE ENERGY PREDICTED BY IDOCK:    0.03 KCAL/MOL
REMARK 927      BINDING AFFINITY PREDICTED BY RF-SCORE:    0.00 PKD
ROOT
HETATM    1  C   UNL     1     -10.040   4.194  65.235  1.00  0.00    -0.202 C  
HETATM    2  O   UNL     1      -9.250   4.554  66.365  1.00  0.00    -0.124 OA 
ENDROOT
BRANCH   2   3
HETATM    3  C   UNL     1      -9.681   5.666  67.045  1.00  0.00    -0.143 A  
HETATM    4  C   UNL     1      -9.895   6.903  66.431  1.00  0.00    -0.101 A  
HETATM    5  C   UNL     1     -10.295   8.024  67.171  1.00  0.00    -0.395 A  
HETATM    6  C   UNL     1     -10.570   7.865  68.535  1.00  0.00    -0.146 A  
HETATM    7  H   UNL     1      -9.939   4.232  69.950  1.00  0.00     0.000 HD 
HETATM    8  O   UNL     1      -9.756   4.323  69.022  1.00  0.00    -0.174 OA 
HETATM    9  C   UNL     1     -10.401   6.622  69.155  1.00  0.00    -0.220 A  
HETATM   10  C   UNL     1      -9.951   5.532  68.410  1.00  0.00    -0.159 A  
BRANCH   5  11
HETATM   11  C   UNL     1     -10.464   9.342  66.541  1.00  0.00    -0.204 C  
HETATM   12  C   UNL     1      -9.682   9.791  65.544  1.00  0.00    -0.382 C  
BRANCH  12  13
HETATM   13  C   UNL     1      -9.891  11.148  64.964  1.00  0.00    -0.266 C  
HETATM   14  O   UNL     1      -9.423  11.452  63.866  1.00  0.00    -0.211 OA 
BRANCH  13  15
HETATM   15  C   UNL     1     -10.712  12.128  65.754  1.00  0.00    -0.303 C  
BRANCH  15  16
HETATM   16  C   UNL     1      -9.996  12.649  66.968  1.00  0.00    -0.219 C  
HETATM   17  O   UNL     1      -8.779  12.515  67.093  1.00  0.00    -0.187 OA 
BRANCH  16  18
HETATM   18  C   UNL     1     -10.810  13.380  67.984  1.00  0.00    -0.264 C  
HETATM   19  C   UNL     1     -11.223  12.739  69.089  1.00  0.00    -0.294 C  
BRANCH  19  20
HETATM   20  C   UNL     1     -11.985  13.345  70.194  1.00  0.00    -0.396 A  
HETATM   21  C   UNL     1     -11.872  14.704  70.535  1.00  0.00    -0.367 A  
HETATM   22  C   UNL     1     -12.539  15.217  71.653  1.00  0.00    -0.351 A  
HETATM   23  C   UNL     1     -12.781  12.507  70.992  1.00  0.00    -0.316 A  
HETATM   24  C   UNL     1     -13.325  14.355  72.423  1.00  0.00    -0.455 A  
HETATM   25  H   UNL     1     -14.510  14.237  74.057  1.00  0.00     0.000 HD 
HETATM   26  O   UNL     1     -13.976  14.822  73.533  1.00  0.00     0.302 OA 
HETATM   27  C   UNL     1     -13.457  13.012  72.103  1.00  0.00    -0.638 A  
BRANCH  22  28
HETATM   28  O   UNL     1     -12.490  16.512  72.095  1.00  0.00    -0.203 OA 
HETATM   29  C   UNL     1     -12.085  16.716  73.443  1.00  0.00    -0.288 C  
ENDBRANCH  22  28
ENDBRANCH  19  20
ENDBRANCH  16  18
ENDBRANCH  15  16
ENDBRANCH  13  15
ENDBRANCH  12  13
ENDBRANCH   5  11
ENDBRANCH   2   3
TORSDOF 8
ENDMDL
MODEL      247
REMARK 921   NORMALIZED FREE ENERGY PREDICTED BY IDOCK:   -3.49 KCAL/MOL
REMARK 922        TOTAL FREE ENERGY PREDICTED BY IDOCK:   -6.67 KCAL/MOL
REMARK 923 INTER-LIGAND FREE ENERGY PREDICTED BY IDOCK:   -5.31 KCAL/MOL
REMARK 924 INTRA-LIGAND FREE ENERGY PREDICTED BY IDOCK:   -1.37 KCAL/MOL
REMARK 927      BINDING AFFINITY PREDICTED BY RF-SCORE:    0.00 PKD
ROOT
HETATM    1  C   UNL     1      -7.817  10.115  65.574  1.00  0.00    -0.147 C  
HETATM    2  O   UNL     1      -9.107  10.697  65.406  1.00  0.00    -0.174 OA 
ENDROOT
BRANCH   2   3
HETATM    3  C   UNL     1      -9.882  10.729  66.538  1.00  0.00    -0.203 A  
HETATM    4  C   UNL     1      -9.691   9.866  67.621  1.00  0.00    -0.183 A  
HETATM    5  C   UNL     1     -10.533   9.906  68.741  1.00  0.00    -0.234 A  
HETATM    6  C   UNL     1     -11.523  10.894  68.803  1.00  0.00    -0.376 A  
HETATM    7  H   UNL     1     -11.753  13.223  65.621  1.00  0.00     0.000 HD 
HETATM    8  O   UNL     1     -11.073  12.561  65.568  1.00  0.00    -0.284 OA 
HETATM    9  C   UNL     1     -11.697  11.793  67.745  1.00  0.00    -0.337 A  
HETATM   10  C   UNL     1     -10.883  11.702  66.616  1.00  0.00    -0.283 A  
BRANCH   5  11
HETATM   11  C   UNL     1     -10.375   8.960  69.856  1.00  0.00    -0.215 C  
HETATM   12  C   UNL     1     -11.381   8.606  70.674  1.00  0.00    -0.277 C  
BRANCH  12  13
HETATM   13  C   UNL     1     -11.150   7.659  71.802  1.00  0.00    -0.242 C  
HETATM   14  O   UNL     1     -10.938   8.066  72.944  1.00  0.00    -0.378 OA 
BRANCH  13  15
HETATM   15  C   UNL     1     -11.207   6.187  71.501  1.00  0.00    -0.346 C  
BRANCH  15  16
HETATM   16  C   UNL     1      -9.849   5.547  71.440  1.00  0.00    -0.166 C  
HETATM   17  O   UNL     1      -9.245   5.241  72.468  1.00  0.00    -0.136 OA 
BRANCH  16  18
HETATM   18  C   UNL     1      -9.290   5.251  70.088  1.00  0.00    -0.202 C  
HETATM   19  C   UNL     1     -10.122   5.080  69.049  1.00  0.00    -0.238 C  
BRANCH  19  20
HETATM   20  C   UNL     1      -9.712   4.834  67.656  1.00  0.00    -0.202 A  
HETATM   21  C   UNL     1      -8.494   4.215  67.324  1.00  0.00    -0.100 A  
HETATM   22  C   UNL     1      -8.099   4.089  65.988  1.00  0.00    -0.101 A  
HETATM   23  C   UNL     1     -10.529   5.324  66.625  1.00  0.00    -0.345 A  
HETATM   24  C   UNL     1      -8.938   4.586  64.987  1.00  0.00    -0.149 A  
HETATM   25  H   UNL     1      -9.142   4.832  62.991  1.00  0.00     0.000 HD 
HETATM   26  O   UNL     1      -8.572   4.494  63.671  1.00  0.00    -0.115 OA 
HETATM   27  C   UNL     1     -10.147   5.195  65.289  1.00  0.00     0.224 A  
BRANCH  22  28
HETATM   28  O   UNL     1      -6.932   3.526  65.544  1.00  0.00    -0.055 OA 
HETATM   29  C   UNL     1      -6.924   2.115  65.372  1.00  0.00    -0.044 C  
ENDBRANCH  22  28
ENDBRANCH  19  20
ENDBRANCH  16  18
ENDBRANCH  15  16
ENDBRANCH  13  15
ENDBRANCH  12  13
ENDBRANCH   5  11
ENDBRANCH   2   3
TORSDOF 8
ENDMDL
MODEL      248
REMARK 921   NORMALIZED FREE ENERGY PREDICTED BY IDOCK:   -3.46 KCAL/MOL
REMARK 922        TOTAL FREE ENERGY PREDICTED BY IDOCK:   -6.62 KCAL/MOL
REMARK 923 INTER-LIGAND FREE ENERGY PREDICTED BY IDOCK:   -5.96 KCAL/MOL
REMARK 924 INTRA-LIGAND FREE ENERGY PREDICTED BY IDOCK:   -0.66 KCAL/MOL
REMARK 927      BINDING AFFINITY PREDICTED BY RF-SCORE:    0.00 PKD
ROOT
HETATM    1  C   UNL     1     -11.204  16.502  64.709  1.00  0.00    -0.143 C  
HETATM    2  O   UNL     1     -10.558  17.451  65.553  1.00  0.00    -0.595 OA 
ENDROOT
BRANCH   2   3
HETATM    3  C   UNL     1      -9.770  16.910  66.539  1.00  0.00    -0.281 A  
HETATM    4  C   UNL     1      -9.777  15.550  66.864  1.00  0.00    -0.243 A  
HETATM    5  C   UNL     1      -8.986  15.047  67.906  1.00  0.00    -0.175 A  
HETATM    6  C   UNL     1      -8.111  15.918  68.566  1.00  0.00    -0.157 A  
HETATM    7  H   UNL     1      -8.278  19.677  67.363  1.00  0.00     0.000 HD 
HETATM    8  O   UNL     1      -8.872  19.096  66.902  1.00  0.00    -0.286 OA 
HETATM    9  C   UNL     1      -8.062  17.274  68.222  1.00  0.00    -0.246 A  
HETATM   10  C   UNL     1      -8.896  17.764  67.218  1.00  0.00    -0.238 A  
BRANCH   5  11
HETATM   11  C   UNL     1      -9.034  13.629  68.292  1.00  0.00    -0.187 C  
HETATM   12  C   UNL     1      -9.945  12.763  67.817  1.00  0.00    -0.219 C  
BRANCH  12  13
HETATM   13  C   UNL     1      -9.953  11.341  68.266  1.00  0.00    -0.195 C  
HETATM   14  O   UNL     1      -9.074  10.901  69.008  1.00  0.00    -0.163 OA 
BRANCH  13  15
HETATM   15  C   UNL     1     -11.085  10.468  67.802  1.00  0.00    -0.382 C  
BRANCH  15  16
HETATM   16  C   UNL     1     -10.642   9.082  67.428  1.00  0.00    -0.239 C  
HETATM   17  O   UNL     1     -10.042   8.870  66.374  1.00  0.00    -0.288 OA 
BRANCH  16  18
HETATM   18  C   UNL     1     -10.909   7.988  68.408  1.00  0.00     0.030 C  
HETATM   19  C   UNL     1      -9.978   7.675  69.322  1.00  0.00    -0.180 C  
BRANCH  19  20
HETATM   20  C   UNL     1     -10.125   6.658  70.378  1.00  0.00    -0.205 A  
HETATM   21  C   UNL     1      -9.643   5.345  70.235  1.00  0.00    -0.236 A  
HETATM   22  C   UNL     1      -9.890   4.384  71.222  1.00  0.00    -0.190 A  
HETATM   23  C   UNL     1     -10.857   6.993  71.528  1.00  0.00    -0.255 A  
HETATM   24  C   UNL     1     -10.620   4.753  72.355  1.00  0.00    -0.180 A  
HETATM   25  H   UNL     1     -11.389   4.082  74.100  1.00  0.00     0.000 HD 
HETATM   26  O   UNL     1     -10.893   3.832  73.330  1.00  0.00    -0.186 OA 
HETATM   27  C   UNL     1     -11.100   6.044  72.521  1.00  0.00    -0.321 A  
BRANCH  22  28
HETATM   28  O   UNL     1      -9.491   3.074  71.186  1.00  0.00    -0.131 OA 
HETATM   29  C   UNL     1      -8.692   2.675  70.079  1.00  0.00    -0.070 C  
ENDBRANCH  22  28
ENDBRANCH  19  20
ENDBRANCH  16  18
ENDBRANCH  15  16
ENDBRANCH  13  15
ENDBRANCH  12  13
ENDBRANCH   5  11
ENDBRANCH   2   3
TORSDOF 8
ENDMDL
MODEL      249
REMARK 921   NORMALIZED FREE ENERGY PREDICTED BY IDOCK:   -3.46 KCAL/MOL
REMARK 922        TOTAL FREE ENERGY PREDICTED BY IDOCK:   -6.62 KCAL/MOL
REMARK 923 INTER-LIGAND FREE ENERGY PREDICTED BY IDOCK:   -5.47 KCAL/MOL
REMARK 924 INTRA-LIGAND FREE ENERGY PREDICTED BY IDOCK:   -1.15 KCAL/MOL
REMARK 927      BINDING AFFINITY PREDICTED BY RF-SCORE:    0.00 PKD
ROOT
HETATM    1  C   UNL     1      -5.880  18.690  67.527  1.00  0.00    -0.170 C  
HETATM    2  O   UNL     1      -6.517  18.536  68.792  1.00  0.00    -0.213 OA 
ENDROOT
BRANCH   2   3
HETATM    3  C   UNL     1      -7.060  17.296  69.021  1.00  0.00    -0.233 A  
HETATM    4  C   UNL     1      -8.198  16.824  68.359  1.00  0.00    -0.224 A  
HETATM    5  C   UNL     1      -8.743  15.567  68.654  1.00  0.00    -0.188 A  
HETATM    6  C   UNL     1      -8.074  14.741  69.566  1.00  0.00     0.014 A  
HETATM    7  H   UNL     1      -4.851  16.335  71.202  1.00  0.00     0.000 HD 
HETATM    8  O   UNL     1      -5.292  16.904  70.581  1.00  0.00    -0.220 OA 
HETATM    9  C   UNL     1      -6.909  15.183  70.204  1.00  0.00    -0.046 A  
HETATM   10  C   UNL     1      -6.413  16.459  69.935  1.00  0.00    -0.069 A  
BRANCH   5  11
HETATM   11  C   UNL     1      -9.974  15.091  68.006  1.00  0.00    -0.219 C  
HETATM   12  C   UNL     1      -9.980  14.300  66.919  1.00  0.00    -0.263 C  
BRANCH  12  13
HETATM   13  C   UNL     1     -11.264  13.870  66.295  1.00  0.00    -0.309 C  
HETATM   14  O   UNL     1     -12.052  14.692  65.827  1.00  0.00    -0.304 OA 
BRANCH  13  15
HETATM   15  C   UNL     1     -11.553  12.396  66.237  1.00  0.00    -0.449 C  
BRANCH  15  16
HETATM   16  C   UNL     1     -10.359  11.579  65.829  1.00  0.00    -0.248 C  
HETATM   17  O   UNL     1      -9.868  11.691  64.706  1.00  0.00    -0.241 OA 
BRANCH  16  18
HETATM   18  C   UNL     1      -9.765  10.673  66.856  1.00  0.00    -0.213 C  
HETATM   19  C   UNL     1      -9.562  11.126  68.103  1.00  0.00    -0.181 C  
BRANCH  19  20
HETATM   20  C   UNL     1      -9.034  10.332  69.225  1.00  0.00    -0.190 A  
HETATM   21  C   UNL     1      -9.862   9.571  70.069  1.00  0.00    -0.269 A  
HETATM   22  C   UNL     1      -9.332   8.910  71.182  1.00  0.00    -0.257 A  
HETATM   23  C   UNL     1      -7.663  10.419  69.516  1.00  0.00    -0.159 A  
HETATM   24  C   UNL     1      -7.963   9.016  71.440  1.00  0.00    -0.043 A  
HETATM   25  H   UNL     1      -6.485   8.468  72.707  1.00  0.00     0.000 HD 
HETATM   26  O   UNL     1      -7.416   8.396  72.531  1.00  0.00    -0.147 OA 
HETATM   27  C   UNL     1      -7.124   9.757  70.619  1.00  0.00    -0.097 A  
BRANCH  22  28
HETATM   28  O   UNL     1     -10.038   8.159  72.084  1.00  0.00    -0.208 OA 
HETATM   29  C   UNL     1     -11.456   8.197  71.981  1.00  0.00    -0.320 C  
ENDBRANCH  22  28
ENDBRANCH  19  20
ENDBRANCH  16  18
ENDBRANCH  15  16
ENDBRANCH  13  15
ENDBRANCH  12  13
ENDBRANCH   5  11
ENDBRANCH   2   3
TORSDOF 8
ENDMDL
MODEL      250
REMARK 921   NORMALIZED FREE ENERGY PREDICTED BY IDOCK:   -3.43 KCAL/MOL
REMARK 922        TOTAL FREE ENERGY PREDICTED BY IDOCK:   -6.58 KCAL/MOL
REMARK 923 INTER-LIGAND FREE ENERGY PREDICTED BY IDOCK:   -6.27 KCAL/MOL
REMARK 924 INTRA-LIGAND FREE ENERGY PREDICTED BY IDOCK:   -0.31 KCAL/MOL
REMARK 927      BINDING AFFINITY PREDICTED BY RF-SCORE:    0.00 PKD
ROOT
HETATM    1  C   UNL     1      -5.667  17.545  68.519  1.00  0.00    -0.157 C  
HETATM    2  O   UNL     1      -6.786  17.083  69.271  1.00  0.00    -0.228 OA 
ENDROOT
BRANCH   2   3
HETATM    3  C   UNL     1      -7.137  15.776  69.046  1.00  0.00    -0.159 A  
HETATM    4  C   UNL     1      -8.263  15.402  68.306  1.00  0.00    -0.145 A  
HETATM    5  C   UNL     1      -8.608  14.055  68.136  1.00  0.00    -0.181 A  
HETATM    6  C   UNL     1      -7.751  13.072  68.646  1.00  0.00    -0.069 A  
HETATM    7  H   UNL     1      -4.620  14.452  70.618  1.00  0.00     0.000 HD 
HETATM    8  O   UNL     1      -5.189  15.130  70.272  1.00  0.00    -0.108 OA 
HETATM    9  C   UNL     1      -6.597  13.430  69.352  1.00  0.00    -0.075 A  
HETATM   10  C   UNL     1      -6.300  14.778  69.555  1.00  0.00    -0.127 A  
BRANCH   5  11
HETATM   11  C   UNL     1      -9.824  13.657  67.410  1.00  0.00    -0.234 C  
HETATM   12  C   UNL     1      -9.992  13.844  66.090  1.00  0.00    -0.322 C  
BRANCH  12  13
HETATM   13  C   UNL     1     -11.259  13.439  65.417  1.00  0.00    -0.288 C  
HETATM   14  O   UNL     1     -12.172  14.246  65.236  1.00  0.00    -0.395 OA 
BRANCH  13  15
HETATM   15  C   UNL     1     -11.377  12.017  64.946  1.00  0.00    -0.366 C  
BRANCH  15  16
HETATM   16  C   UNL     1     -10.348  11.109  65.559  1.00  0.00    -0.268 C  
HETATM   17  O   UNL     1      -9.193  11.081  65.134  1.00  0.00    -0.208 OA 
BRANCH  16  18
HETATM   18  C   UNL     1     -10.769  10.287  66.731  1.00  0.00    -0.216 C  
HETATM   19  C   UNL     1     -10.137  10.434  67.906  1.00  0.00    -0.200 C  
BRANCH  19  20
HETATM   20  C   UNL     1     -10.477   9.731  69.154  1.00  0.00    -0.232 A  
HETATM   21  C   UNL     1     -10.241   8.357  69.337  1.00  0.00    -0.208 A  
HETATM   22  C   UNL     1     -10.668   7.708  70.500  1.00  0.00    -0.236 A  
HETATM   23  C   UNL     1     -11.149  10.445  70.160  1.00  0.00    -0.383 A  
HETATM   24  C   UNL     1     -11.331   8.450  71.481  1.00  0.00    -0.276 A  
HETATM   25  H   UNL     1     -12.229   8.345  73.290  1.00  0.00     0.000 HD 
HETATM   26  O   UNL     1     -11.778   7.841  72.623  1.00  0.00    -0.349 OA 
HETATM   27  C   UNL     1     -11.571   9.808  71.326  1.00  0.00    -0.465 A  
BRANCH  22  28
HETATM   28  O   UNL     1     -10.514   6.377  70.782  1.00  0.00    -0.209 OA 
HETATM   29  C   UNL     1      -9.722   5.616  69.878  1.00  0.00    -0.168 C  
ENDBRANCH  22  28
ENDBRANCH  19  20
ENDBRANCH  16  18
ENDBRANCH  15  16
ENDBRANCH  13  15
ENDBRANCH  12  13
ENDBRANCH   5  11
ENDBRANCH   2   3
TORSDOF 8
ENDMDL
MODEL      251
REMARK 921   NORMALIZED FREE ENERGY PREDICTED BY IDOCK:   -3.42 KCAL/MOL
REMARK 922        TOTAL FREE ENERGY PREDICTED BY IDOCK:   -6.57 KCAL/MOL
REMARK 923 INTER-LIGAND FREE ENERGY PREDICTED BY IDOCK:   -5.95 KCAL/MOL
REMARK 924 INTRA-LIGAND FREE ENERGY PREDICTED BY IDOCK:   -0.61 KCAL/MOL
REMARK 927      BINDING AFFINITY PREDICTED BY RF-SCORE:    0.00 PKD
ROOT
HETATM    1  C   UNL     1      -9.953  18.219  68.851  1.00  0.00    -0.339 C  
HETATM    2  O   UNL     1     -11.004  17.408  68.331  1.00  0.00    -0.285 OA 
ENDROOT
BRANCH   2   3
HETATM    3  C   UNL     1     -10.593  16.352  67.557  1.00  0.00    -0.309 A  
HETATM    4  C   UNL     1     -10.362  15.072  68.068  1.00  0.00    -0.236 A  
HETATM    5  C   UNL     1      -9.903  14.032  67.248  1.00  0.00    -0.242 A  
HETATM    6  C   UNL     1      -9.762  14.271  65.875  1.00  0.00    -0.289 A  
HETATM    7  H   UNL     1     -10.563  17.967  64.737  1.00  0.00     0.000 HD 
HETATM    8  O   UNL     1     -10.669  17.818  65.669  1.00  0.00    -0.505 OA 
HETATM    9  C   UNL     1     -10.031  15.536  65.342  1.00  0.00    -0.339 A  
HETATM   10  C   UNL     1     -10.436  16.571  66.185  1.00  0.00    -0.294 A  
BRANCH   5  11
HETATM   11  C   UNL     1      -9.601  12.700  67.792  1.00  0.00    -0.197 C  
HETATM   12  C   UNL     1     -10.470  11.987  68.528  1.00  0.00    -0.244 C  
BRANCH  12  13
HETATM   13  C   UNL     1     -10.094  10.649  69.070  1.00  0.00    -0.213 C  
HETATM   14  O   UNL     1      -9.050  10.487  69.702  1.00  0.00    -0.111 OA 
BRANCH  13  15
HETATM   15  C   UNL     1     -11.045   9.509  68.837  1.00  0.00    -0.050 C  
BRANCH  15  16
HETATM   16  C   UNL     1     -11.217   8.632  70.046  1.00  0.00    -0.094 C  
HETATM   17  O   UNL     1     -11.630   9.092  71.110  1.00  0.00    -0.277 OA 
BRANCH  16  18
HETATM   18  C   UNL     1     -10.919   7.178  69.886  1.00  0.00    -0.278 C  
HETATM   19  C   UNL     1     -10.374   6.734  68.743  1.00  0.00    -0.211 C  
BRANCH  19  20
HETATM   20  C   UNL     1      -9.981   5.342  68.468  1.00  0.00    -0.227 A  
HETATM   21  C   UNL     1      -9.708   4.416  69.491  1.00  0.00    -0.280 A  
HETATM   22  C   UNL     1      -9.244   3.132  69.185  1.00  0.00    -0.154 A  
HETATM   23  C   UNL     1      -9.782   4.957  67.132  1.00  0.00    -0.194 A  
HETATM   24  C   UNL     1      -9.059   2.783  67.845  1.00  0.00    -0.182 A  
HETATM   25  H   UNL     1      -8.464   1.302  66.603  1.00  0.00     0.000 HD 
HETATM   26  O   UNL     1      -8.589   1.540  67.514  1.00  0.00    -0.075 OA 
HETATM   27  C   UNL     1      -9.327   3.676  66.818  1.00  0.00    -0.210 A  
BRANCH  22  28
HETATM   28  O   UNL     1      -8.926   2.155  70.091  1.00  0.00    -0.071 OA 
HETATM   29  C   UNL     1      -7.989   2.499  71.104  1.00  0.00    -0.046 C  
ENDBRANCH  22  28
ENDBRANCH  19  20
ENDBRANCH  16  18
ENDBRANCH  15  16
ENDBRANCH  13  15
ENDBRANCH  12  13
ENDBRANCH   5  11
ENDBRANCH   2   3
TORSDOF 8
ENDMDL
MODEL      252
REMARK 921   NORMALIZED FREE ENERGY PREDICTED BY IDOCK:   -3.41 KCAL/MOL
REMARK 922        TOTAL FREE ENERGY PREDICTED BY IDOCK:   -6.54 KCAL/MOL
REMARK 923 INTER-LIGAND FREE ENERGY PREDICTED BY IDOCK:   -6.08 KCAL/MOL
REMARK 924 INTRA-LIGAND FREE ENERGY PREDICTED BY IDOCK:   -0.47 KCAL/MOL
REMARK 927      BINDING AFFINITY PREDICTED BY RF-SCORE:    0.00 PKD
ROOT
HETATM    1  C   UNL     1     -12.405  14.315  64.106  1.00  0.00    -0.327 C  
HETATM    2  O   UNL     1     -11.521  15.372  64.472  1.00  0.00    -0.394 OA 
ENDROOT
BRANCH   2   3
HETATM    3  C   UNL     1     -10.846  15.183  65.652  1.00  0.00    -0.360 A  
HETATM    4  C   UNL     1     -10.782  13.949  66.308  1.00  0.00    -0.285 A  
HETATM    5  C   UNL     1     -10.116  13.810  67.533  1.00  0.00    -0.241 A  
HETATM    6  C   UNL     1      -9.431  14.915  68.054  1.00  0.00    -0.198 A  
HETATM    7  H   UNL     1      -9.745  18.227  65.927  1.00  0.00     0.000 HD 
HETATM    8  O   UNL     1     -10.209  17.485  65.558  1.00  0.00    -0.608 OA 
HETATM    9  C   UNL     1      -9.450  16.144  67.387  1.00  0.00    -0.227 A  
HETATM   10  C   UNL     1     -10.163  16.275  66.195  1.00  0.00    -0.346 A  
BRANCH   5  11
HETATM   11  C   UNL     1     -10.096  12.531  68.257  1.00  0.00    -0.228 C  
HETATM   12  C   UNL     1     -10.191  11.336  67.650  1.00  0.00    -0.206 C  
BRANCH  12  13
HETATM   13  C   UNL     1     -10.187  10.074  68.444  1.00  0.00    -0.172 C  
HETATM   14  O   UNL     1     -10.520   9.001  67.940  1.00  0.00    -0.231 OA 
BRANCH  13  15
HETATM   15  C   UNL     1      -9.742  10.152  69.878  1.00  0.00    -0.195 C  
BRANCH  15  16
HETATM   16  C   UNL     1     -10.687   9.468  70.825  1.00  0.00    -0.321 C  
HETATM   17  O   UNL     1     -11.628  10.078  71.333  1.00  0.00    -0.368 OA 
BRANCH  16  18
HETATM   18  C   UNL     1     -10.472   8.012  71.078  1.00  0.00    -0.229 C  
HETATM   19  C   UNL     1      -9.288   7.455  70.779  1.00  0.00    -0.159 C  
BRANCH  19  20
HETATM   20  C   UNL     1      -8.920   6.050  71.021  1.00  0.00    -0.146 A  
HETATM   21  C   UNL     1      -9.434   4.990  70.254  1.00  0.00    -0.237 A  
HETATM   22  C   UNL     1      -9.134   3.663  70.579  1.00  0.00    -0.116 A  
HETATM   23  C   UNL     1      -8.097   5.757  72.121  1.00  0.00    -0.108 A  
HETATM   24  C   UNL     1      -8.310   3.408  71.679  1.00  0.00    -0.065 A  
HETATM   25  H   UNL     1      -7.452   1.946  72.781  1.00  0.00     0.000 HD 
HETATM   26  O   UNL     1      -8.012   2.120  72.034  1.00  0.00    -0.047 OA 
HETATM   27  C   UNL     1      -7.786   4.437  72.447  1.00  0.00    -0.084 A  
BRANCH  22  28
HETATM   28  O   UNL     1      -9.590   2.551  69.922  1.00  0.00    -0.100 OA 
HETATM   29  C   UNL     1      -8.689   1.924  69.018  1.00  0.00    -0.075 C  
ENDBRANCH  22  28
ENDBRANCH  19  20
ENDBRANCH  16  18
ENDBRANCH  15  16
ENDBRANCH  13  15
ENDBRANCH  12  13
ENDBRANCH   5  11
ENDBRANCH   2   3
TORSDOF 8
ENDMDL
MODEL      253
REMARK 921   NORMALIZED FREE ENERGY PREDICTED BY IDOCK:   -3.37 KCAL/MOL
REMARK 922        TOTAL FREE ENERGY PREDICTED BY IDOCK:   -6.50 KCAL/MOL
REMARK 923 INTER-LIGAND FREE ENERGY PREDICTED BY IDOCK:   -5.22 KCAL/MOL
REMARK 924 INTRA-LIGAND FREE ENERGY PREDICTED BY IDOCK:   -1.28 KCAL/MOL
REMARK 927      BINDING AFFINITY PREDICTED BY RF-SCORE:    0.00 PKD
ROOT
HETATM    1  C   UNL     1     -11.848  15.980  64.283  1.00  0.00     0.005 C  
HETATM    2  O   UNL     1     -11.670  14.604  63.958  1.00  0.00    -0.223 OA 
ENDROOT
BRANCH   2   3
HETATM    3  C   UNL     1     -11.204  13.820  64.985  1.00  0.00    -0.335 A  
HETATM    4  C   UNL     1      -9.953  14.004  65.581  1.00  0.00    -0.309 A  
HETATM    5  C   UNL     1      -9.500  13.154  66.598  1.00  0.00    -0.260 A  
HETATM    6  C   UNL     1     -10.363  12.162  67.080  1.00  0.00    -0.233 A  
HETATM    7  H   UNL     1     -13.851  11.953  65.239  1.00  0.00     0.000 HD 
HETATM    8  O   UNL     1     -13.279  12.634  64.906  1.00  0.00    -0.819 OA 
HETATM    9  C   UNL     1     -11.635  11.994  66.522  1.00  0.00    -0.384 A  
HETATM   10  C   UNL     1     -12.047  12.817  65.474  1.00  0.00    -0.465 A  
BRANCH   5  11
HETATM   11  C   UNL     1      -8.161  13.304  67.187  1.00  0.00    -0.123 C  
HETATM   12  C   UNL     1      -7.857  12.926  68.441  1.00  0.00    -0.133 C  
BRANCH  12  13
HETATM   13  C   UNL     1      -6.485  13.127  68.987  1.00  0.00    -0.103 C  
HETATM   14  O   UNL     1      -5.750  14.016  68.556  1.00  0.00    -0.082 OA 
BRANCH  13  15
HETATM   15  C   UNL     1      -6.035  12.221  70.099  1.00  0.00    -0.148 C  
BRANCH  15  16
HETATM   16  C   UNL     1      -6.493  10.801  69.921  1.00  0.00    -0.135 C  
HETATM   17  O   UNL     1      -6.926  10.150  70.872  1.00  0.00    -0.341 OA 
BRANCH  16  18
HETATM   18  C   UNL     1      -6.453  10.235  68.540  1.00  0.00    -0.052 C  
HETATM   19  C   UNL     1      -7.402   9.371  68.149  1.00  0.00    -0.078 C  
BRANCH  19  20
HETATM   20  C   UNL     1      -7.515   8.775  66.807  1.00  0.00    -0.086 A  
HETATM   21  C   UNL     1      -7.664   9.553  65.645  1.00  0.00    -0.101 A  
HETATM   22  C   UNL     1      -7.867   8.945  64.401  1.00  0.00    -0.128 A  
HETATM   23  C   UNL     1      -7.572   7.376  66.701  1.00  0.00    -0.100 A  
HETATM   24  C   UNL     1      -7.915   7.550  64.332  1.00  0.00    -0.117 A  
HETATM   25  H   UNL     1      -8.162   5.977  63.086  1.00  0.00     0.000 HD 
HETATM   26  O   UNL     1      -8.129   6.925  63.133  1.00  0.00    -0.100 OA 
HETATM   27  C   UNL     1      -7.765   6.761  65.464  1.00  0.00    -0.101 A  
BRANCH  22  28
HETATM   28  O   UNL     1      -8.044   9.593  63.208  1.00  0.00    -0.132 OA 
HETATM   29  C   UNL     1      -6.939  10.337  62.711  1.00  0.00    -0.134 C  
ENDBRANCH  22  28
ENDBRANCH  19  20
ENDBRANCH  16  18
ENDBRANCH  15  16
ENDBRANCH  13  15
ENDBRANCH  12  13
ENDBRANCH   5  11
ENDBRANCH   2   3
TORSDOF 8
ENDMDL
MODEL      254
REMARK 921   NORMALIZED FREE ENERGY PREDICTED BY IDOCK:   -3.37 KCAL/MOL
REMARK 922        TOTAL FREE ENERGY PREDICTED BY IDOCK:   -6.49 KCAL/MOL
REMARK 923 INTER-LIGAND FREE ENERGY PREDICTED BY IDOCK:   -5.86 KCAL/MOL
REMARK 924 INTRA-LIGAND FREE ENERGY PREDICTED BY IDOCK:   -0.62 KCAL/MOL
REMARK 927      BINDING AFFINITY PREDICTED BY RF-SCORE:    0.00 PKD
ROOT
HETATM    1  C   UNL     1     -10.696   5.020  66.249  1.00  0.00    -0.199 C  
HETATM    2  O   UNL     1      -9.711   4.002  66.399  1.00  0.00    -0.199 OA 
ENDROOT
BRANCH   2   3
HETATM    3  C   UNL     1      -8.447   4.455  66.685  1.00  0.00    -0.105 A  
HETATM    4  C   UNL     1      -8.135   5.809  66.837  1.00  0.00    -0.102 A  
HETATM    5  C   UNL     1      -6.822   6.230  67.087  1.00  0.00    -0.066 A  
HETATM    6  C   UNL     1      -5.830   5.260  67.277  1.00  0.00    -0.018 A  
HETATM    7  H   UNL     1      -7.048   1.526  66.858  1.00  0.00     0.000 HD 
HETATM    8  O   UNL     1      -7.733   2.173  66.734  1.00  0.00    -0.065 OA 
HETATM    9  C   UNL     1      -6.136   3.899  67.171  1.00  0.00    -0.025 A  
HETATM   10  C   UNL     1      -7.438   3.503  66.868  1.00  0.00    -0.075 A  
BRANCH   5  11
HETATM   11  C   UNL     1      -6.477   7.656  67.188  1.00  0.00    -0.055 C  
HETATM   12  C   UNL     1      -7.120   8.518  67.993  1.00  0.00    -0.086 C  
BRANCH  12  13
HETATM   13  C   UNL     1      -6.737   9.958  68.032  1.00  0.00    -0.061 C  
HETATM   14  O   UNL     1      -5.736  10.368  67.443  1.00  0.00    -0.044 OA 
BRANCH  13  15
HETATM   15  C   UNL     1      -7.626  10.898  68.796  1.00  0.00    -0.121 C  
BRANCH  15  16
HETATM   16  C   UNL     1      -7.105  12.308  68.823  1.00  0.00    -0.107 C  
HETATM   17  O   UNL     1      -6.283  12.664  69.667  1.00  0.00    -0.120 OA 
BRANCH  16  18
HETATM   18  C   UNL     1      -7.584  13.237  67.757  1.00  0.00    -0.161 C  
HETATM   19  C   UNL     1      -8.901  13.434  67.591  1.00  0.00    -0.200 C  
BRANCH  19  20
HETATM   20  C   UNL     1      -9.511  14.356  66.618  1.00  0.00    -0.300 A  
HETATM   21  C   UNL     1      -9.397  15.753  66.726  1.00  0.00    -0.264 A  
HETATM   22  C   UNL     1     -10.073  16.595  65.837  1.00  0.00    -0.320 A  
HETATM   23  C   UNL     1     -10.315  13.816  65.602  1.00  0.00    -0.321 A  
HETATM   24  C   UNL     1     -10.863  16.023  64.835  1.00  0.00    -0.372 A  
HETATM   25  H   UNL     1     -12.088  16.431  63.280  1.00  0.00     0.000 HD 
HETATM   26  O   UNL     1     -11.551  16.819  63.960  1.00  0.00    -1.195 OA 
HETATM   27  C   UNL     1     -10.987  14.647  64.705  1.00  0.00    -0.399 A  
BRANCH  22  28
HETATM   28  O   UNL     1     -10.056  17.964  65.854  1.00  0.00    -0.533 OA 
HETATM   29  C   UNL     1     -10.058  18.591  67.130  1.00  0.00    -0.353 C  
ENDBRANCH  22  28
ENDBRANCH  19  20
ENDBRANCH  16  18
ENDBRANCH  15  16
ENDBRANCH  13  15
ENDBRANCH  12  13
ENDBRANCH   5  11
ENDBRANCH   2   3
TORSDOF 8
ENDMDL
MODEL      255
REMARK 921   NORMALIZED FREE ENERGY PREDICTED BY IDOCK:   -3.35 KCAL/MOL
REMARK 922        TOTAL FREE ENERGY PREDICTED BY IDOCK:   -6.46 KCAL/MOL
REMARK 923 INTER-LIGAND FREE ENERGY PREDICTED BY IDOCK:   -5.67 KCAL/MOL
REMARK 924 INTRA-LIGAND FREE ENERGY PREDICTED BY IDOCK:   -0.78 KCAL/MOL
REMARK 927      BINDING AFFINITY PREDICTED BY RF-SCORE:    0.00 PKD
ROOT
HETATM    1  C   UNL     1      -6.761   3.535  69.351  1.00  0.00    -0.037 C  
HETATM    2  O   UNL     1      -6.840   3.022  68.023  1.00  0.00    -0.047 OA 
ENDROOT
BRANCH   2   3
HETATM    3  C   UNL     1      -7.549   3.799  67.141  1.00  0.00    -0.079 A  
HETATM    4  C   UNL     1      -7.907   5.124  67.405  1.00  0.00    -0.096 A  
HETATM    5  C   UNL     1      -8.668   5.868  66.494  1.00  0.00    -0.126 A  
HETATM    6  C   UNL     1      -8.991   5.291  65.259  1.00  0.00    -0.130 A  
HETATM    7  H   UNL     1      -7.768   1.564  64.792  1.00  0.00     0.000 HD 
HETATM    8  O   UNL     1      -7.536   1.945  65.631  1.00  0.00    -0.067 OA 
HETATM    9  C   UNL     1      -8.602   3.980  64.964  1.00  0.00    -0.115 A  
HETATM   10  C   UNL     1      -7.891   3.238  65.907  1.00  0.00    -0.085 A  
BRANCH   5  11
HETATM   11  C   UNL     1      -9.099   7.242  66.792  1.00  0.00    -0.172 C  
HETATM   12  C   UNL     1      -9.519   8.106  65.852  1.00  0.00    -0.082 C  
BRANCH  12  13
HETATM   13  C   UNL     1      -9.921   9.494  66.217  1.00  0.00    -0.274 C  
HETATM   14  O   UNL     1     -10.768   9.706  67.087  1.00  0.00    -0.250 OA 
BRANCH  13  15
HETATM   15  C   UNL     1      -9.242  10.630  65.503  1.00  0.00    -0.228 C  
BRANCH  15  16
HETATM   16  C   UNL     1     -10.211  11.579  64.856  1.00  0.00    -0.275 C  
HETATM   17  O   UNL     1     -10.939  11.212  63.935  1.00  0.00    -0.374 OA 
BRANCH  16  18
HETATM   18  C   UNL     1     -10.291  12.963  65.412  1.00  0.00    -0.310 C  
HETATM   19  C   UNL     1     -10.239  13.148  66.740  1.00  0.00    -0.252 C  
BRANCH  19  20
HETATM   20  C   UNL     1     -10.255  14.453  67.422  1.00  0.00    -0.247 A  
HETATM   21  C   UNL     1     -10.824  14.635  68.695  1.00  0.00    -0.261 A  
HETATM   22  C   UNL     1     -10.905  15.910  69.265  1.00  0.00    -0.276 A  
HETATM   23  C   UNL     1      -9.767  15.573  66.729  1.00  0.00    -0.252 A  
HETATM   24  C   UNL     1     -10.407  17.001  68.549  1.00  0.00    -0.359 A  
HETATM   25  H   UNL     1     -10.149  19.006  68.584  1.00  0.00     0.000 HD 
HETATM   26  O   UNL     1     -10.488  18.264  69.071  1.00  0.00    -0.216 OA 
HETATM   27  C   UNL     1      -9.836  16.847  67.294  1.00  0.00    -0.265 A  
BRANCH  22  28
HETATM   28  O   UNL     1     -11.453  16.213  70.483  1.00  0.00    -0.367 OA 
HETATM   29  C   UNL     1     -12.708  15.618  70.789  1.00  0.00    -0.431 C  
ENDBRANCH  22  28
ENDBRANCH  19  20
ENDBRANCH  16  18
ENDBRANCH  15  16
ENDBRANCH  13  15
ENDBRANCH  12  13
ENDBRANCH   5  11
ENDBRANCH   2   3
TORSDOF 8
ENDMDL
MODEL      256
REMARK 921   NORMALIZED FREE ENERGY PREDICTED BY IDOCK:   -3.31 KCAL/MOL
REMARK 922        TOTAL FREE ENERGY PREDICTED BY IDOCK:   -6.40 KCAL/MOL
REMARK 923 INTER-LIGAND FREE ENERGY PREDICTED BY IDOCK:   -5.62 KCAL/MOL
REMARK 924 INTRA-LIGAND FREE ENERGY PREDICTED BY IDOCK:   -0.79 KCAL/MOL
REMARK 927      BINDING AFFINITY PREDICTED BY RF-SCORE:    0.00 PKD
ROOT
HETATM    1  C   UNL     1     -12.035  15.585  63.898  1.00  0.00     0.222 C  
HETATM    2  O   UNL     1     -11.295  16.690  64.409  1.00  0.00    -1.023 OA 
ENDROOT
BRANCH   2   3
HETATM    3  C   UNL     1     -10.580  16.431  65.552  1.00  0.00    -0.330 A  
HETATM    4  C   UNL     1     -10.281  15.138  65.992  1.00  0.00    -0.325 A  
HETATM    5  C   UNL     1      -9.584  14.919  67.188  1.00  0.00    -0.229 A  
HETATM    6  C   UNL     1      -9.105  16.026  67.899  1.00  0.00    -0.187 A  
HETATM    7  H   UNL     1     -10.051  19.536  66.354  1.00  0.00     0.000 HD 
HETATM    8  O   UNL     1     -10.377  18.794  65.858  1.00  0.00    -0.524 OA 
HETATM    9  C   UNL     1      -9.359  17.326  67.448  1.00  0.00    -0.236 A  
HETATM   10  C   UNL     1     -10.101  17.522  66.283  1.00  0.00    -0.336 A  
BRANCH   5  11
HETATM   11  C   UNL     1      -9.320  13.561  67.686  1.00  0.00    -0.216 C  
HETATM   12  C   UNL     1      -9.305  12.473  66.898  1.00  0.00    -0.219 C  
BRANCH  12  13
HETATM   13  C   UNL     1      -9.053  11.119  67.469  1.00  0.00    -0.146 C  
HETATM   14  O   UNL     1      -9.099  10.110  66.765  1.00  0.00    -0.138 OA 
BRANCH  13  15
HETATM   15  C   UNL     1      -8.717  11.030  68.932  1.00  0.00    -0.122 C  
BRANCH  15  16
HETATM   16  C   UNL     1      -9.824  10.429  69.752  1.00  0.00    -0.091 C  
HETATM   17  O   UNL     1     -10.849  11.065  69.997  1.00  0.00    -0.172 OA 
BRANCH  16  18
HETATM   18  C   UNL     1      -9.653   9.018  70.208  1.00  0.00    -0.230 C  
HETATM   19  C   UNL     1      -9.185   8.771  71.441  1.00  0.00    -0.325 C  
BRANCH  19  20
HETATM   20  C   UNL     1      -9.014   7.437  72.040  1.00  0.00    -0.143 A  
HETATM   21  C   UNL     1      -7.758   6.813  72.150  1.00  0.00    -0.095 A  
HETATM   22  C   UNL     1      -7.653   5.505  72.636  1.00  0.00    -0.098 A  
HETATM   23  C   UNL     1     -10.162   6.727  72.426  1.00  0.00    -0.201 A  
HETATM   24  C   UNL     1      -8.816   4.829  73.013  1.00  0.00    -0.112 A  
HETATM   25  H   UNL     1      -9.539   3.083  73.732  1.00  0.00     0.000 HD 
HETATM   26  O   UNL     1      -8.748   3.543  73.475  1.00  0.00    -0.082 OA 
HETATM   27  C   UNL     1     -10.065   5.426  72.919  1.00  0.00    -0.204 A  
BRANCH  22  28
HETATM   28  O   UNL     1      -6.493   4.788  72.770  1.00  0.00    -0.039 OA 
HETATM   29  C   UNL     1      -5.872   4.342  71.571  1.00  0.00    -0.016 C  
ENDBRANCH  22  28
ENDBRANCH  19  20
ENDBRANCH  16  18
ENDBRANCH  15  16
ENDBRANCH  13  15
ENDBRANCH  12  13
ENDBRANCH   5  11
ENDBRANCH   2   3
TORSDOF 8
ENDMDL
MODEL      257
REMARK 921   NORMALIZED FREE ENERGY PREDICTED BY IDOCK:   -3.31 KCAL/MOL
REMARK 922        TOTAL FREE ENERGY PREDICTED BY IDOCK:   -6.40 KCAL/MOL
REMARK 923 INTER-LIGAND FREE ENERGY PREDICTED BY IDOCK:   -5.72 KCAL/MOL
REMARK 924 INTRA-LIGAND FREE ENERGY PREDICTED BY IDOCK:   -0.67 KCAL/MOL
REMARK 927      BINDING AFFINITY PREDICTED BY RF-SCORE:    0.00 PKD
ROOT
HETATM    1  C   UNL     1      -9.382   3.405  64.055  1.00  0.00    -0.129 C  
HETATM    2  O   UNL     1      -8.592   3.486  65.238  1.00  0.00    -0.107 OA 
ENDROOT
BRANCH   2   3
HETATM    3  C   UNL     1      -9.047   4.376  66.180  1.00  0.00    -0.130 A  
HETATM    4  C   UNL     1      -9.112   5.755  65.961  1.00  0.00    -0.163 A  
HETATM    5  C   UNL     1      -9.543   6.632  66.966  1.00  0.00    -0.183 A  
HETATM    6  C   UNL     1     -10.001   6.094  68.176  1.00  0.00    -0.158 A  
HETATM    7  H   UNL     1      -9.759   2.161  68.449  1.00  0.00     0.000 HD 
HETATM    8  O   UNL     1      -9.451   2.511  67.621  1.00  0.00    -0.187 OA 
HETATM    9  C   UNL     1      -9.983   4.712  68.392  1.00  0.00    -0.134 A  
HETATM   10  C   UNL     1      -9.499   3.861  67.399  1.00  0.00    -0.195 A  
BRANCH   5  11
HETATM   11  C   UNL     1      -9.556   8.088  66.763  1.00  0.00    -0.281 C  
HETATM   12  C   UNL     1      -9.058   8.687  65.669  1.00  0.00    -0.221 C  
BRANCH  12  13
HETATM   13  C   UNL     1      -9.081  10.172  65.534  1.00  0.00    -0.178 C  
HETATM   14  O   UNL     1      -8.079  10.797  65.186  1.00  0.00    -0.113 OA 
BRANCH  13  15
HETATM   15  C   UNL     1     -10.377  10.879  65.816  1.00  0.00    -0.303 C  
BRANCH  15  16
HETATM   16  C   UNL     1     -10.424  11.494  67.186  1.00  0.00    -0.224 C  
HETATM   17  O   UNL     1     -10.933  10.895  68.133  1.00  0.00    -0.209 OA 
BRANCH  16  18
HETATM   18  C   UNL     1      -9.782  12.830  67.361  1.00  0.00    -0.197 C  
HETATM   19  C   UNL     1     -10.547  13.910  67.586  1.00  0.00    -0.247 C  
BRANCH  19  20
HETATM   20  C   UNL     1     -10.050  15.275  67.827  1.00  0.00    -0.230 A  
HETATM   21  C   UNL     1      -8.727  15.539  68.225  1.00  0.00    -0.170 A  
HETATM   22  C   UNL     1      -8.324  16.842  68.537  1.00  0.00    -0.243 A  
HETATM   23  C   UNL     1     -10.962  16.340  67.746  1.00  0.00    -0.281 A  
HETATM   24  C   UNL     1      -9.257  17.878  68.444  1.00  0.00    -0.286 A  
HETATM   25  H   UNL     1      -9.532  19.865  68.696  1.00  0.00     0.000 HD 
HETATM   26  O   UNL     1      -8.898  19.160  68.759  1.00  0.00    -0.356 OA 
HETATM   27  C   UNL     1     -10.565  17.643  68.048  1.00  0.00    -0.379 A  
BRANCH  22  28
HETATM   28  O   UNL     1      -7.074  17.219  68.953  1.00  0.00    -0.224 OA 
HETATM   29  C   UNL     1      -6.289  16.229  69.606  1.00  0.00    -0.198 C  
ENDBRANCH  22  28
ENDBRANCH  19  20
ENDBRANCH  16  18
ENDBRANCH  15  16
ENDBRANCH  13  15
ENDBRANCH  12  13
ENDBRANCH   5  11
ENDBRANCH   2   3
TORSDOF 8
ENDMDL
MODEL      258
REMARK 921   NORMALIZED FREE ENERGY PREDICTED BY IDOCK:   -3.29 KCAL/MOL
REMARK 922        TOTAL FREE ENERGY PREDICTED BY IDOCK:   -6.37 KCAL/MOL
REMARK 923 INTER-LIGAND FREE ENERGY PREDICTED BY IDOCK:   -5.35 KCAL/MOL
REMARK 924 INTRA-LIGAND FREE ENERGY PREDICTED BY IDOCK:   -1.03 KCAL/MOL
REMARK 927      BINDING AFFINITY PREDICTED BY RF-SCORE:    0.00 PKD
ROOT
HETATM    1  C   UNL     1      -7.638   5.692  72.237  1.00  0.00    -0.101 C  
HETATM    2  O   UNL     1      -8.593   6.743  72.357  1.00  0.00    -0.123 OA 
ENDROOT
BRANCH   2   3
HETATM    3  C   UNL     1      -9.568   6.755  71.390  1.00  0.00    -0.167 A  
HETATM    4  C   UNL     1      -9.290   6.867  70.025  1.00  0.00    -0.158 A  
HETATM    5  C   UNL     1     -10.319   6.917  69.075  1.00  0.00    -0.203 A  
HETATM    6  C   UNL     1     -11.642   6.759  69.507  1.00  0.00    -0.183 A  
HETATM    7  H   UNL     1     -12.083   6.385  73.415  1.00  0.00     0.000 HD 
HETATM    8  O   UNL     1     -11.180   6.485  73.135  1.00  0.00    -0.205 OA 
HETATM    9  C   UNL     1     -11.931   6.601  70.867  1.00  0.00    -0.413 A  
HETATM   10  C   UNL     1     -10.896   6.608  71.802  1.00  0.00    -0.233 A  
BRANCH   5  11
HETATM   11  C   UNL     1     -10.037   7.096  67.643  1.00  0.00    -0.229 C  
HETATM   12  C   UNL     1      -8.809   7.347  67.157  1.00  0.00    -0.126 C  
BRANCH  12  13
HETATM   13  C   UNL     1      -8.592   7.542  65.695  1.00  0.00    -0.114 C  
HETATM   14  O   UNL     1      -8.209   6.618  64.977  1.00  0.00    -0.134 OA 
BRANCH  13  15
HETATM   15  C   UNL     1      -8.880   8.902  65.120  1.00  0.00    -0.209 C  
BRANCH  15  16
HETATM   16  C   UNL     1      -8.253  10.016  65.910  1.00  0.00    -0.128 C  
HETATM   17  O   UNL     1      -7.035  10.194  65.901  1.00  0.00    -0.102 OA 
BRANCH  16  18
HETATM   18  C   UNL     1      -9.170  10.927  66.657  1.00  0.00    -0.184 C  
HETATM   19  C   UNL     1      -8.729  12.130  67.057  1.00  0.00    -0.190 C  
BRANCH  19  20
HETATM   20  C   UNL     1      -9.534  13.147  67.755  1.00  0.00    -0.209 A  
HETATM   21  C   UNL     1     -10.715  12.831  68.450  1.00  0.00    -0.269 A  
HETATM   22  C   UNL     1     -11.501  13.841  69.015  1.00  0.00    -0.305 A  
HETATM   23  C   UNL     1      -9.153  14.494  67.637  1.00  0.00    -0.195 A  
HETATM   24  C   UNL     1     -11.091  15.170  68.881  1.00  0.00    -0.270 A  
HETATM   25  H   UNL     1     -11.568  17.085  69.317  1.00  0.00     0.000 HD 
HETATM   26  O   UNL     1     -11.847  16.182  69.408  1.00  0.00    -0.279 OA 
HETATM   27  C   UNL     1      -9.927  15.506  68.205  1.00  0.00    -0.213 A  
BRANCH  22  28
HETATM   28  O   UNL     1     -12.676  13.659  69.695  1.00  0.00    -0.078 OA 
HETATM   29  C   UNL     1     -12.576  13.250  71.053  1.00  0.00    -0.324 C  
ENDBRANCH  22  28
ENDBRANCH  19  20
ENDBRANCH  16  18
ENDBRANCH  15  16
ENDBRANCH  13  15
ENDBRANCH  12  13
ENDBRANCH   5  11
ENDBRANCH   2   3
TORSDOF 8
ENDMDL
MODEL      259
REMARK 921   NORMALIZED FREE ENERGY PREDICTED BY IDOCK:   -3.29 KCAL/MOL
REMARK 922        TOTAL FREE ENERGY PREDICTED BY IDOCK:   -6.37 KCAL/MOL
REMARK 923 INTER-LIGAND FREE ENERGY PREDICTED BY IDOCK:   -4.90 KCAL/MOL
REMARK 924 INTRA-LIGAND FREE ENERGY PREDICTED BY IDOCK:   -1.47 KCAL/MOL
REMARK 927      BINDING AFFINITY PREDICTED BY RF-SCORE:    0.00 PKD
ROOT
HETATM    1  C   UNL     1      -5.360  11.548  66.785  1.00  0.00    -0.127 C  
HETATM    2  O   UNL     1      -5.973  10.325  66.386  1.00  0.00    -0.059 OA 
ENDROOT
BRANCH   2   3
HETATM    3  C   UNL     1      -7.332  10.272  66.566  1.00  0.00    -0.113 A  
HETATM    4  C   UNL     1      -7.937  10.240  67.826  1.00  0.00    -0.102 A  
HETATM    5  C   UNL     1      -9.329  10.143  67.963  1.00  0.00    -0.149 A  
HETATM    6  C   UNL     1     -10.121  10.170  66.809  1.00  0.00    -0.277 A  
HETATM    7  H   UNL     1      -8.113  10.340  63.412  1.00  0.00     0.000 HD 
HETATM    8  O   UNL     1      -7.563  10.329  64.187  1.00  0.00    -0.146 OA 
HETATM    9  C   UNL     1      -9.532  10.245  65.543  1.00  0.00    -0.277 A  
HETATM   10  C   UNL     1      -8.142  10.287  65.427  1.00  0.00    -0.147 A  
BRANCH   5  11
HETATM   11  C   UNL     1      -9.967  10.049  69.285  1.00  0.00    -0.226 C  
HETATM   12  C   UNL     1     -11.253   9.701  69.462  1.00  0.00    -0.144 C  
BRANCH  12  13
HETATM   13  C   UNL     1     -11.847   9.646  70.829  1.00  0.00    -0.300 C  
HETATM   14  O   UNL     1     -13.011   9.990  71.033  1.00  0.00    -0.358 OA 
BRANCH  13  15
HETATM   15  C   UNL     1     -10.982   9.134  71.947  1.00  0.00    -0.372 C  
BRANCH  15  16
HETATM   16  C   UNL     1     -11.037   7.639  72.094  1.00  0.00    -0.267 C  
HETATM   17  O   UNL     1     -11.259   7.117  73.186  1.00  0.00    -0.278 OA 
BRANCH  16  18
HETATM   18  C   UNL     1     -10.866   6.821  70.857  1.00  0.00    -0.289 C  
HETATM   19  C   UNL     1      -9.675   6.792  70.240  1.00  0.00    -0.179 C  
BRANCH  19  20
HETATM   20  C   UNL     1      -9.350   5.993  69.047  1.00  0.00    -0.134 A  
HETATM   21  C   UNL     1      -9.242   4.591  69.081  1.00  0.00    -0.194 A  
HETATM   22  C   UNL     1      -8.835   3.879  67.948  1.00  0.00    -0.111 A  
HETATM   23  C   UNL     1      -9.043   6.669  67.855  1.00  0.00    -0.114 A  
HETATM   24  C   UNL     1      -8.541   4.584  66.778  1.00  0.00    -0.104 A  
HETATM   25  H   UNL     1      -7.923   4.398  64.862  1.00  0.00     0.000 HD 
HETATM   26  O   UNL     1      -8.123   3.919  65.657  1.00  0.00    -0.096 OA 
HETATM   27  C   UNL     1      -8.645   5.967  66.718  1.00  0.00    -0.113 A  
BRANCH  22  28
HETATM   28  O   UNL     1      -8.675   2.521  67.865  1.00  0.00    -0.089 OA 
HETATM   29  C   UNL     1      -9.490   1.725  68.716  1.00  0.00    -0.141 C  
ENDBRANCH  22  28
ENDBRANCH  19  20
ENDBRANCH  16  18
ENDBRANCH  15  16
ENDBRANCH  13  15
ENDBRANCH  12  13
ENDBRANCH   5  11
ENDBRANCH   2   3
TORSDOF 8
ENDMDL
MODEL      260
REMARK 921   NORMALIZED FREE ENERGY PREDICTED BY IDOCK:   -3.25 KCAL/MOL
REMARK 922        TOTAL FREE ENERGY PREDICTED BY IDOCK:   -6.31 KCAL/MOL
REMARK 923 INTER-LIGAND FREE ENERGY PREDICTED BY IDOCK:   -5.60 KCAL/MOL
REMARK 924 INTRA-LIGAND FREE ENERGY PREDICTED BY IDOCK:   -0.71 KCAL/MOL
REMARK 927      BINDING AFFINITY PREDICTED BY RF-SCORE:    0.00 PKD
ROOT
HETATM    1  C   UNL     1      -9.127  18.695  68.201  1.00  0.00    -0.313 C  
HETATM    2  O   UNL     1     -10.490  18.336  67.985  1.00  0.00    -0.381 OA 
ENDROOT
BRANCH   2   3
HETATM    3  C   UNL     1     -10.685  17.304  67.102  1.00  0.00    -0.181 A  
HETATM    4  C   UNL     1     -10.708  15.960  67.488  1.00  0.00    -0.318 A  
HETATM    5  C   UNL     1     -10.868  14.935  66.546  1.00  0.00    -0.322 A  
HETATM    6  C   UNL     1     -11.100  15.280  65.209  1.00  0.00    -0.382 A  
HETATM    7  H   UNL     1     -11.051  19.158  64.459  1.00  0.00     0.000 HD 
HETATM    8  O   UNL     1     -10.899  18.938  65.370  1.00  0.00    -0.553 OA 
HETATM    9  C   UNL     1     -11.123  16.623  64.815  1.00  0.00    -0.120 A  
HETATM   10  C   UNL     1     -10.908  17.626  65.760  1.00  0.00     0.026 A  
BRANCH   5  11
HETATM   11  C   UNL     1     -10.833  13.518  66.938  1.00  0.00    -0.286 C  
HETATM   12  C   UNL     1     -11.366  13.052  68.080  1.00  0.00    -0.329 C  
BRANCH  12  13
HETATM   13  C   UNL     1     -11.276  11.606  68.430  1.00  0.00    -0.249 C  
HETATM   14  O   UNL     1     -12.063  10.784  67.957  1.00  0.00    -0.474 OA 
BRANCH  13  15
HETATM   15  C   UNL     1     -10.177  11.179  69.363  1.00  0.00    -0.041 C  
BRANCH  15  16
HETATM   16  C   UNL     1      -9.076  10.428  68.669  1.00  0.00    -0.157 C  
HETATM   17  O   UNL     1      -8.717  10.736  67.533  1.00  0.00    -0.125 OA 
BRANCH  16  18
HETATM   18  C   UNL     1      -8.405   9.334  69.431  1.00  0.00    -0.127 C  
HETATM   19  C   UNL     1      -8.709   9.144  70.725  1.00  0.00    -0.285 C  
BRANCH  19  20
HETATM   20  C   UNL     1      -8.166   8.077  71.583  1.00  0.00    -0.143 A  
HETATM   21  C   UNL     1      -8.791   6.824  71.719  1.00  0.00    -0.128 A  
HETATM   22  C   UNL     1      -8.296   5.875  72.619  1.00  0.00    -0.119 A  
HETATM   23  C   UNL     1      -7.035   8.361  72.364  1.00  0.00    -0.108 A  
HETATM   24  C   UNL     1      -7.166   6.191  73.379  1.00  0.00    -0.088 A  
HETATM   25  H   UNL     1      -5.899   5.504  74.797  1.00  0.00     0.000 HD 
HETATM   26  O   UNL     1      -6.667   5.290  74.281  1.00  0.00    -0.073 OA 
HETATM   27  C   UNL     1      -6.529   7.417  73.258  1.00  0.00    -0.064 A  
BRANCH  22  28
HETATM   28  O   UNL     1      -8.827   4.634  72.854  1.00  0.00    -0.115 OA 
HETATM   29  C   UNL     1      -9.971   4.575  73.697  1.00  0.00    -0.149 C  
ENDBRANCH  22  28
ENDBRANCH  19  20
ENDBRANCH  16  18
ENDBRANCH  15  16
ENDBRANCH  13  15
ENDBRANCH  12  13
ENDBRANCH   5  11
ENDBRANCH   2   3
TORSDOF 8
ENDMDL
MODEL      261
REMARK 921   NORMALIZED FREE ENERGY PREDICTED BY IDOCK:   -3.22 KCAL/MOL
REMARK 922        TOTAL FREE ENERGY PREDICTED BY IDOCK:   -6.27 KCAL/MOL
REMARK 923 INTER-LIGAND FREE ENERGY PREDICTED BY IDOCK:   -5.74 KCAL/MOL
REMARK 924 INTRA-LIGAND FREE ENERGY PREDICTED BY IDOCK:   -0.52 KCAL/MOL
REMARK 927      BINDING AFFINITY PREDICTED BY RF-SCORE:    0.00 PKD
ROOT
HETATM    1  C   UNL     1     -11.026   4.206  64.809  1.00  0.00    -0.023 C  
HETATM    2  O   UNL     1      -9.955   3.450  64.251  1.00  0.00    -0.164 OA 
ENDROOT
BRANCH   2   3
HETATM    3  C   UNL     1      -8.703   3.809  64.685  1.00  0.00    -0.114 A  
HETATM    4  C   UNL     1      -8.455   4.962  65.436  1.00  0.00    -0.133 A  
HETATM    5  C   UNL     1      -7.154   5.313  65.822  1.00  0.00    -0.068 A  
HETATM    6  C   UNL     1      -6.104   4.436  65.523  1.00  0.00    -0.027 A  
HETATM    7  H   UNL     1      -7.147   1.232  63.461  1.00  0.00     0.000 HD 
HETATM    8  O   UNL     1      -7.870   1.815  63.663  1.00  0.00    -0.058 OA 
HETATM    9  C   UNL     1      -6.344   3.256  64.810  1.00  0.00    -0.024 A  
HETATM   10  C   UNL     1      -7.639   2.953  64.388  1.00  0.00    -0.076 A  
BRANCH   5  11
HETATM   11  C   UNL     1      -6.879   6.555  66.559  1.00  0.00    -0.065 C  
HETATM   12  C   UNL     1      -7.802   7.200  67.294  1.00  0.00    -0.111 C  
BRANCH  12  13
HETATM   13  C   UNL     1      -7.465   8.469  68.000  1.00  0.00    -0.097 C  
HETATM   14  O   UNL     1      -6.306   8.883  68.051  1.00  0.00    -0.054 OA 
BRANCH  13  15
HETATM   15  C   UNL     1      -8.592   9.239  68.629  1.00  0.00    -0.127 C  
BRANCH  15  16
HETATM   16  C   UNL     1      -8.385  10.727  68.582  1.00  0.00    -0.141 C  
HETATM   17  O   UNL     1      -7.636  11.289  69.381  1.00  0.00    -0.072 OA 
BRANCH  16  18
HETATM   18  C   UNL     1      -9.077  11.482  67.496  1.00  0.00    -0.166 C  
HETATM   19  C   UNL     1      -9.370  12.780  67.673  1.00  0.00    -0.191 C  
BRANCH  19  20
HETATM   20  C   UNL     1     -10.001  13.658  66.675  1.00  0.00    -0.283 A  
HETATM   21  C   UNL     1     -10.867  13.171  65.679  1.00  0.00    -0.294 A  
HETATM   22  C   UNL     1     -11.369  14.025  64.691  1.00  0.00    -0.375 A  
HETATM   23  C   UNL     1      -9.647  15.017  66.662  1.00  0.00    -0.281 A  
HETATM   24  C   UNL     1     -10.997  15.372  64.710  1.00  0.00    -0.393 A  
HETATM   25  H   UNL     1     -11.204  17.145  63.760  1.00  0.00     0.000 HD 
HETATM   26  O   UNL     1     -11.457  16.229  63.747  1.00  0.00    -0.888 OA 
HETATM   27  C   UNL     1     -10.149  15.877  65.685  1.00  0.00    -0.388 A  
BRANCH  22  28
HETATM   28  O   UNL     1     -12.200  13.665  63.663  1.00  0.00    -0.614 OA 
HETATM   29  C   UNL     1     -12.362  12.272  63.426  1.00  0.00    -0.517 C  
ENDBRANCH  22  28
ENDBRANCH  19  20
ENDBRANCH  16  18
ENDBRANCH  15  16
ENDBRANCH  13  15
ENDBRANCH  12  13
ENDBRANCH   5  11
ENDBRANCH   2   3
TORSDOF 8
ENDMDL
MODEL      262
REMARK 921   NORMALIZED FREE ENERGY PREDICTED BY IDOCK:   -3.21 KCAL/MOL
REMARK 922        TOTAL FREE ENERGY PREDICTED BY IDOCK:   -6.26 KCAL/MOL
REMARK 923 INTER-LIGAND FREE ENERGY PREDICTED BY IDOCK:   -5.18 KCAL/MOL
REMARK 924 INTRA-LIGAND FREE ENERGY PREDICTED BY IDOCK:   -1.07 KCAL/MOL
REMARK 927      BINDING AFFINITY PREDICTED BY RF-SCORE:    0.00 PKD
ROOT
HETATM    1  C   UNL     1      -5.142  11.365  67.549  1.00  0.00    -0.047 C  
HETATM    2  O   UNL     1      -5.762  10.211  66.986  1.00  0.00    -0.045 OA 
ENDROOT
BRANCH   2   3
HETATM    3  C   UNL     1      -7.134  10.246  66.957  1.00  0.00    -0.090 A  
HETATM    4  C   UNL     1      -7.922  10.351  68.107  1.00  0.00    -0.110 A  
HETATM    5  C   UNL     1      -9.321  10.341  68.034  1.00  0.00    -0.145 A  
HETATM    6  C   UNL     1      -9.928  10.315  66.773  1.00  0.00    -0.261 A  
HETATM    7  H   UNL     1      -7.426  10.095  63.724  1.00  0.00     0.000 HD 
HETATM    8  O   UNL     1      -7.000  10.118  64.573  1.00  0.00    -0.135 OA 
HETATM    9  C   UNL     1      -9.151  10.253  65.611  1.00  0.00    -0.208 A  
HETATM   10  C   UNL     1      -7.761  10.211  65.708  1.00  0.00    -0.136 A  
BRANCH   5  11
HETATM   11  C   UNL     1     -10.155  10.391  69.244  1.00  0.00    -0.248 C  
HETATM   12  C   UNL     1     -11.465  10.092  69.253  1.00  0.00    -0.168 C  
BRANCH  12  13
HETATM   13  C   UNL     1     -12.261  10.185  70.510  1.00  0.00    -0.264 C  
HETATM   14  O   UNL     1     -13.383  10.691  70.520  1.00  0.00    -0.152 OA 
BRANCH  13  15
HETATM   15  C   UNL     1     -11.655   9.618  71.764  1.00  0.00    -0.309 C  
BRANCH  15  16
HETATM   16  C   UNL     1     -12.479   8.516  72.368  1.00  0.00    -0.353 C  
HETATM   17  O   UNL     1     -13.397   8.765  73.150  1.00  0.00    -0.214 OA 
BRANCH  16  18
HETATM   18  C   UNL     1     -12.176   7.118  71.939  1.00  0.00    -0.358 C  
HETATM   19  C   UNL     1     -10.918   6.783  71.613  1.00  0.00    -0.267 C  
BRANCH  19  20
HETATM   20  C   UNL     1     -10.466   5.437  71.224  1.00  0.00    -0.296 A  
HETATM   21  C   UNL     1     -10.256   4.409  72.161  1.00  0.00    -0.247 A  
HETATM   22  C   UNL     1      -9.733   3.175  71.760  1.00  0.00    -0.164 A  
HETATM   23  C   UNL     1     -10.142   5.205  69.877  1.00  0.00    -0.342 A  
HETATM   24  C   UNL     1      -9.425   2.979  70.411  1.00  0.00    -0.148 A  
HETATM   25  H   UNL     1      -8.686   1.655  69.074  1.00  0.00     0.000 HD 
HETATM   26  O   UNL     1      -8.895   1.789  69.990  1.00  0.00    -0.052 OA 
HETATM   27  C   UNL     1      -9.628   3.975  69.468  1.00  0.00    -0.265 A  
BRANCH  22  28
HETATM   28  O   UNL     1      -9.468   2.110  72.579  1.00  0.00    -0.079 OA 
HETATM   29  C   UNL     1      -9.532   2.345  73.980  1.00  0.00    -0.080 C  
ENDBRANCH  22  28
ENDBRANCH  19  20
ENDBRANCH  16  18
ENDBRANCH  15  16
ENDBRANCH  13  15
ENDBRANCH  12  13
ENDBRANCH   5  11
ENDBRANCH   2   3
TORSDOF 8
ENDMDL
MODEL      263
REMARK 921   NORMALIZED FREE ENERGY PREDICTED BY IDOCK:   -3.21 KCAL/MOL
REMARK 922        TOTAL FREE ENERGY PREDICTED BY IDOCK:   -6.25 KCAL/MOL
REMARK 923 INTER-LIGAND FREE ENERGY PREDICTED BY IDOCK:   -5.31 KCAL/MOL
REMARK 924 INTRA-LIGAND FREE ENERGY PREDICTED BY IDOCK:   -0.94 KCAL/MOL
REMARK 927      BINDING AFFINITY PREDICTED BY RF-SCORE:    0.00 PKD
ROOT
HETATM    1  C   UNL     1     -11.476  15.961  64.502  1.00  0.00    -0.283 C  
HETATM    2  O   UNL     1     -11.425  14.597  64.093  1.00  0.00    -0.203 OA 
ENDROOT
BRANCH   2   3
HETATM    3  C   UNL     1     -11.075  13.708  65.079  1.00  0.00    -0.332 A  
HETATM    4  C   UNL     1      -9.800  13.664  65.652  1.00  0.00    -0.196 A  
HETATM    5  C   UNL     1      -9.473  12.712  66.627  1.00  0.00    -0.244 A  
HETATM    6  C   UNL     1     -10.477  11.854  67.092  1.00  0.00    -0.249 A  
HETATM    7  H   UNL     1     -13.985  12.283  65.326  1.00  0.00     0.000 HD 
HETATM    8  O   UNL     1     -13.315  12.876  65.006  1.00  0.00    -0.682 OA 
HETATM    9  C   UNL     1     -11.769  11.916  66.558  1.00  0.00    -0.247 A  
HETATM   10  C   UNL     1     -12.060  12.836  65.551  1.00  0.00    -0.465 A  
BRANCH   5  11
HETATM   11  C   UNL     1      -8.118  12.621  67.189  1.00  0.00    -0.141 C  
HETATM   12  C   UNL     1      -7.842  12.026  68.362  1.00  0.00    -0.147 C  
BRANCH  12  13
HETATM   13  C   UNL     1      -6.447  11.988  68.889  1.00  0.00    -0.083 C  
HETATM   14  O   UNL     1      -5.522  12.533  68.287  1.00  0.00    -0.053 OA 
BRANCH  13  15
HETATM   15  C   UNL     1      -6.213  11.278  70.193  1.00  0.00    -0.147 C  
BRANCH  15  16
HETATM   16  C   UNL     1      -6.885   9.936  70.261  1.00  0.00    -0.138 C  
HETATM   17  O   UNL     1      -7.422   9.547  71.298  1.00  0.00    -0.332 OA 
BRANCH  16  18
HETATM   18  C   UNL     1      -6.921   9.123  69.009  1.00  0.00    -0.063 C  
HETATM   19  C   UNL     1      -8.035   8.447  68.690  1.00  0.00    -0.121 C  
BRANCH  19  20
HETATM   20  C   UNL     1      -8.230   7.649  67.467  1.00  0.00    -0.121 A  
HETATM   21  C   UNL     1      -8.880   6.402  67.473  1.00  0.00    -0.111 A  
HETATM   22  C   UNL     1      -8.958   5.633  66.307  1.00  0.00    -0.140 A  
HETATM   23  C   UNL     1      -7.660   8.113  66.271  1.00  0.00    -0.090 A  
HETATM   24  C   UNL     1      -8.382   6.127  65.134  1.00  0.00    -0.129 A  
HETATM   25  H   UNL     1      -8.034   5.726  63.183  1.00  0.00     0.000 HD 
HETATM   26  O   UNL     1      -8.425   5.391  63.980  1.00  0.00    -0.134 OA 
HETATM   27  C   UNL     1      -7.740   7.357  65.102  1.00  0.00    -0.112 A  
BRANCH  22  28
HETATM   28  O   UNL     1      -9.544   4.400  66.194  1.00  0.00    -0.157 OA 
HETATM   29  C   UNL     1      -9.484   3.553  67.334  1.00  0.00    -0.190 C  
ENDBRANCH  22  28
ENDBRANCH  19  20
ENDBRANCH  16  18
ENDBRANCH  15  16
ENDBRANCH  13  15
ENDBRANCH  12  13
ENDBRANCH   5  11
ENDBRANCH   2   3
TORSDOF 8
ENDMDL
MODEL      264
REMARK 921   NORMALIZED FREE ENERGY PREDICTED BY IDOCK:   -3.20 KCAL/MOL
REMARK 922        TOTAL FREE ENERGY PREDICTED BY IDOCK:   -6.24 KCAL/MOL
REMARK 923 INTER-LIGAND FREE ENERGY PREDICTED BY IDOCK:   -4.93 KCAL/MOL
REMARK 924 INTRA-LIGAND FREE ENERGY PREDICTED BY IDOCK:   -1.31 KCAL/MOL
REMARK 927      BINDING AFFINITY PREDICTED BY RF-SCORE:    0.00 PKD
ROOT
HETATM    1  C   UNL     1     -10.757  11.235  67.997  1.00  0.00    -0.203 C  
HETATM    2  O   UNL     1      -9.355  11.294  67.751  1.00  0.00    -0.157 OA 
ENDROOT
BRANCH   2   3
HETATM    3  C   UNL     1      -8.569  10.755  68.739  1.00  0.00    -0.156 A  
HETATM    4  C   UNL     1      -9.007   9.744  69.600  1.00  0.00    -0.229 A  
HETATM    5  C   UNL     1      -8.184   9.252  70.622  1.00  0.00    -0.224 A  
HETATM    6  C   UNL     1      -6.870   9.726  70.714  1.00  0.00    -0.065 A  
HETATM    7  H   UNL     1      -5.919  12.520  68.090  1.00  0.00     0.000 HD 
HETATM    8  O   UNL     1      -6.811  12.203  68.011  1.00  0.00    -0.069 OA 
HETATM    9  C   UNL     1      -6.404  10.707  69.832  1.00  0.00    -0.110 A  
HETATM   10  C   UNL     1      -7.256  11.221  68.855  1.00  0.00    -0.112 A  
BRANCH   5  11
HETATM   11  C   UNL     1      -8.660   8.232  71.568  1.00  0.00    -0.197 C  
HETATM   12  C   UNL     1      -9.909   8.207  72.063  1.00  0.00    -0.298 C  
BRANCH  12  13
HETATM   13  C   UNL     1     -10.323   7.158  73.039  1.00  0.00    -0.271 C  
HETATM   14  O   UNL     1      -9.898   7.158  74.194  1.00  0.00    -0.287 OA 
BRANCH  13  15
HETATM   15  C   UNL     1     -11.296   6.112  72.569  1.00  0.00    -0.328 C  
BRANCH  15  16
HETATM   16  C   UNL     1     -11.619   6.226  71.106  1.00  0.00    -0.275 C  
HETATM   17  O   UNL     1     -12.528   6.958  70.712  1.00  0.00    -0.356 OA 
BRANCH  16  18
HETATM   18  C   UNL     1     -10.762   5.462  70.153  1.00  0.00    -0.295 C  
HETATM   19  C   UNL     1     -10.272   6.074  69.064  1.00  0.00    -0.245 C  
BRANCH  19  20
HETATM   20  C   UNL     1      -9.376   5.461  68.069  1.00  0.00    -0.127 A  
HETATM   21  C   UNL     1      -9.752   4.348  67.295  1.00  0.00    -0.222 A  
HETATM   22  C   UNL     1      -8.837   3.738  66.432  1.00  0.00    -0.128 A  
HETATM   23  C   UNL     1      -8.065   5.952  67.961  1.00  0.00    -0.105 A  
HETATM   24  C   UNL     1      -7.541   4.254  66.348  1.00  0.00    -0.089 A  
HETATM   25  H   UNL     1      -5.735   4.018  65.469  1.00  0.00     0.000 HD 
HETATM   26  O   UNL     1      -6.616   3.668  65.526  1.00  0.00    -0.035 OA 
HETATM   27  C   UNL     1      -7.148   5.354  67.097  1.00  0.00    -0.070 A  
BRANCH  22  28
HETATM   28  O   UNL     1      -9.079   2.641  65.647  1.00  0.00    -0.141 OA 
HETATM   29  C   UNL     1      -9.673   2.880  64.377  1.00  0.00    -0.136 C  
ENDBRANCH  22  28
ENDBRANCH  19  20
ENDBRANCH  16  18
ENDBRANCH  15  16
ENDBRANCH  13  15
ENDBRANCH  12  13
ENDBRANCH   5  11
ENDBRANCH   2   3
TORSDOF 8
ENDMDL
MODEL      265
REMARK 921   NORMALIZED FREE ENERGY PREDICTED BY IDOCK:   -3.19 KCAL/MOL
REMARK 922        TOTAL FREE ENERGY PREDICTED BY IDOCK:   -6.23 KCAL/MOL
REMARK 923 INTER-LIGAND FREE ENERGY PREDICTED BY IDOCK:   -5.72 KCAL/MOL
REMARK 924 INTRA-LIGAND FREE ENERGY PREDICTED BY IDOCK:   -0.51 KCAL/MOL
REMARK 927      BINDING AFFINITY PREDICTED BY RF-SCORE:    0.00 PKD
ROOT
HETATM    1  C   UNL     1     -10.006   4.764  66.606  1.00  0.00    -0.235 C  
HETATM    2  O   UNL     1      -9.118   5.538  67.409  1.00  0.00    -0.112 OA 
ENDROOT
BRANCH   2   3
HETATM    3  C   UNL     1      -8.628   6.670  66.807  1.00  0.00    -0.118 A  
HETATM    4  C   UNL     1      -9.322   7.883  66.777  1.00  0.00    -0.232 A  
HETATM    5  C   UNL     1      -8.802   9.003  66.114  1.00  0.00    -0.195 A  
HETATM    6  C   UNL     1      -7.521   8.918  65.553  1.00  0.00    -0.086 A  
HETATM    7  H   UNL     1      -5.796   5.379  65.872  1.00  0.00     0.000 HD 
HETATM    8  O   UNL     1      -6.660   5.424  66.263  1.00  0.00    -0.049 OA 
HETATM    9  C   UNL     1      -6.797   7.722  65.613  1.00  0.00    -0.053 A  
HETATM   10  C   UNL     1      -7.355   6.603  66.231  1.00  0.00    -0.073 A  
BRANCH   5  11
HETATM   11  C   UNL     1      -9.553  10.264  66.028  1.00  0.00    -0.259 C  
HETATM   12  C   UNL     1     -10.611  10.441  65.218  1.00  0.00    -0.064 C  
BRANCH  12  13
HETATM   13  C   UNL     1     -11.317  11.753  65.160  1.00  0.00    -0.218 C  
HETATM   14  O   UNL     1     -12.197  11.968  64.326  1.00  0.00    -0.358 OA 
BRANCH  13  15
HETATM   15  C   UNL     1     -10.933  12.798  66.170  1.00  0.00    -0.310 C  
BRANCH  15  16
HETATM   16  C   UNL     1     -10.302  14.012  65.548  1.00  0.00    -0.339 C  
HETATM   17  O   UNL     1     -10.126  14.082  64.331  1.00  0.00    -0.262 OA 
BRANCH  16  18
HETATM   18  C   UNL     1      -9.949  15.143  66.455  1.00  0.00    -0.288 C  
HETATM   19  C   UNL     1      -8.711  15.659  66.422  1.00  0.00    -0.354 C  
BRANCH  19  20
HETATM   20  C   UNL     1      -8.240  16.803  67.220  1.00  0.00    -0.198 A  
HETATM   21  C   UNL     1      -8.908  18.041  67.235  1.00  0.00    -0.247 A  
HETATM   22  C   UNL     1      -8.373  19.131  67.929  1.00  0.00    -0.298 A  
HETATM   23  C   UNL     1      -7.025  16.678  67.914  1.00  0.00    -0.157 A  
HETATM   24  C   UNL     1      -7.164  18.970  68.611  1.00  0.00    -0.316 A  
HETATM   25  H   UNL     1      -5.783  19.913  69.748  1.00  0.00     0.000 HD 
HETATM   26  O   UNL     1      -6.605  20.022  69.285  1.00  0.00    -0.323 OA 
HETATM   27  C   UNL     1      -6.489  17.757  68.615  1.00  0.00    -0.210 A  
BRANCH  22  28
HETATM   28  O   UNL     1      -8.919  20.386  68.000  1.00  0.00    -0.174 OA 
HETATM   29  C   UNL     1     -10.253  20.533  67.531  1.00  0.00    -0.197 C  
ENDBRANCH  22  28
ENDBRANCH  19  20
ENDBRANCH  16  18
ENDBRANCH  15  16
ENDBRANCH  13  15
ENDBRANCH  12  13
ENDBRANCH   5  11
ENDBRANCH   2   3
TORSDOF 8
ENDMDL
MODEL      266
REMARK 921   NORMALIZED FREE ENERGY PREDICTED BY IDOCK:   -3.19 KCAL/MOL
REMARK 922        TOTAL FREE ENERGY PREDICTED BY IDOCK:   -6.23 KCAL/MOL
REMARK 923 INTER-LIGAND FREE ENERGY PREDICTED BY IDOCK:   -5.60 KCAL/MOL
REMARK 924 INTRA-LIGAND FREE ENERGY PREDICTED BY IDOCK:   -0.63 KCAL/MOL
REMARK 927      BINDING AFFINITY PREDICTED BY RF-SCORE:    0.00 PKD
ROOT
HETATM    1  C   UNL     1     -10.247  19.806  68.670  1.00  0.00    -0.405 C  
HETATM    2  O   UNL     1      -9.812  19.536  67.339  1.00  0.00    -0.326 OA 
ENDROOT
BRANCH   2   3
HETATM    3  C   UNL     1      -9.445  18.235  67.101  1.00  0.00    -0.268 A  
HETATM    4  C   UNL     1      -8.533  17.539  67.900  1.00  0.00    -0.230 A  
HETATM    5  C   UNL     1      -8.154  16.224  67.595  1.00  0.00    -0.161 A  
HETATM    6  C   UNL     1      -8.778  15.577  66.521  1.00  0.00    -0.340 A  
HETATM    7  H   UNL     1     -11.361  17.790  64.514  1.00  0.00     0.000 HD 
HETATM    8  O   UNL     1     -10.951  18.240  65.244  1.00  0.00    -0.571 OA 
HETATM    9  C   UNL     1      -9.725  16.247  65.739  1.00  0.00    -0.299 A  
HETATM   10  C   UNL     1     -10.048  17.573  66.027  1.00  0.00    -0.260 A  
BRANCH   5  11
HETATM   11  C   UNL     1      -7.150  15.508  68.396  1.00  0.00    -0.111 C  
HETATM   12  C   UNL     1      -7.244  14.204  68.706  1.00  0.00    -0.120 C  
BRANCH  12  13
HETATM   13  C   UNL     1      -6.203  13.541  69.541  1.00  0.00    -0.115 C  
HETATM   14  O   UNL     1      -6.127  13.750  70.752  1.00  0.00    -0.171 OA 
BRANCH  13  15
HETATM   15  C   UNL     1      -5.260  12.589  68.859  1.00  0.00    -0.055 C  
BRANCH  15  16
HETATM   16  C   UNL     1      -5.778  12.099  67.535  1.00  0.00    -0.117 C  
HETATM   17  O   UNL     1      -5.184  12.354  66.488  1.00  0.00    -0.266 OA 
BRANCH  16  18
HETATM   18  C   UNL     1      -7.004  11.248  67.551  1.00  0.00    -0.091 C  
HETATM   19  C   UNL     1      -6.885   9.912  67.523  1.00  0.00    -0.081 C  
BRANCH  19  20
HETATM   20  C   UNL     1      -8.001   8.953  67.585  1.00  0.00    -0.102 A  
HETATM   21  C   UNL     1      -7.801   7.565  67.703  1.00  0.00    -0.113 A  
HETATM   22  C   UNL     1      -8.885   6.682  67.660  1.00  0.00    -0.116 A  
HETATM   23  C   UNL     1      -9.308   9.439  67.424  1.00  0.00    -0.151 A  
HETATM   24  C   UNL     1     -10.172   7.202  67.501  1.00  0.00    -0.212 A  
HETATM   25  H   UNL     1     -12.127   6.716  67.330  1.00  0.00     0.000 HD 
HETATM   26  O   UNL     1     -11.252   6.363  67.438  1.00  0.00    -0.352 OA 
HETATM   27  C   UNL     1     -10.396   8.566  67.388  1.00  0.00    -0.356 A  
BRANCH  22  28
HETATM   28  O   UNL     1      -8.814   5.317  67.744  1.00  0.00    -0.107 OA 
HETATM   29  C   UNL     1      -8.073   4.649  66.731  1.00  0.00    -0.103 C  
ENDBRANCH  22  28
ENDBRANCH  19  20
ENDBRANCH  16  18
ENDBRANCH  15  16
ENDBRANCH  13  15
ENDBRANCH  12  13
ENDBRANCH   5  11
ENDBRANCH   2   3
TORSDOF 8
ENDMDL
MODEL      267
REMARK 921   NORMALIZED FREE ENERGY PREDICTED BY IDOCK:   -3.15 KCAL/MOL
REMARK 922        TOTAL FREE ENERGY PREDICTED BY IDOCK:   -6.17 KCAL/MOL
REMARK 923 INTER-LIGAND FREE ENERGY PREDICTED BY IDOCK:   -5.28 KCAL/MOL
REMARK 924 INTRA-LIGAND FREE ENERGY PREDICTED BY IDOCK:   -0.90 KCAL/MOL
REMARK 927      BINDING AFFINITY PREDICTED BY RF-SCORE:    0.00 PKD
ROOT
HETATM    1  C   UNL     1      -7.463  14.976  69.883  1.00  0.00    -0.021 C  
HETATM    2  O   UNL     1      -6.332  14.536  69.137  1.00  0.00    -0.091 OA 
ENDROOT
BRANCH   2   3
HETATM    3  C   UNL     1      -6.078  13.189  69.207  1.00  0.00    -0.098 A  
HETATM    4  C   UNL     1      -6.365  12.300  68.167  1.00  0.00    -0.062 A  
HETATM    5  C   UNL     1      -6.127  10.925  68.298  1.00  0.00    -0.049 A  
HETATM    6  C   UNL     1      -5.506  10.458  69.463  1.00  0.00    -0.038 A  
HETATM    7  H   UNL     1      -4.755  13.230  72.175  1.00  0.00     0.000 HD 
HETATM    8  O   UNL     1      -5.170  13.562  71.388  1.00  0.00    -0.150 OA 
HETATM    9  C   UNL     1      -5.173  11.343  70.495  1.00  0.00    -0.110 A  
HETATM   10  C   UNL     1      -5.467  12.700  70.366  1.00  0.00    -0.154 A  
BRANCH   5  11
HETATM   11  C   UNL     1      -6.483   9.978  67.232  1.00  0.00    -0.068 C  
HETATM   12  C   UNL     1      -5.788   8.856  66.976  1.00  0.00    -0.046 C  
BRANCH  12  13
HETATM   13  C   UNL     1      -6.188   7.947  65.864  1.00  0.00    -0.042 C  
HETATM   14  O   UNL     1      -5.540   6.933  65.603  1.00  0.00    -0.029 OA 
BRANCH  13  15
HETATM   15  C   UNL     1      -7.425   8.299  65.084  1.00  0.00    -0.085 C  
BRANCH  15  16
HETATM   16  C   UNL     1      -8.694   8.010  65.834  1.00  0.00    -0.157 C  
HETATM   17  O   UNL     1      -8.804   6.999  66.529  1.00  0.00    -0.130 OA 
BRANCH  16  18
HETATM   18  C   UNL     1      -9.789   9.020  65.746  1.00  0.00    -0.181 C  
HETATM   19  C   UNL     1      -9.493  10.327  65.826  1.00  0.00    -0.255 C  
BRANCH  19  20
HETATM   20  C   UNL     1     -10.460  11.431  65.704  1.00  0.00    -0.316 A  
HETATM   21  C   UNL     1     -10.856  12.214  66.803  1.00  0.00    -0.289 A  
HETATM   22  C   UNL     1     -11.849  13.189  66.662  1.00  0.00    -0.391 A  
HETATM   23  C   UNL     1     -11.077  11.643  64.460  1.00  0.00    -0.365 A  
HETATM   24  C   UNL     1     -12.440  13.375  65.409  1.00  0.00    -0.494 A  
HETATM   25  H   UNL     1     -13.828  14.435  64.391  1.00  0.00     0.000 HD 
HETATM   26  O   UNL     1     -13.427  14.309  65.243  1.00  0.00    -0.564 OA 
HETATM   27  C   UNL     1     -12.062  12.619  64.309  1.00  0.00    -0.502 A  
BRANCH  22  28
HETATM   28  O   UNL     1     -12.331  13.996  67.659  1.00  0.00    -0.274 OA 
HETATM   29  C   UNL     1     -11.610  14.004  68.884  1.00  0.00    -0.315 C  
ENDBRANCH  22  28
ENDBRANCH  19  20
ENDBRANCH  16  18
ENDBRANCH  15  16
ENDBRANCH  13  15
ENDBRANCH  12  13
ENDBRANCH   5  11
ENDBRANCH   2   3
TORSDOF 8
ENDMDL
MODEL      268
REMARK 921   NORMALIZED FREE ENERGY PREDICTED BY IDOCK:   -3.15 KCAL/MOL
REMARK 922        TOTAL FREE ENERGY PREDICTED BY IDOCK:   -6.17 KCAL/MOL
REMARK 923 INTER-LIGAND FREE ENERGY PREDICTED BY IDOCK:   -4.63 KCAL/MOL
REMARK 924 INTRA-LIGAND FREE ENERGY PREDICTED BY IDOCK:   -1.54 KCAL/MOL
REMARK 927      BINDING AFFINITY PREDICTED BY RF-SCORE:    0.00 PKD
ROOT
HETATM    1  C   UNL     1     -12.089  15.508  64.227  1.00  0.00    -0.116 C  
HETATM    2  O   UNL     1     -11.533  14.196  64.207  1.00  0.00    -0.353 OA 
ENDROOT
BRANCH   2   3
HETATM    3  C   UNL     1     -10.947  13.795  65.382  1.00  0.00    -0.309 A  
HETATM    4  C   UNL     1      -9.695  14.249  65.806  1.00  0.00    -0.264 A  
HETATM    5  C   UNL     1      -9.115  13.781  66.993  1.00  0.00    -0.253 A  
HETATM    6  C   UNL     1      -9.854  12.912  67.805  1.00  0.00    -0.221 A  
HETATM    7  H   UNL     1     -13.383  11.881  66.363  1.00  0.00     0.000 HD 
HETATM    8  O   UNL     1     -12.896  12.476  65.805  1.00  0.00    -0.297 OA 
HETATM    9  C   UNL     1     -11.127  12.484  67.415  1.00  0.00    -0.317 A  
HETATM   10  C   UNL     1     -11.664  12.920  66.203  1.00  0.00    -0.396 A  
BRANCH   5  11
HETATM   11  C   UNL     1      -7.772  14.208  67.414  1.00  0.00    -0.189 C  
HETATM   12  C   UNL     1      -7.553  15.119  68.377  1.00  0.00    -0.117 C  
BRANCH  12  13
HETATM   13  C   UNL     1      -6.166  15.527  68.742  1.00  0.00    -0.099 C  
HETATM   14  O   UNL     1      -5.359  15.882  67.883  1.00  0.00    -0.115 OA 
BRANCH  13  15
HETATM   15  C   UNL     1      -5.793  15.511  70.198  1.00  0.00    -0.148 C  
BRANCH  15  16
HETATM   16  C   UNL     1      -5.790  14.129  70.788  1.00  0.00    -0.203 C  
HETATM   17  O   UNL     1      -6.016  13.950  71.985  1.00  0.00    -0.374 OA 
BRANCH  16  18
HETATM   18  C   UNL     1      -5.559  12.986  69.857  1.00  0.00    -0.114 C  
HETATM   19  C   UNL     1      -6.372  11.919  69.900  1.00  0.00    -0.104 C  
BRANCH  19  20
HETATM   20  C   UNL     1      -6.294  10.748  69.012  1.00  0.00    -0.048 A  
HETATM   21  C   UNL     1      -7.280  10.460  68.051  1.00  0.00    -0.084 A  
HETATM   22  C   UNL     1      -7.217   9.285  67.295  1.00  0.00    -0.087 A  
HETATM   23  C   UNL     1      -5.242   9.836  69.201  1.00  0.00    -0.036 A  
HETATM   24  C   UNL     1      -6.155   8.402  67.507  1.00  0.00    -0.052 A  
HETATM   25  H   UNL     1      -5.352   6.635  66.940  1.00  0.00     0.000 HD 
HETATM   26  O   UNL     1      -6.074   7.235  66.796  1.00  0.00    -0.039 OA 
HETATM   27  C   UNL     1      -5.167   8.666  68.445  1.00  0.00    -0.034 A  
BRANCH  22  28
HETATM   28  O   UNL     1      -8.124   8.887  66.348  1.00  0.00    -0.107 OA 
HETATM   29  C   UNL     1      -9.020   9.878  65.862  1.00  0.00    -0.152 C  
ENDBRANCH  22  28
ENDBRANCH  19  20
ENDBRANCH  16  18
ENDBRANCH  15  16
ENDBRANCH  13  15
ENDBRANCH  12  13
ENDBRANCH   5  11
ENDBRANCH   2   3
TORSDOF 8
ENDMDL
MODEL      269
REMARK 921   NORMALIZED FREE ENERGY PREDICTED BY IDOCK:   -3.10 KCAL/MOL
REMARK 922        TOTAL FREE ENERGY PREDICTED BY IDOCK:   -6.10 KCAL/MOL
REMARK 923 INTER-LIGAND FREE ENERGY PREDICTED BY IDOCK:   -5.35 KCAL/MOL
REMARK 924 INTRA-LIGAND FREE ENERGY PREDICTED BY IDOCK:   -0.75 KCAL/MOL
REMARK 927      BINDING AFFINITY PREDICTED BY RF-SCORE:    0.00 PKD
ROOT
HETATM    1  C   UNL     1      -9.667  17.658  68.073  1.00  0.00    -0.301 C  
HETATM    2  O   UNL     1     -10.910  17.083  67.679  1.00  0.00    -0.331 OA 
ENDROOT
BRANCH   2   3
HETATM    3  C   UNL     1     -10.980  15.717  67.791  1.00  0.00    -0.316 A  
HETATM    4  C   UNL     1     -10.329  14.843  66.915  1.00  0.00    -0.264 A  
HETATM    5  C   UNL     1     -10.461  13.453  67.042  1.00  0.00    -0.257 A  
HETATM    6  C   UNL     1     -11.188  12.943  68.124  1.00  0.00    -0.305 A  
HETATM    7  H   UNL     1     -12.838  15.671  70.457  1.00  0.00     0.000 HD 
HETATM    8  O   UNL     1     -12.342  16.031  69.730  1.00  0.00    -0.206 OA 
HETATM    9  C   UNL     1     -11.809  13.806  69.034  1.00  0.00    -0.397 A  
HETATM   10  C   UNL     1     -11.709  15.186  68.859  1.00  0.00    -0.333 A  
BRANCH   5  11
HETATM   11  C   UNL     1      -9.829  12.530  66.088  1.00  0.00    -0.266 C  
HETATM   12  C   UNL     1     -10.358  12.226  64.891  1.00  0.00    -0.319 C  
BRANCH  12  13
HETATM   13  C   UNL     1      -9.677  11.263  63.978  1.00  0.00    -0.265 C  
HETATM   14  O   UNL     1      -9.309  11.602  62.853  1.00  0.00    -0.349 OA 
BRANCH  13  15
HETATM   15  C   UNL     1      -9.435   9.869  64.487  1.00  0.00    -0.328 C  
BRANCH  15  16
HETATM   16  C   UNL     1      -7.987   9.597  64.785  1.00  0.00    -0.129 C  
HETATM   17  O   UNL     1      -7.249  10.486  65.209  1.00  0.00    -0.128 OA 
BRANCH  16  18
HETATM   18  C   UNL     1      -7.499   8.199  64.598  1.00  0.00    -0.096 C  
HETATM   19  C   UNL     1      -8.352   7.173  64.749  1.00  0.00     0.014 C  
BRANCH  19  20
HETATM   20  C   UNL     1      -8.024   5.752  64.546  1.00  0.00    -0.126 A  
HETATM   21  C   UNL     1      -8.975   4.809  64.118  1.00  0.00    -0.093 A  
HETATM   22  C   UNL     1      -8.646   3.453  64.032  1.00  0.00    -0.089 A  
HETATM   23  C   UNL     1      -6.735   5.310  64.887  1.00  0.00    -0.048 A  
HETATM   24  C   UNL     1      -7.354   3.049  64.376  1.00  0.00    -0.069 A  
HETATM   25  H   UNL     1      -6.127   1.451  64.553  1.00  0.00     0.000 HD 
HETATM   26  O   UNL     1      -7.006   1.726  64.320  1.00  0.00    -0.033 OA 
HETATM   27  C   UNL     1      -6.396   3.960  64.796  1.00  0.00    -0.027 A  
BRANCH  22  28
HETATM   28  O   UNL     1      -9.489   2.443  63.649  1.00  0.00    -0.100 OA 
HETATM   29  C   UNL     1     -10.867   2.770  63.523  1.00  0.00    -0.190 C  
ENDBRANCH  22  28
ENDBRANCH  19  20
ENDBRANCH  16  18
ENDBRANCH  15  16
ENDBRANCH  13  15
ENDBRANCH  12  13
ENDBRANCH   5  11
ENDBRANCH   2   3
TORSDOF 8
ENDMDL
MODEL      270
REMARK 921   NORMALIZED FREE ENERGY PREDICTED BY IDOCK:   -3.08 KCAL/MOL
REMARK 922        TOTAL FREE ENERGY PREDICTED BY IDOCK:   -6.07 KCAL/MOL
REMARK 923 INTER-LIGAND FREE ENERGY PREDICTED BY IDOCK:   -5.47 KCAL/MOL
REMARK 924 INTRA-LIGAND FREE ENERGY PREDICTED BY IDOCK:   -0.61 KCAL/MOL
REMARK 927      BINDING AFFINITY PREDICTED BY RF-SCORE:    0.00 PKD
ROOT
HETATM    1  C   UNL     1      -6.867  14.987  70.806  1.00  0.00     0.535 C  
HETATM    2  O   UNL     1      -6.723  14.422  69.506  1.00  0.00    -0.129 OA 
ENDROOT
BRANCH   2   3
HETATM    3  C   UNL     1      -7.245  15.175  68.484  1.00  0.00    -0.118 A  
HETATM    4  C   UNL     1      -8.167  14.676  67.559  1.00  0.00    -0.203 A  
HETATM    5  C   UNL     1      -8.643  15.468  66.506  1.00  0.00    -0.320 A  
HETATM    6  C   UNL     1      -8.250  16.811  66.443  1.00  0.00    -0.349 A  
HETATM    7  H   UNL     1      -5.702  17.931  69.246  1.00  0.00     0.000 HD 
HETATM    8  O   UNL     1      -5.965  17.020  69.304  1.00  0.00    -0.179 OA 
HETATM    9  C   UNL     1      -7.361  17.336  67.388  1.00  0.00    -0.185 A  
HETATM   10  C   UNL     1      -6.858  16.516  68.398  1.00  0.00    -0.145 A  
BRANCH   5  11
HETATM   11  C   UNL     1      -9.565  14.931  65.494  1.00  0.00    -0.180 C  
HETATM   12  C   UNL     1     -10.869  15.250  65.438  1.00  0.00    -0.399 C  
BRANCH  12  13
HETATM   13  C   UNL     1     -11.757  14.652  64.400  1.00  0.00    -0.346 C  
HETATM   14  O   UNL     1     -12.622  15.323  63.836  1.00  0.00    -0.765 OA 
BRANCH  13  15
HETATM   15  C   UNL     1     -11.547  13.206  64.049  1.00  0.00    -0.481 C  
BRANCH  15  16
HETATM   16  C   UNL     1     -11.553  12.303  65.250  1.00  0.00    -0.355 C  
HETATM   17  O   UNL     1     -12.528  12.251  66.000  1.00  0.00    -0.503 OA 
BRANCH  16  18
HETATM   18  C   UNL     1     -10.356  11.438  65.465  1.00  0.00    -0.317 C  
HETATM   19  C   UNL     1      -9.820  11.338  66.691  1.00  0.00    -0.235 C  
BRANCH  19  20
HETATM   20  C   UNL     1      -8.676  10.487  67.058  1.00  0.00    -0.132 A  
HETATM   21  C   UNL     1      -8.719   9.584  68.135  1.00  0.00    -0.120 A  
HETATM   22  C   UNL     1      -7.579   8.865  68.510  1.00  0.00    -0.097 A  
HETATM   23  C   UNL     1      -7.468  10.657  66.362  1.00  0.00    -0.138 A  
HETATM   24  C   UNL     1      -6.395   9.057  67.793  1.00  0.00    -0.056 A  
HETATM   25  H   UNL     1      -4.452   8.513  67.659  1.00  0.00     0.000 HD 
HETATM   26  O   UNL     1      -5.257   8.383  68.146  1.00  0.00    -0.032 OA 
HETATM   27  C   UNL     1      -6.328   9.938  66.724  1.00  0.00    -0.065 A  
BRANCH  22  28
HETATM   28  O   UNL     1      -7.494   7.976  69.549  1.00  0.00    -0.087 OA 
HETATM   29  C   UNL     1      -7.355   8.525  70.853  1.00  0.00    -0.068 C  
ENDBRANCH  22  28
ENDBRANCH  19  20
ENDBRANCH  16  18
ENDBRANCH  15  16
ENDBRANCH  13  15
ENDBRANCH  12  13
ENDBRANCH   5  11
ENDBRANCH   2   3
TORSDOF 8
ENDMDL
MODEL      271
REMARK 921   NORMALIZED FREE ENERGY PREDICTED BY IDOCK:   -3.06 KCAL/MOL
REMARK 922        TOTAL FREE ENERGY PREDICTED BY IDOCK:   -6.03 KCAL/MOL
REMARK 923 INTER-LIGAND FREE ENERGY PREDICTED BY IDOCK:   -4.98 KCAL/MOL
REMARK 924 INTRA-LIGAND FREE ENERGY PREDICTED BY IDOCK:   -1.05 KCAL/MOL
REMARK 927      BINDING AFFINITY PREDICTED BY RF-SCORE:    0.00 PKD
ROOT
HETATM    1  C   UNL     1      -9.577  10.619  63.544  1.00  0.00    -0.323 C  
HETATM    2  O   UNL     1      -8.542   9.647  63.416  1.00  0.00    -0.178 OA 
ENDROOT
BRANCH   2   3
HETATM    3  C   UNL     1      -8.509   8.701  64.410  1.00  0.00    -0.095 A  
HETATM    4  C   UNL     1      -9.192   8.838  65.622  1.00  0.00    -0.244 A  
HETATM    5  C   UNL     1      -9.096   7.865  66.626  1.00  0.00    -0.199 A  
HETATM    6  C   UNL     1      -8.371   6.696  66.362  1.00  0.00    -0.121 A  
HETATM    7  H   UNL     1      -6.625   6.582  62.822  1.00  0.00     0.000 HD 
HETATM    8  O   UNL     1      -7.118   7.378  62.984  1.00  0.00    -0.067 OA 
HETATM    9  C   UNL     1      -7.718   6.526  65.137  1.00  0.00    -0.097 A  
HETATM   10  C   UNL     1      -7.783   7.530  64.171  1.00  0.00    -0.132 A  
BRANCH   5  11
HETATM   11  C   UNL     1      -9.763   8.033  67.926  1.00  0.00    -0.189 C  
HETATM   12  C   UNL     1      -9.498   9.045  68.769  1.00  0.00    -0.148 C  
BRANCH  12  13
HETATM   13  C   UNL     1     -10.193   9.145  70.084  1.00  0.00    -0.205 C  
HETATM   14  O   UNL     1     -10.164   8.218  70.894  1.00  0.00    -0.188 OA 
BRANCH  13  15
HETATM   15  C   UNL     1     -10.914  10.427  70.398  1.00  0.00    -0.320 C  
BRANCH  15  16
HETATM   16  C   UNL     1     -11.572  11.040  69.194  1.00  0.00    -0.319 C  
HETATM   17  O   UNL     1     -12.592  10.549  68.709  1.00  0.00    -0.032 OA 
BRANCH  16  18
HETATM   18  C   UNL     1     -10.972  12.293  68.647  1.00  0.00    -0.276 C  
HETATM   19  C   UNL     1      -9.642  12.466  68.692  1.00  0.00    -0.036 C  
BRANCH  19  20
HETATM   20  C   UNL     1      -8.912  13.623  68.147  1.00  0.00    -0.191 A  
HETATM   21  C   UNL     1      -9.566  14.736  67.589  1.00  0.00    -0.208 A  
HETATM   22  C   UNL     1      -8.833  15.769  66.995  1.00  0.00    -0.216 A  
HETATM   23  C   UNL     1      -7.510  13.564  68.100  1.00  0.00    -0.132 A  
HETATM   24  C   UNL     1      -7.439  15.678  66.968  1.00  0.00    -0.193 A  
HETATM   25  H   UNL     1      -5.747  16.603  66.359  1.00  0.00     0.000 HD 
HETATM   26  O   UNL     1      -6.695  16.664  66.378  1.00  0.00    -0.201 OA 
HETATM   27  C   UNL     1      -6.771  14.593  67.516  1.00  0.00    -0.148 A  
BRANCH  22  28
HETATM   28  O   UNL     1      -9.356  16.888  66.403  1.00  0.00    -0.253 OA 
HETATM   29  C   UNL     1     -10.468  16.698  65.538  1.00  0.00    -0.267 C  
ENDBRANCH  22  28
ENDBRANCH  19  20
ENDBRANCH  16  18
ENDBRANCH  15  16
ENDBRANCH  13  15
ENDBRANCH  12  13
ENDBRANCH   5  11
ENDBRANCH   2   3
TORSDOF 8
ENDMDL
MODEL      272
REMARK 921   NORMALIZED FREE ENERGY PREDICTED BY IDOCK:   -3.00 KCAL/MOL
REMARK 922        TOTAL FREE ENERGY PREDICTED BY IDOCK:   -5.95 KCAL/MOL
REMARK 923 INTER-LIGAND FREE ENERGY PREDICTED BY IDOCK:   -5.26 KCAL/MOL
REMARK 924 INTRA-LIGAND FREE ENERGY PREDICTED BY IDOCK:   -0.69 KCAL/MOL
REMARK 927      BINDING AFFINITY PREDICTED BY RF-SCORE:    0.00 PKD
ROOT
HETATM    1  C   UNL     1     -10.821   3.245  63.598  1.00  0.00    -0.191 C  
HETATM    2  O   UNL     1      -9.686   2.657  64.229  1.00  0.00    -0.150 OA 
ENDROOT
BRANCH   2   3
HETATM    3  C   UNL     1      -8.823   3.547  64.818  1.00  0.00    -0.120 A  
HETATM    4  C   UNL     1      -8.757   4.898  64.464  1.00  0.00    -0.148 A  
HETATM    5  C   UNL     1      -7.831   5.763  65.063  1.00  0.00    -0.107 A  
HETATM    6  C   UNL     1      -7.024   5.272  66.097  1.00  0.00    -0.063 A  
HETATM    7  H   UNL     1      -7.506   1.437  66.909  1.00  0.00     0.000 HD 
HETATM    8  O   UNL     1      -8.064   1.758  66.210  1.00  0.00    -0.075 OA 
HETATM    9  C   UNL     1      -7.110   3.933  66.492  1.00  0.00    -0.063 A  
HETATM   10  C   UNL     1      -8.001   3.076  65.846  1.00  0.00    -0.085 A  
BRANCH   5  11
HETATM   11  C   UNL     1      -7.715   7.170  64.653  1.00  0.00    -0.112 C  
HETATM   12  C   UNL     1      -8.380   7.694  63.608  1.00  0.00     0.142 C  
BRANCH  12  13
HETATM   13  C   UNL     1      -8.201   9.124  63.229  1.00  0.00    -0.177 C  
HETATM   14  O   UNL     1      -7.295   9.476  62.474  1.00  0.00    -0.103 OA 
BRANCH  13  15
HETATM   15  C   UNL     1      -9.180  10.122  63.784  1.00  0.00    -0.321 C  
BRANCH  15  16
HETATM   16  C   UNL     1      -8.775  10.657  65.128  1.00  0.00    -0.186 C  
HETATM   17  O   UNL     1      -7.625  10.518  65.546  1.00  0.00    -0.152 OA 
BRANCH  16  18
HETATM   18  C   UNL     1      -9.804  11.407  65.907  1.00  0.00    -0.262 C  
HETATM   19  C   UNL     1      -9.416  12.274  66.855  1.00  0.00    -0.217 C  
BRANCH  19  20
HETATM   20  C   UNL     1     -10.315  13.116  67.662  1.00  0.00    -0.223 A  
HETATM   21  C   UNL     1     -10.434  14.503  67.463  1.00  0.00    -0.253 A  
HETATM   22  C   UNL     1     -11.225  15.281  68.315  1.00  0.00    -0.314 A  
HETATM   23  C   UNL     1     -11.005  12.521  68.731  1.00  0.00    -0.294 A  
HETATM   24  C   UNL     1     -11.900  14.655  69.367  1.00  0.00    -0.329 A  
HETATM   25  H   UNL     1     -13.127  14.966  70.944  1.00  0.00     0.000 HD 
HETATM   26  O   UNL     1     -12.668  15.391  70.229  1.00  0.00    -0.375 OA 
HETATM   27  C   UNL     1     -11.803  13.288  69.580  1.00  0.00    -0.391 A  
BRANCH  22  28
HETATM   28  O   UNL     1     -11.402  16.637  68.234  1.00  0.00    -0.309 OA 
HETATM   29  C   UNL     1     -10.288  17.451  68.579  1.00  0.00    -0.378 C  
ENDBRANCH  22  28
ENDBRANCH  19  20
ENDBRANCH  16  18
ENDBRANCH  15  16
ENDBRANCH  13  15
ENDBRANCH  12  13
ENDBRANCH   5  11
ENDBRANCH   2   3
TORSDOF 8
ENDMDL
MODEL      273
REMARK 921   NORMALIZED FREE ENERGY PREDICTED BY IDOCK:   -2.99 KCAL/MOL
REMARK 922        TOTAL FREE ENERGY PREDICTED BY IDOCK:   -5.94 KCAL/MOL
REMARK 923 INTER-LIGAND FREE ENERGY PREDICTED BY IDOCK:   -5.05 KCAL/MOL
REMARK 924 INTRA-LIGAND FREE ENERGY PREDICTED BY IDOCK:   -0.89 KCAL/MOL
REMARK 927      BINDING AFFINITY PREDICTED BY RF-SCORE:    0.00 PKD
ROOT
HETATM    1  C   UNL     1      -9.486   2.620  64.564  1.00  0.00    -0.140 C  
HETATM    2  O   UNL     1      -8.732   2.871  65.747  1.00  0.00    -0.116 OA 
ENDROOT
BRANCH   2   3
HETATM    3  C   UNL     1      -9.019   4.056  66.378  1.00  0.00    -0.128 A  
HETATM    4  C   UNL     1      -8.984   5.295  65.732  1.00  0.00    -0.154 A  
HETATM    5  C   UNL     1      -9.244   6.485  66.425  1.00  0.00    -0.178 A  
HETATM    6  C   UNL     1      -9.633   6.409  67.768  1.00  0.00    -0.123 A  
HETATM    7  H   UNL     1      -9.707   2.760  69.278  1.00  0.00     0.000 HD 
HETATM    8  O   UNL     1      -9.448   2.796  68.364  1.00  0.00    -0.197 OA 
HETATM    9  C   UNL     1      -9.714   5.172  68.417  1.00  0.00    -0.200 A  
HETATM   10  C   UNL     1      -9.400   4.004  67.722  1.00  0.00    -0.176 A  
BRANCH   5  11
HETATM   11  C   UNL     1      -9.150   7.796  65.766  1.00  0.00    -0.063 C  
HETATM   12  C   UNL     1      -8.180   8.117  64.892  1.00  0.00    -0.150 C  
BRANCH  12  13
HETATM   13  C   UNL     1      -8.127   9.473  64.275  1.00  0.00    -0.142 C  
HETATM   14  O   UNL     1      -7.191  10.240  64.499  1.00  0.00    -0.134 OA 
BRANCH  13  15
HETATM   15  C   UNL     1      -9.246   9.864  63.350  1.00  0.00    -0.278 C  
BRANCH  15  16
HETATM   16  C   UNL     1      -9.787  11.238  63.631  1.00  0.00    -0.340 C  
HETATM   17  O   UNL     1      -9.965  12.048  62.722  1.00  0.00    -0.137 OA 
BRANCH  16  18
HETATM   18  C   UNL     1     -10.147  11.558  65.044  1.00  0.00    -0.315 C  
HETATM   19  C   UNL     1      -9.960  12.802  65.511  1.00  0.00    -0.234 C  
BRANCH  19  20
HETATM   20  C   UNL     1     -10.315  13.271  66.861  1.00  0.00    -0.255 A  
HETATM   21  C   UNL     1      -9.590  14.274  67.528  1.00  0.00    -0.216 A  
HETATM   22  C   UNL     1      -9.902  14.621  68.847  1.00  0.00    -0.211 A  
HETATM   23  C   UNL     1     -11.360  12.622  67.538  1.00  0.00    -0.361 A  
HETATM   24  C   UNL     1     -10.950  13.957  69.490  1.00  0.00    -0.063 A  
HETATM   25  H   UNL     1     -11.980  13.809  71.223  1.00  0.00     0.000 HD 
HETATM   26  O   UNL     1     -11.268  14.261  70.786  1.00  0.00    -0.026 OA 
HETATM   27  C   UNL     1     -11.683  12.968  68.850  1.00  0.00    -0.371 A  
BRANCH  22  28
HETATM   28  O   UNL     1      -9.258  15.564  69.605  1.00  0.00    -0.275 OA 
HETATM   29  C   UNL     1      -7.855  15.405  69.770  1.00  0.00    -0.059 C  
ENDBRANCH  22  28
ENDBRANCH  19  20
ENDBRANCH  16  18
ENDBRANCH  15  16
ENDBRANCH  13  15
ENDBRANCH  12  13
ENDBRANCH   5  11
ENDBRANCH   2   3
TORSDOF 8
ENDMDL
MODEL      274
REMARK 921   NORMALIZED FREE ENERGY PREDICTED BY IDOCK:   -2.86 KCAL/MOL
REMARK 922        TOTAL FREE ENERGY PREDICTED BY IDOCK:   -5.75 KCAL/MOL
REMARK 923 INTER-LIGAND FREE ENERGY PREDICTED BY IDOCK:   -5.04 KCAL/MOL
REMARK 924 INTRA-LIGAND FREE ENERGY PREDICTED BY IDOCK:   -0.71 KCAL/MOL
REMARK 927      BINDING AFFINITY PREDICTED BY RF-SCORE:    0.00 PKD
ROOT
HETATM    1  C   UNL     1     -10.278  17.437  68.839  1.00  0.00    -0.352 C  
HETATM    2  O   UNL     1     -11.284  16.646  68.211  1.00  0.00    -0.349 OA 
ENDROOT
BRANCH   2   3
HETATM    3  C   UNL     1     -11.292  15.322  68.573  1.00  0.00    -0.327 A  
HETATM    4  C   UNL     1     -10.474  14.359  67.973  1.00  0.00    -0.237 A  
HETATM    5  C   UNL     1     -10.544  13.010  68.346  1.00  0.00    -0.264 A  
HETATM    6  C   UNL     1     -11.389  12.648  69.402  1.00  0.00    -0.273 A  
HETATM    7  H   UNL     1     -13.506  15.609  70.934  1.00  0.00     0.000 HD 
HETATM    8  O   UNL     1     -12.933  15.871  70.223  1.00  0.00    -0.317 OA 
HETATM    9  C   UNL     1     -12.181  13.608  70.041  1.00  0.00    -0.395 A  
HETATM   10  C   UNL     1     -12.135  14.937  69.619  1.00  0.00    -0.295 A  
BRANCH   5  11
HETATM   11  C   UNL     1      -9.731  11.984  67.677  1.00  0.00    -0.187 C  
HETATM   12  C   UNL     1     -10.040  11.459  66.479  1.00  0.00    -0.250 C  
BRANCH  12  13
HETATM   13  C   UNL     1      -9.185  10.404  65.865  1.00  0.00    -0.170 C  
HETATM   14  O   UNL     1      -8.914  10.420  64.664  1.00  0.00    -0.183 OA 
BRANCH  13  15
HETATM   15  C   UNL     1      -8.644   9.329  66.767  1.00  0.00    -0.134 C  
BRANCH  15  16
HETATM   16  C   UNL     1      -9.662   8.274  67.098  1.00  0.00    -0.195 C  
HETATM   17  O   UNL     1     -10.760   8.255  66.542  1.00  0.00    -0.090 OA 
BRANCH  16  18
HETATM   18  C   UNL     1      -9.267   7.224  68.083  1.00  0.00    -0.132 C  
HETATM   19  C   UNL     1      -8.213   7.433  68.887  1.00  0.00    -0.129 C  
BRANCH  19  20
HETATM   20  C   UNL     1      -7.742   6.512  69.935  1.00  0.00    -0.109 A  
HETATM   21  C   UNL     1      -8.530   6.167  71.049  1.00  0.00    -0.128 A  
HETATM   22  C   UNL     1      -8.008   5.367  72.070  1.00  0.00    -0.113 A  
HETATM   23  C   UNL     1      -6.422   6.039  69.864  1.00  0.00    -0.042 A  
HETATM   24  C   UNL     1      -6.691   4.912  71.965  1.00  0.00    -0.047 A  
HETATM   25  H   UNL     1      -5.250   3.832  72.886  1.00  0.00     0.000 HD 
HETATM   26  O   UNL     1      -6.146   4.142  72.957  1.00  0.00    -0.014 OA 
HETATM   27  C   UNL     1      -5.897   5.234  70.875  1.00  0.00    -0.021 A  
BRANCH  22  28
HETATM   28  O   UNL     1      -8.668   4.982  73.207  1.00  0.00    -0.112 OA 
HETATM   29  C   UNL     1     -10.055   5.288  73.279  1.00  0.00    -0.175 C  
ENDBRANCH  22  28
ENDBRANCH  19  20
ENDBRANCH  16  18
ENDBRANCH  15  16
ENDBRANCH  13  15
ENDBRANCH  12  13
ENDBRANCH   5  11
ENDBRANCH   2   3
TORSDOF 8
ENDMDL
MODEL      275
REMARK 921   NORMALIZED FREE ENERGY PREDICTED BY IDOCK:   -2.78 KCAL/MOL
REMARK 922        TOTAL FREE ENERGY PREDICTED BY IDOCK:   -5.62 KCAL/MOL
REMARK 923 INTER-LIGAND FREE ENERGY PREDICTED BY IDOCK:   -5.12 KCAL/MOL
REMARK 924 INTRA-LIGAND FREE ENERGY PREDICTED BY IDOCK:   -0.51 KCAL/MOL
REMARK 927      BINDING AFFINITY PREDICTED BY RF-SCORE:    0.00 PKD
ROOT
HETATM    1  C   UNL     1      -5.812   6.835  70.906  1.00  0.00    -0.028 C  
HETATM    2  O   UNL     1      -6.783   6.100  70.167  1.00  0.00    -0.046 OA 
ENDROOT
BRANCH   2   3
HETATM    3  C   UNL     1      -7.097   6.625  68.938  1.00  0.00    -0.085 A  
HETATM    4  C   UNL     1      -6.916   7.972  68.611  1.00  0.00    -0.071 A  
HETATM    5  C   UNL     1      -7.289   8.474  67.357  1.00  0.00    -0.089 A  
HETATM    6  C   UNL     1      -7.766   7.580  66.390  1.00  0.00    -0.089 A  
HETATM    7  H   UNL     1      -8.086   3.833  67.600  1.00  0.00     0.000 HD 
HETATM    8  O   UNL     1      -7.755   4.427  68.263  1.00  0.00    -0.074 OA 
HETATM    9  C   UNL     1      -7.911   6.221  66.688  1.00  0.00    -0.108 A  
HETATM   10  C   UNL     1      -7.584   5.751  67.961  1.00  0.00    -0.085 A  
BRANCH   5  11
HETATM   11  C   UNL     1      -7.158   9.901  67.030  1.00  0.00    -0.089 C  
HETATM   12  C   UNL     1      -7.932  10.858  67.568  1.00  0.00    -0.115 C  
BRANCH  12  13
HETATM   13  C   UNL     1      -7.764  12.287  67.176  1.00  0.00    -0.134 C  
HETATM   14  O   UNL     1      -6.665  12.839  67.232  1.00  0.00    -0.158 OA 
BRANCH  13  15
HETATM   15  C   UNL     1      -8.979  13.025  66.687  1.00  0.00    -0.132 C  
BRANCH  15  16
HETATM   16  C   UNL     1     -10.100  13.037  67.686  1.00  0.00    -0.217 C  
HETATM   17  O   UNL     1     -10.790  14.043  67.854  1.00  0.00    -0.240 OA 
BRANCH  16  18
HETATM   18  C   UNL     1     -10.376  11.769  68.423  1.00  0.00    -0.223 C  
HETATM   19  C   UNL     1     -11.352  11.735  69.344  1.00  0.00    -0.337 C  
BRANCH  19  20
HETATM   20  C   UNL     1     -11.767  10.546  70.107  1.00  0.00    -0.410 A  
HETATM   21  C   UNL     1     -11.002   9.366  70.144  1.00  0.00    -0.282 A  
HETATM   22  C   UNL     1     -11.480   8.227  70.801  1.00  0.00    -0.252 A  
HETATM   23  C   UNL     1     -13.019  10.565  70.742  1.00  0.00    -0.413 A  
HETATM   24  C   UNL     1     -12.729   8.282  71.424  1.00  0.00    -0.263 A  
HETATM   25  H   UNL     1     -14.082   7.217  72.484  1.00  0.00     0.000 HD 
HETATM   26  O   UNL     1     -13.232   7.180  72.061  1.00  0.00    -0.236 OA 
HETATM   27  C   UNL     1     -13.499   9.436  71.406  1.00  0.00    -0.403 A  
BRANCH  22  28
HETATM   28  O   UNL     1     -10.838   7.020  70.887  1.00  0.00    -0.232 OA 
HETATM   29  C   UNL     1     -10.663   6.297  69.675  1.00  0.00    -0.306 C  
ENDBRANCH  22  28
ENDBRANCH  19  20
ENDBRANCH  16  18
ENDBRANCH  15  16
ENDBRANCH  13  15
ENDBRANCH  12  13
ENDBRANCH   5  11
ENDBRANCH   2   3
TORSDOF 8
ENDMDL
MODEL      276
REMARK 921   NORMALIZED FREE ENERGY PREDICTED BY IDOCK:   -2.72 KCAL/MOL
REMARK 922        TOTAL FREE ENERGY PREDICTED BY IDOCK:   -5.54 KCAL/MOL
REMARK 923 INTER-LIGAND FREE ENERGY PREDICTED BY IDOCK:   -5.85 KCAL/MOL
REMARK 924 INTRA-LIGAND FREE ENERGY PREDICTED BY IDOCK:    0.31 KCAL/MOL
REMARK 927      BINDING AFFINITY PREDICTED BY RF-SCORE:    0.00 PKD
ROOT
HETATM    1  C   UNL     1     -10.652  19.970  65.475  1.00  0.00    -0.194 C  
HETATM    2  O   UNL     1     -10.095  19.558  66.721  1.00  0.00    -0.349 OA 
ENDROOT
BRANCH   2   3
HETATM    3  C   UNL     1      -9.466  18.338  66.700  1.00  0.00    -0.308 A  
HETATM    4  C   UNL     1     -10.076  17.155  67.128  1.00  0.00    -0.295 A  
HETATM    5  C   UNL     1      -9.382  15.937  67.129  1.00  0.00    -0.223 A  
HETATM    6  C   UNL     1      -8.084  15.903  66.605  1.00  0.00    -0.298 A  
HETATM    7  H   UNL     1      -6.677  19.396  65.410  1.00  0.00     0.000 HD 
HETATM    8  O   UNL     1      -7.561  19.432  65.757  1.00  0.00    -0.379 OA 
HETATM    9  C   UNL     1      -7.476  17.072  66.133  1.00  0.00    -0.255 A  
HETATM   10  C   UNL     1      -8.166  18.283  66.190  1.00  0.00    -0.139 A  
BRANCH   5  11
HETATM   11  C   UNL     1      -9.997  14.701  67.635  1.00  0.00    -0.227 C  
HETATM   12  C   UNL     1     -10.885  14.675  68.643  1.00  0.00    -0.261 C  
BRANCH  12  13
HETATM   13  C   UNL     1     -11.456  13.385  69.124  1.00  0.00    -0.300 C  
HETATM   14  O   UNL     1     -12.339  13.357  69.982  1.00  0.00    -0.296 OA 
BRANCH  13  15
HETATM   15  C   UNL     1     -10.932  12.116  68.510  1.00  0.00    -0.276 C  
BRANCH  15  16
HETATM   16  C   UNL     1     -11.346  10.884  69.264  1.00  0.00    -0.277 C  
HETATM   17  O   UNL     1     -11.911  10.968  70.355  1.00  0.00    -0.317 OA 
BRANCH  16  18
HETATM   18  C   UNL     1     -11.096   9.565  68.613  1.00  0.00    -0.034 C  
HETATM   19  C   UNL     1      -9.850   9.237  68.235  1.00  0.00    -0.179 C  
BRANCH  19  20
HETATM   20  C   UNL     1      -9.449   7.956  67.631  1.00  0.00    -0.170 A  
HETATM   21  C   UNL     1      -9.559   6.731  68.314  1.00  0.00    -0.127 A  
HETATM   22  C   UNL     1      -9.076   5.550  67.740  1.00  0.00    -0.107 A  
HETATM   23  C   UNL     1      -8.847   7.976  66.363  1.00  0.00    -0.183 A  
HETATM   24  C   UNL     1      -8.485   5.606  66.475  1.00  0.00    -0.114 A  
HETATM   25  H   UNL     1      -7.585   4.510  65.035  1.00  0.00     0.000 HD 
HETATM   26  O   UNL     1      -7.986   4.471  65.895  1.00  0.00    -0.097 OA 
HETATM   27  C   UNL     1      -8.370   6.802  65.780  1.00  0.00    -0.143 A  
BRANCH  22  28
HETATM   28  O   UNL     1      -9.108   4.306  68.313  1.00  0.00    -0.115 OA 
HETATM   29  C   UNL     1      -9.778   4.191  69.562  1.00  0.00    -0.183 C  
ENDBRANCH  22  28
ENDBRANCH  19  20
ENDBRANCH  16  18
ENDBRANCH  15  16
ENDBRANCH  13  15
ENDBRANCH  12  13
ENDBRANCH   5  11
ENDBRANCH   2   3
TORSDOF 8
ENDMDL
MODEL      277
REMARK 921   NORMALIZED FREE ENERGY PREDICTED BY IDOCK:   -2.50 KCAL/MOL
REMARK 922        TOTAL FREE ENERGY PREDICTED BY IDOCK:   -5.22 KCAL/MOL
REMARK 923 INTER-LIGAND FREE ENERGY PREDICTED BY IDOCK:   -4.47 KCAL/MOL
REMARK 924 INTRA-LIGAND FREE ENERGY PREDICTED BY IDOCK:   -0.74 KCAL/MOL
REMARK 927      BINDING AFFINITY PREDICTED BY RF-SCORE:    0.00 PKD
ROOT
HETATM    1  C   UNL     1      -6.214   3.222  69.571  1.00  0.00    -0.028 C  
HETATM    2  O   UNL     1      -6.016   2.969  68.182  1.00  0.00    -0.023 OA 
ENDROOT
BRANCH   2   3
HETATM    3  C   UNL     1      -6.600   3.880  67.337  1.00  0.00    -0.046 A  
HETATM    4  C   UNL     1      -6.849   5.208  67.696  1.00  0.00    -0.060 A  
HETATM    5  C   UNL     1      -7.486   6.092  66.816  1.00  0.00    -0.087 A  
HETATM    6  C   UNL     1      -7.791   5.650  65.522  1.00  0.00    -0.100 A  
HETATM    7  H   UNL     1      -6.891   1.873  64.797  1.00  0.00     0.000 HD 
HETATM    8  O   UNL     1      -6.673   2.161  65.676  1.00  0.00    -0.033 OA 
HETATM    9  C   UNL     1      -7.508   4.336  65.134  1.00  0.00    -0.073 A  
HETATM   10  C   UNL     1      -6.922   3.456  66.044  1.00  0.00    -0.061 A  
BRANCH   5  11
HETATM   11  C   UNL     1      -7.806   7.472  67.209  1.00  0.00    -0.118 C  
HETATM   12  C   UNL     1      -8.534   8.309  66.450  1.00  0.00    -0.125 C  
BRANCH  12  13
HETATM   13  C   UNL     1      -8.804   9.705  66.896  1.00  0.00    -0.131 C  
HETATM   14  O   UNL     1      -9.159   9.950  68.050  1.00  0.00    -0.122 OA 
BRANCH  13  15
HETATM   15  C   UNL     1      -8.606  10.809  65.896  1.00  0.00    -0.182 C  
BRANCH  15  16
HETATM   16  C   UNL     1      -9.879  11.533  65.560  1.00  0.00    -0.234 C  
HETATM   17  O   UNL     1     -10.875  10.920  65.177  1.00  0.00    -0.192 OA 
BRANCH  16  18
HETATM   18  C   UNL     1      -9.902  13.012  65.763  1.00  0.00    -0.217 C  
HETATM   19  C   UNL     1      -9.777  13.514  67.001  1.00  0.00    -0.251 C  
BRANCH  19  20
HETATM   20  C   UNL     1      -9.731  14.946  67.343  1.00  0.00    -0.217 A  
HETATM   21  C   UNL     1      -8.613  15.754  67.067  1.00  0.00    -0.247 A  
HETATM   22  C   UNL     1      -8.573  17.084  67.496  1.00  0.00    -0.205 A  
HETATM   23  C   UNL     1     -10.808  15.496  68.056  1.00  0.00    -0.300 A  
HETATM   24  C   UNL     1      -9.663  17.600  68.201  1.00  0.00    -0.310 A  
HETATM   25  H   UNL     1     -10.389  19.244  69.129  1.00  0.00     0.000 HD 
HETATM   26  O   UNL     1      -9.647  18.893  68.649  1.00  0.00    -0.353 OA 
HETATM   27  C   UNL     1     -10.779  16.824  68.480  1.00  0.00    -0.358 A  
BRANCH  22  28
HETATM   28  O   UNL     1      -7.536  17.960  67.306  1.00  0.00    -0.197 OA 
HETATM   29  C   UNL     1      -6.336  17.426  66.760  1.00  0.00    -0.202 C  
ENDBRANCH  22  28
ENDBRANCH  19  20
ENDBRANCH  16  18
ENDBRANCH  15  16
ENDBRANCH  13  15
ENDBRANCH  12  13
ENDBRANCH   5  11
ENDBRANCH   2   3
TORSDOF 8
ENDMDL
MODEL      278
REMARK 921   NORMALIZED FREE ENERGY PREDICTED BY IDOCK:   -2.50 KCAL/MOL
REMARK 922        TOTAL FREE ENERGY PREDICTED BY IDOCK:   -5.21 KCAL/MOL
REMARK 923 INTER-LIGAND FREE ENERGY PREDICTED BY IDOCK:   -4.56 KCAL/MOL
REMARK 924 INTRA-LIGAND FREE ENERGY PREDICTED BY IDOCK:   -0.65 KCAL/MOL
REMARK 927      BINDING AFFINITY PREDICTED BY RF-SCORE:    0.00 PKD
ROOT
HETATM    1  C   UNL     1     -10.360  18.091  70.076  1.00  0.00     1.032 C  
HETATM    2  O   UNL     1     -10.831  17.731  68.780  1.00  0.00    -0.107 OA 
ENDROOT
BRANCH   2   3
HETATM    3  C   UNL     1      -9.887  17.171  67.955  1.00  0.00    -0.283 A  
HETATM    4  C   UNL     1      -9.596  15.803  67.942  1.00  0.00    -0.214 A  
HETATM    5  C   UNL     1      -8.596  15.280  67.112  1.00  0.00    -0.236 A  
HETATM    6  C   UNL     1      -7.945  16.140  66.219  1.00  0.00    -0.138 A  
HETATM    7  H   UNL     1      -9.048  19.926  66.450  1.00  0.00     0.000 HD 
HETATM    8  O   UNL     1      -9.502  19.353  67.056  1.00  0.00    -0.304 OA 
HETATM    9  C   UNL     1      -8.257  17.504  66.190  1.00  0.00    -0.222 A  
HETATM   10  C   UNL     1      -9.219  18.014  67.062  1.00  0.00    -0.265 A  
BRANCH   5  11
HETATM   11  C   UNL     1      -8.243  13.853  67.138  1.00  0.00    -0.128 C  
HETATM   12  C   UNL     1      -9.123  12.869  66.888  1.00  0.00    -0.224 C  
BRANCH  12  13
HETATM   13  C   UNL     1      -8.708  11.438  66.952  1.00  0.00    -0.165 C  
HETATM   14  O   UNL     1      -7.661  11.102  67.507  1.00  0.00    -0.101 OA 
BRANCH  13  15
HETATM   15  C   UNL     1      -9.622  10.416  66.336  1.00  0.00    -0.225 C  
BRANCH  15  16
HETATM   16  C   UNL     1     -10.654   9.897  67.297  1.00  0.00    -0.252 C  
HETATM   17  O   UNL     1     -11.613  10.591  67.634  1.00  0.00    -0.447 OA 
BRANCH  16  18
HETATM   18  C   UNL     1     -10.497   8.493  67.780  1.00  0.00    -0.287 C  
HETATM   19  C   UNL     1     -10.418   8.250  69.098  1.00  0.00    -0.217 C  
BRANCH  19  20
HETATM   20  C   UNL     1     -10.314   6.918  69.716  1.00  0.00    -0.224 A  
HETATM   21  C   UNL     1     -10.330   6.727  71.110  1.00  0.00    -0.227 A  
HETATM   22  C   UNL     1     -10.130   5.456  71.658  1.00  0.00    -0.203 A  
HETATM   23  C   UNL     1     -10.095   5.810  68.881  1.00  0.00    -0.242 A  
HETATM   24  C   UNL     1      -9.918   4.376  70.797  1.00  0.00    -0.177 A  
HETATM   25  H   UNL     1      -9.557   2.388  70.718  1.00  0.00     0.000 HD 
HETATM   26  O   UNL     1      -9.702   3.122  71.303  1.00  0.00    -0.157 OA 
HETATM   27  C   UNL     1      -9.903   4.538  69.419  1.00  0.00    -0.260 A  
BRANCH  22  28
HETATM   28  O   UNL     1     -10.104   5.150  72.993  1.00  0.00    -0.160 OA 
HETATM   29  C   UNL     1      -9.188   5.878  73.801  1.00  0.00    -0.127 C  
ENDBRANCH  22  28
ENDBRANCH  19  20
ENDBRANCH  16  18
ENDBRANCH  15  16
ENDBRANCH  13  15
ENDBRANCH  12  13
ENDBRANCH   5  11
ENDBRANCH   2   3
TORSDOF 8
ENDMDL
MODEL      279
REMARK 921   NORMALIZED FREE ENERGY PREDICTED BY IDOCK:   -2.48 KCAL/MOL
REMARK 922        TOTAL FREE ENERGY PREDICTED BY IDOCK:   -5.19 KCAL/MOL
REMARK 923 INTER-LIGAND FREE ENERGY PREDICTED BY IDOCK:   -5.49 KCAL/MOL
REMARK 924 INTRA-LIGAND FREE ENERGY PREDICTED BY IDOCK:    0.30 KCAL/MOL
REMARK 927      BINDING AFFINITY PREDICTED BY RF-SCORE:    0.00 PKD
ROOT
HETATM    1  C   UNL     1      -9.997  20.371  65.458  1.00  0.00     0.202 C  
HETATM    2  O   UNL     1     -10.165  19.690  66.699  1.00  0.00    -0.391 OA 
ENDROOT
BRANCH   2   3
HETATM    3  C   UNL     1      -9.630  18.426  66.744  1.00  0.00    -0.307 A  
HETATM    4  C   UNL     1     -10.323  17.319  67.244  1.00  0.00    -0.331 A  
HETATM    5  C   UNL     1      -9.723  16.055  67.310  1.00  0.00    -0.232 A  
HETATM    6  C   UNL     1      -8.437  15.892  66.780  1.00  0.00    -0.297 A  
HETATM    7  H   UNL     1      -6.783  19.193  65.377  1.00  0.00     0.000 HD 
HETATM    8  O   UNL     1      -7.658  19.317  65.728  1.00  0.00    -0.406 OA 
HETATM    9  C   UNL     1      -7.748  16.982  66.238  1.00  0.00    -0.346 A  
HETATM   10  C   UNL     1      -8.343  18.244  66.229  1.00  0.00    -0.203 A  
BRANCH   5  11
HETATM   11  C   UNL     1     -10.425  14.900  67.890  1.00  0.00    -0.250 C  
HETATM   12  C   UNL     1     -11.397  15.010  68.811  1.00  0.00    -0.306 C  
BRANCH  12  13
HETATM   13  C   UNL     1     -12.054  13.797  69.376  1.00  0.00    -0.328 C  
HETATM   14  O   UNL     1     -13.124  13.874  69.981  1.00  0.00     0.076 OA 
BRANCH  13  15
HETATM   15  C   UNL     1     -11.377  12.472  69.163  1.00  0.00    -0.331 C  
BRANCH  15  16
HETATM   16  C   UNL     1     -11.538  11.949  67.763  1.00  0.00    -0.323 C  
HETATM   17  O   UNL     1     -12.453  12.344  67.040  1.00  0.00    -0.228 OA 
BRANCH  16  18
HETATM   18  C   UNL     1     -10.517  10.979  67.272  1.00  0.00    -0.270 C  
HETATM   19  C   UNL     1      -9.855  11.232  66.132  1.00  0.00    -0.262 C  
BRANCH  19  20
HETATM   20  C   UNL     1      -8.790  10.393  65.557  1.00  0.00    -0.193 A  
HETATM   21  C   UNL     1      -7.630  10.046  66.273  1.00  0.00    -0.106 A  
HETATM   22  C   UNL     1      -6.600   9.330  65.656  1.00  0.00    -0.069 A  
HETATM   23  C   UNL     1      -8.899  10.008  64.211  1.00  0.00    -0.245 A  
HETATM   24  C   UNL     1      -6.742   8.960  64.316  1.00  0.00    -0.078 A  
HETATM   25  H   UNL     1      -5.841   8.022  62.769  1.00  0.00     0.000 HD 
HETATM   26  O   UNL     1      -5.744   8.274  63.679  1.00  0.00    -0.064 OA 
HETATM   27  C   UNL     1      -7.879   9.286  63.591  1.00  0.00    -0.130 A  
BRANCH  22  28
HETATM   28  O   UNL     1      -5.420   8.953  66.242  1.00  0.00    -0.036 OA 
HETATM   29  C   UNL     1      -5.489   7.929  67.226  1.00  0.00    -0.036 C  
ENDBRANCH  22  28
ENDBRANCH  19  20
ENDBRANCH  16  18
ENDBRANCH  15  16
ENDBRANCH  13  15
ENDBRANCH  12  13
ENDBRANCH   5  11
ENDBRANCH   2   3
TORSDOF 8
ENDMDL
MODEL      280
REMARK 921   NORMALIZED FREE ENERGY PREDICTED BY IDOCK:   -2.47 KCAL/MOL
REMARK 922        TOTAL FREE ENERGY PREDICTED BY IDOCK:   -5.17 KCAL/MOL
REMARK 923 INTER-LIGAND FREE ENERGY PREDICTED BY IDOCK:   -5.34 KCAL/MOL
REMARK 924 INTRA-LIGAND FREE ENERGY PREDICTED BY IDOCK:    0.17 KCAL/MOL
REMARK 927      BINDING AFFINITY PREDICTED BY RF-SCORE:    0.00 PKD
ROOT
HETATM    1  C   UNL     1      -9.082  17.320  68.124  1.00  0.00    -0.257 C  
HETATM    2  O   UNL     1     -10.182  16.892  67.326  1.00  0.00    -0.284 OA 
ENDROOT
BRANCH   2   3
HETATM    3  C   UNL     1     -10.543  15.578  67.493  1.00  0.00    -0.297 A  
HETATM    4  C   UNL     1      -9.930  14.523  66.811  1.00  0.00    -0.267 A  
HETATM    5  C   UNL     1     -10.359  13.199  66.981  1.00  0.00    -0.249 A  
HETATM    6  C   UNL     1     -11.361  12.933  67.921  1.00  0.00    -0.336 A  
HETATM    7  H   UNL     1     -12.835  16.119  69.732  1.00  0.00     0.000 HD 
HETATM    8  O   UNL     1     -12.151  16.314  69.102  1.00  0.00    -0.143 OA 
HETATM    9  C   UNL     1     -11.955  13.975  68.642  1.00  0.00    -0.389 A  
HETATM   10  C   UNL     1     -11.550  15.291  68.420  1.00  0.00    -0.349 A  
BRANCH   5  11
HETATM   11  C   UNL     1      -9.758  12.093  66.222  1.00  0.00    -0.251 C  
HETATM   12  C   UNL     1     -10.222  11.673  65.032  1.00  0.00    -0.321 C  
BRANCH  12  13
HETATM   13  C   UNL     1      -9.581  10.529  64.323  1.00  0.00    -0.307 C  
HETATM   14  O   UNL     1      -9.276  10.605  63.133  1.00  0.00    -0.230 OA 
BRANCH  13  15
HETATM   15  C   UNL     1      -9.299   9.284  65.118  1.00  0.00    -0.239 C  
BRANCH  15  16
HETATM   16  C   UNL     1      -8.356   8.344  64.420  1.00  0.00    -0.097 C  
HETATM   17  O   UNL     1      -7.813   8.660  63.362  1.00  0.00    -0.135 OA 
BRANCH  16  18
HETATM   18  C   UNL     1      -8.067   7.041  65.089  1.00  0.00    -0.124 C  
HETATM   19  C   UNL     1      -8.885   6.595  66.056  1.00  0.00    -0.151 C  
BRANCH  19  20
HETATM   20  C   UNL     1      -8.752   5.311  66.763  1.00  0.00    -0.112 A  
HETATM   21  C   UNL     1      -7.995   4.241  66.252  1.00  0.00    -0.098 A  
HETATM   22  C   UNL     1      -7.975   3.005  66.908  1.00  0.00    -0.079 A  
HETATM   23  C   UNL     1      -9.487   5.121  67.944  1.00  0.00    -0.155 A  
HETATM   24  C   UNL     1      -8.717   2.852  68.082  1.00  0.00    -0.106 A  
HETATM   25  H   UNL     1      -9.236   1.547  69.536  1.00  0.00     0.000 HD 
HETATM   26  O   UNL     1      -8.732   1.651  68.738  1.00  0.00    -0.058 OA 
HETATM   27  C   UNL     1      -9.466   3.895  68.609  1.00  0.00    -0.217 A  
BRANCH  22  28
HETATM   28  O   UNL     1      -7.295   1.889  66.499  1.00  0.00    -0.055 OA 
HETATM   29  C   UNL     1      -6.670   1.949  65.223  1.00  0.00    -0.031 C  
ENDBRANCH  22  28
ENDBRANCH  19  20
ENDBRANCH  16  18
ENDBRANCH  15  16
ENDBRANCH  13  15
ENDBRANCH  12  13
ENDBRANCH   5  11
ENDBRANCH   2   3
TORSDOF 8
ENDMDL
MODEL      281
REMARK 921   NORMALIZED FREE ENERGY PREDICTED BY IDOCK:   -2.46 KCAL/MOL
REMARK 922        TOTAL FREE ENERGY PREDICTED BY IDOCK:   -5.16 KCAL/MOL
REMARK 923 INTER-LIGAND FREE ENERGY PREDICTED BY IDOCK:   -4.01 KCAL/MOL
REMARK 924 INTRA-LIGAND FREE ENERGY PREDICTED BY IDOCK:   -1.15 KCAL/MOL
REMARK 927      BINDING AFFINITY PREDICTED BY RF-SCORE:    0.00 PKD
ROOT
HETATM    1  C   UNL     1      -6.035  11.141  67.812  1.00  0.00    -0.047 C  
HETATM    2  O   UNL     1      -6.540  12.145  66.936  1.00  0.00    -0.119 OA 
ENDROOT
BRANCH   2   3
HETATM    3  C   UNL     1      -7.346  13.083  67.531  1.00  0.00    -0.152 A  
HETATM    4  C   UNL     1      -8.609  12.788  68.051  1.00  0.00    -0.186 A  
HETATM    5  C   UNL     1      -9.417  13.786  68.614  1.00  0.00    -0.099 A  
HETATM    6  C   UNL     1      -8.899  15.081  68.733  1.00  0.00    -0.192 A  
HETATM    7  H   UNL     1      -5.275  15.571  67.239  1.00  0.00     0.000 HD 
HETATM    8  O   UNL     1      -5.611  14.686  67.157  1.00  0.00    -0.143 OA 
HETATM    9  C   UNL     1      -7.618  15.382  68.257  1.00  0.00    -0.115 A  
HETATM   10  C   UNL     1      -6.852  14.386  67.652  1.00  0.00    -0.182 A  
BRANCH   5  11
HETATM   11  C   UNL     1     -10.770  13.493  69.107  1.00  0.00    -0.118 C  
HETATM   12  C   UNL     1     -11.268  14.000  70.248  1.00  0.00     0.063 C  
BRANCH  12  13
HETATM   13  C   UNL     1     -12.642  13.645  70.705  1.00  0.00    -0.296 C  
HETATM   14  O   UNL     1     -13.625  14.289  70.334  1.00  0.00     0.146 OA 
BRANCH  13  15
HETATM   15  C   UNL     1     -12.791  12.460  71.618  1.00  0.00    -0.375 C  
BRANCH  15  16
HETATM   16  C   UNL     1     -12.682  11.146  70.896  1.00  0.00    -0.344 C  
HETATM   17  O   UNL     1     -13.271  10.956  69.833  1.00  0.00     0.018 OA 
BRANCH  16  18
HETATM   18  C   UNL     1     -11.790  10.108  71.493  1.00  0.00    -0.356 C  
HETATM   19  C   UNL     1     -10.990   9.384  70.696  1.00  0.00    -0.352 C  
BRANCH  19  20
HETATM   20  C   UNL     1     -10.026   8.367  71.148  1.00  0.00    -0.245 A  
HETATM   21  C   UNL     1      -8.703   8.314  70.674  1.00  0.00    -0.144 A  
HETATM   22  C   UNL     1      -7.850   7.273  71.056  1.00  0.00    -0.097 A  
HETATM   23  C   UNL     1     -10.479   7.358  72.014  1.00  0.00    -0.230 A  
HETATM   24  C   UNL     1      -8.333   6.288  71.921  1.00  0.00    -0.117 A  
HETATM   25  H   UNL     1      -7.857   4.577  72.888  1.00  0.00     0.000 HD 
HETATM   26  O   UNL     1      -7.529   5.247  72.299  1.00  0.00    -0.090 OA 
HETATM   27  C   UNL     1      -9.632   6.321  72.407  1.00  0.00    -0.156 A  
BRANCH  22  28
HETATM   28  O   UNL     1      -6.554   7.104  70.646  1.00  0.00    -0.046 OA 
HETATM   29  C   UNL     1      -6.318   7.112  69.244  1.00  0.00    -0.035 C  
ENDBRANCH  22  28
ENDBRANCH  19  20
ENDBRANCH  16  18
ENDBRANCH  15  16
ENDBRANCH  13  15
ENDBRANCH  12  13
ENDBRANCH   5  11
ENDBRANCH   2   3
TORSDOF 8
ENDMDL
MODEL      282
REMARK 921   NORMALIZED FREE ENERGY PREDICTED BY IDOCK:   -2.45 KCAL/MOL
REMARK 922        TOTAL FREE ENERGY PREDICTED BY IDOCK:   -5.14 KCAL/MOL
REMARK 923 INTER-LIGAND FREE ENERGY PREDICTED BY IDOCK:   -4.50 KCAL/MOL
REMARK 924 INTRA-LIGAND FREE ENERGY PREDICTED BY IDOCK:   -0.64 KCAL/MOL
REMARK 927      BINDING AFFINITY PREDICTED BY RF-SCORE:    0.00 PKD
ROOT
HETATM    1  C   UNL     1     -10.514   5.111  65.844  1.00  0.00    -0.125 C  
HETATM    2  O   UNL     1      -9.825   3.984  66.377  1.00  0.00    -0.209 OA 
ENDROOT
BRANCH   2   3
HETATM    3  C   UNL     1      -8.706   4.283  67.114  1.00  0.00    -0.106 A  
HETATM    4  C   UNL     1      -8.229   5.586  67.287  1.00  0.00    -0.101 A  
HETATM    5  C   UNL     1      -7.058   5.841  68.014  1.00  0.00    -0.071 A  
HETATM    6  C   UNL     1      -6.414   4.772  68.649  1.00  0.00    -0.037 A  
HETATM    7  H   UNL     1      -8.053   1.233  68.027  1.00  0.00     0.000 HD 
HETATM    8  O   UNL     1      -8.505   1.949  67.596  1.00  0.00    -0.069 OA 
HETATM    9  C   UNL     1      -6.905   3.468  68.520  1.00  0.00    -0.046 A  
HETATM   10  C   UNL     1      -8.042   3.229  67.748  1.00  0.00    -0.079 A  
BRANCH   5  11
HETATM   11  C   UNL     1      -6.518   7.202  68.149  1.00  0.00    -0.045 C  
HETATM   12  C   UNL     1      -6.784   8.004  69.195  1.00  0.00    -0.048 C  
BRANCH  12  13
HETATM   13  C   UNL     1      -6.223   9.383  69.261  1.00  0.00    -0.041 C  
HETATM   14  O   UNL     1      -5.176   9.675  68.683  1.00  0.00    -0.034 OA 
BRANCH  13  15
HETATM   15  C   UNL     1      -6.992  10.414  70.040  1.00  0.00    -0.159 C  
BRANCH  15  16
HETATM   16  C   UNL     1      -6.646  11.823  69.649  1.00  0.00    -0.081 C  
HETATM   17  O   UNL     1      -5.791  12.460  70.265  1.00  0.00    -0.152 OA 
BRANCH  16  18
HETATM   18  C   UNL     1      -7.340  12.395  68.458  1.00  0.00    -0.105 C  
HETATM   19  C   UNL     1      -8.312  13.304  68.629  1.00  0.00     0.004 C  
BRANCH  19  20
HETATM   20  C   UNL     1      -9.043  13.988  67.549  1.00  0.00    -0.196 A  
HETATM   21  C   UNL     1     -10.011  13.338  66.763  1.00  0.00    -0.263 A  
HETATM   22  C   UNL     1     -10.612  13.996  65.684  1.00  0.00    -0.307 A  
HETATM   23  C   UNL     1      -8.689  15.310  67.237  1.00  0.00    -0.216 A  
HETATM   24  C   UNL     1     -10.237  15.312  65.403  1.00  0.00    -0.383 A  
HETATM   25  H   UNL     1     -10.538  16.873  64.153  1.00  0.00     0.000 HD 
HETATM   26  O   UNL     1     -10.793  15.978  64.344  1.00  0.00    -0.522 OA 
HETATM   27  C   UNL     1      -9.289  15.976  66.168  1.00  0.00    -0.377 A  
BRANCH  22  28
HETATM   28  O   UNL     1     -11.548  13.464  64.837  1.00  0.00    -0.313 OA 
HETATM   29  C   UNL     1     -11.078  12.557  63.848  1.00  0.00    -0.423 C  
ENDBRANCH  22  28
ENDBRANCH  19  20
ENDBRANCH  16  18
ENDBRANCH  15  16
ENDBRANCH  13  15
ENDBRANCH  12  13
ENDBRANCH   5  11
ENDBRANCH   2   3
TORSDOF 8
ENDMDL
MODEL      283
REMARK 921   NORMALIZED FREE ENERGY PREDICTED BY IDOCK:   -2.44 KCAL/MOL
REMARK 922        TOTAL FREE ENERGY PREDICTED BY IDOCK:   -5.13 KCAL/MOL
REMARK 923 INTER-LIGAND FREE ENERGY PREDICTED BY IDOCK:   -6.10 KCAL/MOL
REMARK 924 INTRA-LIGAND FREE ENERGY PREDICTED BY IDOCK:    0.97 KCAL/MOL
REMARK 927      BINDING AFFINITY PREDICTED BY RF-SCORE:    0.00 PKD
ROOT
HETATM    1  C   UNL     1     -10.976  15.724  71.325  1.00  0.00    -0.067 C  
HETATM    2  O   UNL     1     -12.027  15.165  70.541  1.00  0.00    -0.278 OA 
ENDROOT
BRANCH   2   3
HETATM    3  C   UNL     1     -12.220  13.816  70.706  1.00  0.00    -0.363 A  
HETATM    4  C   UNL     1     -11.662  12.853  69.859  1.00  0.00    -0.324 A  
HETATM    5  C   UNL     1     -11.919  11.488  70.039  1.00  0.00    -0.435 A  
HETATM    6  C   UNL     1     -12.677  11.087  71.146  1.00  0.00    -0.521 A  
HETATM    7  H   UNL     1     -14.044  14.040  73.386  1.00  0.00     0.000 HD 
HETATM    8  O   UNL     1     -13.526  14.326  72.642  1.00  0.00    -0.475 OA 
HETATM    9  C   UNL     1     -13.207  12.037  72.027  1.00  0.00    -0.481 A  
HETATM   10  C   UNL     1     -12.983  13.395  71.799  1.00  0.00    -0.342 A  
BRANCH   5  11
HETATM   11  C   UNL     1     -11.384  10.476  69.117  1.00  0.00    -0.319 C  
HETATM   12  C   UNL     1     -10.999  10.751  67.859  1.00  0.00    -0.344 C  
BRANCH  12  13
HETATM   13  C   UNL     1     -10.486   9.674  66.965  1.00  0.00    -0.232 C  
HETATM   14  O   UNL     1     -10.733   8.488  67.187  1.00  0.00    -0.280 OA 
BRANCH  13  15
HETATM   15  C   UNL     1      -9.675  10.086  65.768  1.00  0.00    -0.321 C  
BRANCH  15  16
HETATM   16  C   UNL     1      -8.246   9.626  65.841  1.00  0.00    -0.119 C  
HETATM   17  O   UNL     1      -7.340  10.414  66.111  1.00  0.00    -0.118 OA 
BRANCH  16  18
HETATM   18  C   UNL     1      -7.981   8.173  65.627  1.00  0.00    -0.108 C  
HETATM   19  C   UNL     1      -8.931   7.274  65.926  1.00  0.00    -0.103 C  
BRANCH  19  20
HETATM   20  C   UNL     1      -8.827   5.820  65.720  1.00  0.00    -0.151 A  
HETATM   21  C   UNL     1      -7.834   5.239  64.911  1.00  0.00    -0.095 A  
HETATM   22  C   UNL     1      -7.831   3.862  64.664  1.00  0.00    -0.085 A  
HETATM   23  C   UNL     1      -9.817   4.995  66.279  1.00  0.00    -0.217 A  
HETATM   24  C   UNL     1      -8.830   3.071  65.238  1.00  0.00    -0.133 A  
HETATM   25  H   UNL     1      -9.543   1.186  65.392  1.00  0.00     0.000 HD 
HETATM   26  O   UNL     1      -8.864   1.724  65.001  1.00  0.00    -0.107 OA 
HETATM   27  C   UNL     1      -9.816   3.620  66.045  1.00  0.00    -0.022 A  
BRANCH  22  28
HETATM   28  O   UNL     1      -6.932   3.188  63.881  1.00  0.00    -0.045 OA 
HETATM   29  C   UNL     1      -5.616   3.036  64.398  1.00  0.00    -0.010 C  
ENDBRANCH  22  28
ENDBRANCH  19  20
ENDBRANCH  16  18
ENDBRANCH  15  16
ENDBRANCH  13  15
ENDBRANCH  12  13
ENDBRANCH   5  11
ENDBRANCH   2   3
TORSDOF 8
ENDMDL
MODEL      284
REMARK 921   NORMALIZED FREE ENERGY PREDICTED BY IDOCK:   -2.41 KCAL/MOL
REMARK 922        TOTAL FREE ENERGY PREDICTED BY IDOCK:   -5.08 KCAL/MOL
REMARK 923 INTER-LIGAND FREE ENERGY PREDICTED BY IDOCK:   -5.32 KCAL/MOL
REMARK 924 INTRA-LIGAND FREE ENERGY PREDICTED BY IDOCK:    0.24 KCAL/MOL
REMARK 927      BINDING AFFINITY PREDICTED BY RF-SCORE:    0.00 PKD
ROOT
HETATM    1  C   UNL     1      -9.993  20.370  65.459  1.00  0.00     0.202 C  
HETATM    2  O   UNL     1     -10.120  19.699  66.710  1.00  0.00    -0.359 OA 
ENDROOT
BRANCH   2   3
HETATM    3  C   UNL     1      -9.530  18.461  66.767  1.00  0.00    -0.297 A  
HETATM    4  C   UNL     1     -10.168  17.332  67.291  1.00  0.00    -0.320 A  
HETATM    5  C   UNL     1      -9.513  16.096  67.369  1.00  0.00    -0.227 A  
HETATM    6  C   UNL     1      -8.228  15.981  66.824  1.00  0.00    -0.307 A  
HETATM    7  H   UNL     1      -6.737  19.329  65.351  1.00  0.00     0.000 HD 
HETATM    8  O   UNL     1      -7.612  19.421  65.711  1.00  0.00    -0.379 OA 
HETATM    9  C   UNL     1      -7.593  17.092  66.256  1.00  0.00    -0.340 A  
HETATM   10  C   UNL     1      -8.243  18.326  66.238  1.00  0.00    -0.212 A  
BRANCH   5  11
HETATM   11  C   UNL     1     -10.156  14.921  67.974  1.00  0.00    -0.221 C  
HETATM   12  C   UNL     1     -11.130  15.003  68.896  1.00  0.00    -0.274 C  
BRANCH  12  13
HETATM   13  C   UNL     1     -11.726  13.772  69.489  1.00  0.00    -0.323 C  
HETATM   14  O   UNL     1     -12.806  13.806  70.080  1.00  0.00    -0.132 OA 
BRANCH  13  15
HETATM   15  C   UNL     1     -10.975  12.481  69.321  1.00  0.00    -0.138 C  
BRANCH  15  16
HETATM   16  C   UNL     1     -11.254  11.806  68.008  1.00  0.00    -0.263 C  
HETATM   17  O   UNL     1     -12.274  12.062  67.367  1.00  0.00    -0.491 OA 
BRANCH  16  18
HETATM   18  C   UNL     1     -10.223  10.859  67.490  1.00  0.00    -0.224 C  
HETATM   19  C   UNL     1      -9.680   9.952  68.317  1.00  0.00    -0.159 C  
BRANCH  19  20
HETATM   20  C   UNL     1      -8.695   8.927  67.934  1.00  0.00    -0.129 A  
HETATM   21  C   UNL     1      -8.931   7.999  66.904  1.00  0.00    -0.160 A  
HETATM   22  C   UNL     1      -8.009   6.981  66.637  1.00  0.00    -0.108 A  
HETATM   23  C   UNL     1      -7.518   8.817  68.692  1.00  0.00    -0.092 A  
HETATM   24  C   UNL     1      -6.848   6.902  67.410  1.00  0.00    -0.076 A  
HETATM   25  H   UNL     1      -5.145   5.854  67.712  1.00  0.00     0.000 HD 
HETATM   26  O   UNL     1      -5.935   5.907  67.186  1.00  0.00    -0.017 OA 
HETATM   27  C   UNL     1      -6.590   7.810  68.428  1.00  0.00    -0.054 A  
BRANCH  22  28
HETATM   28  O   UNL     1      -8.137   6.011  65.678  1.00  0.00    -0.113 OA 
HETATM   29  C   UNL     1      -8.007   6.425  64.324  1.00  0.00    -0.102 C  
ENDBRANCH  22  28
ENDBRANCH  19  20
ENDBRANCH  16  18
ENDBRANCH  15  16
ENDBRANCH  13  15
ENDBRANCH  12  13
ENDBRANCH   5  11
ENDBRANCH   2   3
TORSDOF 8
ENDMDL
MODEL      285
REMARK 921   NORMALIZED FREE ENERGY PREDICTED BY IDOCK:   -2.36 KCAL/MOL
REMARK 922        TOTAL FREE ENERGY PREDICTED BY IDOCK:   -5.01 KCAL/MOL
REMARK 923 INTER-LIGAND FREE ENERGY PREDICTED BY IDOCK:   -4.24 KCAL/MOL
REMARK 924 INTRA-LIGAND FREE ENERGY PREDICTED BY IDOCK:   -0.77 KCAL/MOL
REMARK 927      BINDING AFFINITY PREDICTED BY RF-SCORE:    0.00 PKD
ROOT
HETATM    1  C   UNL     1      -8.746  10.244  68.909  1.00  0.00    -0.152 C  
HETATM    2  O   UNL     1      -7.462  10.555  69.444  1.00  0.00    -0.114 OA 
ENDROOT
BRANCH   2   3
HETATM    3  C   UNL     1      -7.055   9.752  70.480  1.00  0.00    -0.122 A  
HETATM    4  C   UNL     1      -7.737   8.595  70.866  1.00  0.00    -0.104 A  
HETATM    5  C   UNL     1      -7.309   7.827  71.957  1.00  0.00    -0.079 A  
HETATM    6  C   UNL     1      -6.122   8.187  72.608  1.00  0.00    -0.062 A  
HETATM    7  H   UNL     1      -4.393  11.460  71.230  1.00  0.00     0.000 HD 
HETATM    8  O   UNL     1      -5.193  11.224  70.775  1.00  0.00    -0.097 OA 
HETATM    9  C   UNL     1      -5.405   9.319  72.205  1.00  0.00    -0.076 A  
HETATM   10  C   UNL     1      -5.878  10.099  71.150  1.00  0.00    -0.025 A  
BRANCH   5  11
HETATM   11  C   UNL     1      -8.057   6.643  72.406  1.00  0.00    -0.100 C  
HETATM   12  C   UNL     1      -9.233   6.712  73.052  1.00  0.00    -0.144 C  
BRANCH  12  13
HETATM   13  C   UNL     1      -9.931   5.473  73.501  1.00  0.00    -0.178 C  
HETATM   14  O   UNL     1      -9.572   4.869  74.513  1.00  0.00    -0.124 OA 
BRANCH  13  15
HETATM   15  C   UNL     1     -11.102   4.997  72.688  1.00  0.00    -0.265 C  
BRANCH  15  16
HETATM   16  C   UNL     1     -11.489   5.956  71.598  1.00  0.00    -0.172 C  
HETATM   17  O   UNL     1     -12.513   6.633  71.682  1.00  0.00    -0.352 OA 
BRANCH  16  18
HETATM   18  C   UNL     1     -10.556   6.091  70.441  1.00  0.00    -0.332 C  
HETATM   19  C   UNL     1     -11.036   6.450  69.240  1.00  0.00    -0.418 C  
BRANCH  19  20
HETATM   20  C   UNL     1     -10.229   6.671  68.028  1.00  0.00    -0.193 A  
HETATM   21  C   UNL     1      -9.094   5.897  67.723  1.00  0.00    -0.109 A  
HETATM   22  C   UNL     1      -8.301   6.203  66.613  1.00  0.00    -0.111 A  
HETATM   23  C   UNL     1     -10.554   7.757  67.199  1.00  0.00    -0.401 A  
HETATM   24  C   UNL     1      -8.655   7.289  65.808  1.00  0.00    -0.131 A  
HETATM   25  H   UNL     1      -8.130   8.364  64.178  1.00  0.00     0.000 HD 
HETATM   26  O   UNL     1      -7.889   7.626  64.725  1.00  0.00    -0.115 OA 
HETATM   27  C   UNL     1      -9.773   8.064  66.085  1.00  0.00    -0.116 A  
BRANCH  22  28
HETATM   28  O   UNL     1      -7.166   5.539  66.227  1.00  0.00    -0.074 OA 
HETATM   29  C   UNL     1      -7.280   4.136  66.028  1.00  0.00    -0.068 C  
ENDBRANCH  22  28
ENDBRANCH  19  20
ENDBRANCH  16  18
ENDBRANCH  15  16
ENDBRANCH  13  15
ENDBRANCH  12  13
ENDBRANCH   5  11
ENDBRANCH   2   3
TORSDOF 8
ENDMDL
MODEL      286
REMARK 921   NORMALIZED FREE ENERGY PREDICTED BY IDOCK:   -2.32 KCAL/MOL
REMARK 922        TOTAL FREE ENERGY PREDICTED BY IDOCK:   -4.96 KCAL/MOL
REMARK 923 INTER-LIGAND FREE ENERGY PREDICTED BY IDOCK:   -5.50 KCAL/MOL
REMARK 924 INTRA-LIGAND FREE ENERGY PREDICTED BY IDOCK:    0.55 KCAL/MOL
REMARK 927      BINDING AFFINITY PREDICTED BY RF-SCORE:    0.00 PKD
ROOT
HETATM    1  C   UNL     1     -10.244  17.444  66.672  1.00  0.00    -0.324 C  
HETATM    2  O   UNL     1     -10.065  16.533  65.591  1.00  0.00    -0.483 OA 
ENDROOT
BRANCH   2   3
HETATM    3  C   UNL     1     -10.544  15.266  65.815  1.00  0.00    -0.347 A  
HETATM    4  C   UNL     1     -10.146  14.153  65.067  1.00  0.00    -0.326 A  
HETATM    5  C   UNL     1     -10.692  12.884  65.303  1.00  0.00    -0.318 A  
HETATM    6  C   UNL     1     -11.584  12.724  66.370  1.00  0.00    -0.435 A  
HETATM    7  H   UNL     1     -12.446  16.042  68.333  1.00  0.00     0.000 HD 
HETATM    8  O   UNL     1     -11.834  16.164  67.616  1.00  0.00     0.149 OA 
HETATM    9  C   UNL     1     -11.959  13.821  67.154  1.00  0.00    -0.442 A  
HETATM   10  C   UNL     1     -11.444  15.085  66.869  1.00  0.00    -0.263 A  
BRANCH   5  11
HETATM   11  C   UNL     1     -10.322  11.723  64.481  1.00  0.00    -0.340 C  
HETATM   12  C   UNL     1      -9.347  10.861  64.814  1.00  0.00    -0.259 C  
BRANCH  12  13
HETATM   13  C   UNL     1      -9.005   9.714  63.924  1.00  0.00    -0.218 C  
HETATM   14  O   UNL     1      -9.374   9.685  62.749  1.00  0.00    -0.247 OA 
BRANCH  13  15
HETATM   15  C   UNL     1      -8.174   8.603  64.503  1.00  0.00    -0.166 C  
BRANCH  15  16
HETATM   16  C   UNL     1      -6.801   9.053  64.918  1.00  0.00    -0.076 C  
HETATM   17  O   UNL     1      -5.866   9.057  64.117  1.00  0.00    -0.069 OA 
BRANCH  16  18
HETATM   18  C   UNL     1      -6.633   9.542  66.318  1.00  0.00    -0.071 C  
HETATM   19  C   UNL     1      -6.600  10.862  66.560  1.00  0.00    -0.127 C  
BRANCH  19  20
HETATM   20  C   UNL     1      -6.491  11.485  67.890  1.00  0.00    -0.056 A  
HETATM   21  C   UNL     1      -6.691  12.861  68.099  1.00  0.00    -0.096 A  
HETATM   22  C   UNL     1      -6.482  13.428  69.361  1.00  0.00    -0.100 A  
HETATM   23  C   UNL     1      -6.080  10.685  68.969  1.00  0.00    -0.041 A  
HETATM   24  C   UNL     1      -6.076  12.602  70.413  1.00  0.00    -0.016 A  
HETATM   25  H   UNL     1      -5.570  12.568  72.370  1.00  0.00     0.000 HD 
HETATM   26  O   UNL     1      -5.846  13.129  71.655  1.00  0.00    -0.344 OA 
HETATM   27  C   UNL     1      -5.878  11.241  70.232  1.00  0.00    -0.146 A  
BRANCH  22  28
HETATM   28  O   UNL     1      -6.624  14.752  69.682  1.00  0.00    -0.136 OA 
HETATM   29  C   UNL     1      -7.729  15.437  69.106  1.00  0.00    -0.207 C  
ENDBRANCH  22  28
ENDBRANCH  19  20
ENDBRANCH  16  18
ENDBRANCH  15  16
ENDBRANCH  13  15
ENDBRANCH  12  13
ENDBRANCH   5  11
ENDBRANCH   2   3
TORSDOF 8
ENDMDL
MODEL      287
REMARK 921   NORMALIZED FREE ENERGY PREDICTED BY IDOCK:   -2.29 KCAL/MOL
REMARK 922        TOTAL FREE ENERGY PREDICTED BY IDOCK:   -4.90 KCAL/MOL
REMARK 923 INTER-LIGAND FREE ENERGY PREDICTED BY IDOCK:   -5.05 KCAL/MOL
REMARK 924 INTRA-LIGAND FREE ENERGY PREDICTED BY IDOCK:    0.15 KCAL/MOL
REMARK 927      BINDING AFFINITY PREDICTED BY RF-SCORE:    0.00 PKD
ROOT
HETATM    1  C   UNL     1      -9.082  17.320  68.124  1.00  0.00    -0.257 C  
HETATM    2  O   UNL     1     -10.181  16.889  67.326  1.00  0.00    -0.284 OA 
ENDROOT
BRANCH   2   3
HETATM    3  C   UNL     1     -10.539  15.574  67.493  1.00  0.00    -0.297 A  
HETATM    4  C   UNL     1      -9.924  14.521  66.810  1.00  0.00    -0.267 A  
HETATM    5  C   UNL     1     -10.349  13.197  66.979  1.00  0.00    -0.249 A  
HETATM    6  C   UNL     1     -11.351  12.928  67.920  1.00  0.00    -0.336 A  
HETATM    7  H   UNL     1     -12.831  16.109  69.733  1.00  0.00     0.000 HD 
HETATM    8  O   UNL     1     -12.148  16.306  69.103  1.00  0.00    -0.143 OA 
HETATM    9  C   UNL     1     -11.947  13.968  68.642  1.00  0.00    -0.389 A  
HETATM   10  C   UNL     1     -11.545  15.285  68.420  1.00  0.00    -0.349 A  
BRANCH   5  11
HETATM   11  C   UNL     1      -9.746  12.092  66.220  1.00  0.00    -0.251 C  
HETATM   12  C   UNL     1     -10.210  11.671  65.031  1.00  0.00    -0.321 C  
BRANCH  12  13
HETATM   13  C   UNL     1      -9.567  10.528  64.321  1.00  0.00    -0.307 C  
HETATM   14  O   UNL     1      -9.264  10.606  63.130  1.00  0.00    -0.230 OA 
BRANCH  13  15
HETATM   15  C   UNL     1      -9.280   9.285  65.115  1.00  0.00    -0.264 C  
BRANCH  15  16
HETATM   16  C   UNL     1      -8.335   8.348  64.417  1.00  0.00    -0.097 C  
HETATM   17  O   UNL     1      -7.793   8.666  63.358  1.00  0.00    -0.135 OA 
BRANCH  16  18
HETATM   18  C   UNL     1      -8.040   7.046  65.086  1.00  0.00    -0.124 C  
HETATM   19  C   UNL     1      -7.999   6.983  66.425  1.00  0.00    -0.109 C  
BRANCH  19  20
HETATM   20  C   UNL     1      -7.771   5.762  67.217  1.00  0.00    -0.101 A  
HETATM   21  C   UNL     1      -7.860   5.743  68.621  1.00  0.00    -0.097 A  
HETATM   22  C   UNL     1      -7.541   4.586  69.339  1.00  0.00    -0.055 A  
HETATM   23  C   UNL     1      -7.358   4.600  66.546  1.00  0.00    -0.081 A  
HETATM   24  C   UNL     1      -7.136   3.447  68.639  1.00  0.00    -0.050 A  
HETATM   25  H   UNL     1      -6.525   1.530  68.838  1.00  0.00     0.000 HD 
HETATM   26  O   UNL     1      -6.800   2.305  69.314  1.00  0.00    -0.033 OA 
HETATM   27  C   UNL     1      -7.047   3.439  67.254  1.00  0.00    -0.058 A  
BRANCH  22  28
HETATM   28  O   UNL     1      -7.569   4.453  70.702  1.00  0.00    -0.051 OA 
HETATM   29  C   UNL     1      -7.807   5.633  71.459  1.00  0.00    -0.112 C  
ENDBRANCH  22  28
ENDBRANCH  19  20
ENDBRANCH  16  18
ENDBRANCH  15  16
ENDBRANCH  13  15
ENDBRANCH  12  13
ENDBRANCH   5  11
ENDBRANCH   2   3
TORSDOF 8
ENDMDL
MODEL      288
REMARK 921   NORMALIZED FREE ENERGY PREDICTED BY IDOCK:   -2.12 KCAL/MOL
REMARK 922        TOTAL FREE ENERGY PREDICTED BY IDOCK:   -4.66 KCAL/MOL
REMARK 923 INTER-LIGAND FREE ENERGY PREDICTED BY IDOCK:   -3.31 KCAL/MOL
REMARK 924 INTRA-LIGAND FREE ENERGY PREDICTED BY IDOCK:   -1.35 KCAL/MOL
REMARK 927      BINDING AFFINITY PREDICTED BY RF-SCORE:    0.00 PKD
ROOT
HETATM    1  C   UNL     1      -7.506  10.571  69.441  1.00  0.00    -0.141 C  
HETATM    2  O   UNL     1      -6.632  10.694  70.560  1.00  0.00    -0.293 OA 
ENDROOT
BRANCH   2   3
HETATM    3  C   UNL     1      -6.534   9.573  71.346  1.00  0.00     0.053 A  
HETATM    4  C   UNL     1      -7.134   8.354  71.019  1.00  0.00    -0.061 A  
HETATM    5  C   UNL     1      -7.043   7.246  71.872  1.00  0.00    -0.063 A  
HETATM    6  C   UNL     1      -6.257   7.349  73.027  1.00  0.00    -0.059 A  
HETATM    7  H   UNL     1      -4.634  10.901  73.624  1.00  0.00     0.000 HD 
HETATM    8  O   UNL     1      -5.159  10.843  72.834  1.00  0.00    -0.325 OA 
HETATM    9  C   UNL     1      -5.614   8.551  73.344  1.00  0.00    -0.085 A  
HETATM   10  C   UNL     1      -5.762   9.658  72.508  1.00  0.00     0.196 A  
BRANCH   5  11
HETATM   11  C   UNL     1      -7.723   5.979  71.564  1.00  0.00    -0.101 C  
HETATM   12  C   UNL     1      -8.061   5.074  72.498  1.00  0.00    -0.109 C  
BRANCH  12  13
HETATM   13  C   UNL     1      -8.729   3.797  72.117  1.00  0.00    -0.096 C  
HETATM   14  O   UNL     1      -8.214   3.023  71.309  1.00  0.00    -0.061 OA 
BRANCH  13  15
HETATM   15  C   UNL     1     -10.044   3.474  72.770  1.00  0.00    -0.229 C  
BRANCH  15  16
HETATM   16  C   UNL     1     -11.043   4.590  72.661  1.00  0.00    -0.008 C  
HETATM   17  O   UNL     1     -11.892   4.769  73.535  1.00  0.00    -0.124 OA 
BRANCH  16  18
HETATM   18  C   UNL     1     -10.930   5.501  71.484  1.00  0.00    -0.220 C  
HETATM   19  C   UNL     1     -11.159   6.814  71.636  1.00  0.00    -0.282 C  
BRANCH  19  20
HETATM   20  C   UNL     1     -11.034   7.832  70.580  1.00  0.00    -0.251 A  
HETATM   21  C   UNL     1     -11.651   9.093  70.667  1.00  0.00    -0.282 A  
HETATM   22  C   UNL     1     -11.588   9.993  69.599  1.00  0.00    -0.096 A  
HETATM   23  C   UNL     1     -10.351   7.490  69.402  1.00  0.00    -0.213 A  
HETATM   24  C   UNL     1     -10.898   9.621  68.442  1.00  0.00    -0.167 A  
HETATM   25  H   UNL     1     -10.363  10.219  66.586  1.00  0.00     0.000 HD 
HETATM   26  O   UNL     1     -10.833  10.472  67.372  1.00  0.00    -0.266 OA 
HETATM   27  C   UNL     1     -10.276   8.385  68.334  1.00  0.00    -0.239 A  
BRANCH  22  28
HETATM   28  O   UNL     1     -12.163  11.236  69.558  1.00  0.00    -0.308 OA 
HETATM   29  C   UNL     1     -13.190  11.500  70.506  1.00  0.00     0.519 C  
ENDBRANCH  22  28
ENDBRANCH  19  20
ENDBRANCH  16  18
ENDBRANCH  15  16
ENDBRANCH  13  15
ENDBRANCH  12  13
ENDBRANCH   5  11
ENDBRANCH   2   3
TORSDOF 8
ENDMDL
MODEL      289
REMARK 921   NORMALIZED FREE ENERGY PREDICTED BY IDOCK:   -2.12 KCAL/MOL
REMARK 922        TOTAL FREE ENERGY PREDICTED BY IDOCK:   -4.66 KCAL/MOL
REMARK 923 INTER-LIGAND FREE ENERGY PREDICTED BY IDOCK:   -4.23 KCAL/MOL
REMARK 924 INTRA-LIGAND FREE ENERGY PREDICTED BY IDOCK:   -0.43 KCAL/MOL
REMARK 927      BINDING AFFINITY PREDICTED BY RF-SCORE:    0.00 PKD
ROOT
HETATM    1  C   UNL     1     -12.997  10.662  70.400  1.00  0.00    -0.145 C  
HETATM    2  O   UNL     1     -11.638  11.081  70.478  1.00  0.00    -0.314 OA 
ENDROOT
BRANCH   2   3
HETATM    3  C   UNL     1     -11.182  11.781  69.389  1.00  0.00    -0.234 A  
HETATM    4  C   UNL     1     -10.348  11.224  68.415  1.00  0.00    -0.207 A  
HETATM    5  C   UNL     1      -9.872  11.988  67.340  1.00  0.00    -0.191 A  
HETATM    6  C   UNL     1     -10.321  13.307  67.203  1.00  0.00    -0.248 A  
HETATM    7  H   UNL     1     -12.726  14.557  70.077  1.00  0.00     0.000 HD 
HETATM    8  O   UNL     1     -12.435  13.658  70.179  1.00  0.00    -0.308 OA 
HETATM    9  C   UNL     1     -11.190  13.865  68.147  1.00  0.00    -0.293 A  
HETATM   10  C   UNL     1     -11.609  13.104  69.238  1.00  0.00    -0.314 A  
BRANCH   5  11
HETATM   11  C   UNL     1      -8.947  11.425  66.346  1.00  0.00    -0.196 C  
HETATM   12  C   UNL     1      -7.816  10.776  66.671  1.00  0.00    -0.140 C  
BRANCH  12  13
HETATM   13  C   UNL     1      -6.908  10.247  65.614  1.00  0.00    -0.133 C  
HETATM   14  O   UNL     1      -5.856   9.676  65.902  1.00  0.00    -0.052 OA 
BRANCH  13  15
HETATM   15  C   UNL     1      -7.331  10.417  64.181  1.00  0.00     0.013 C  
BRANCH  15  16
HETATM   16  C   UNL     1      -8.421   9.466  63.775  1.00  0.00    -0.195 C  
HETATM   17  O   UNL     1      -9.200   9.745  62.863  1.00  0.00    -0.274 OA 
BRANCH  16  18
HETATM   18  C   UNL     1      -8.486   8.153  64.482  1.00  0.00    -0.013 C  
HETATM   19  C   UNL     1      -7.817   7.099  63.988  1.00  0.00    -0.113 C  
BRANCH  19  20
HETATM   20  C   UNL     1      -7.749   5.764  64.605  1.00  0.00    -0.098 A  
HETATM   21  C   UNL     1      -8.704   5.310  65.532  1.00  0.00    -0.149 A  
HETATM   22  C   UNL     1      -8.548   4.073  66.168  1.00  0.00    -0.110 A  
HETATM   23  C   UNL     1      -6.635   4.956  64.325  1.00  0.00    -0.042 A  
HETATM   24  C   UNL     1      -7.429   3.294  65.863  1.00  0.00    -0.073 A  
HETATM   25  H   UNL     1      -6.478   1.558  66.274  1.00  0.00     0.000 HD 
HETATM   26  O   UNL     1      -7.238   2.087  66.481  1.00  0.00    -0.054 OA 
HETATM   27  C   UNL     1      -6.476   3.718  64.948  1.00  0.00    -0.031 A  
BRANCH  22  28
HETATM   28  O   UNL     1      -9.396   3.535  67.099  1.00  0.00    -0.181 OA 
HETATM   29  C   UNL     1      -9.563   4.259  68.311  1.00  0.00    -0.135 C  
ENDBRANCH  22  28
ENDBRANCH  19  20
ENDBRANCH  16  18
ENDBRANCH  15  16
ENDBRANCH  13  15
ENDBRANCH  12  13
ENDBRANCH   5  11
ENDBRANCH   2   3
TORSDOF 8
ENDMDL
MODEL      290
REMARK 921   NORMALIZED FREE ENERGY PREDICTED BY IDOCK:   -2.07 KCAL/MOL
REMARK 922        TOTAL FREE ENERGY PREDICTED BY IDOCK:   -4.59 KCAL/MOL
REMARK 923 INTER-LIGAND FREE ENERGY PREDICTED BY IDOCK:   -4.71 KCAL/MOL
REMARK 924 INTRA-LIGAND FREE ENERGY PREDICTED BY IDOCK:    0.12 KCAL/MOL
REMARK 927      BINDING AFFINITY PREDICTED BY RF-SCORE:    0.00 PKD
ROOT
HETATM    1  C   UNL     1      -8.026   1.928  68.070  1.00  0.00    -0.058 C  
HETATM    2  O   UNL     1      -8.073   2.492  66.762  1.00  0.00    -0.078 OA 
ENDROOT
BRANCH   2   3
HETATM    3  C   UNL     1      -9.030   3.459  66.581  1.00  0.00    -0.152 A  
HETATM    4  C   UNL     1      -9.344   4.416  67.550  1.00  0.00    -0.183 A  
HETATM    5  C   UNL     1     -10.359   5.360  67.339  1.00  0.00    -0.258 A  
HETATM    6  C   UNL     1     -11.000   5.391  66.095  1.00  0.00     0.002 A  
HETATM    7  H   UNL     1      -9.833   2.604  63.550  1.00  0.00     0.000 HD 
HETATM    8  O   UNL     1      -9.384   2.576  64.387  1.00  0.00    -0.128 OA 
HETATM    9  C   UNL     1     -10.666   4.466  65.099  1.00  0.00    -0.144 A  
HETATM   10  C   UNL     1      -9.690   3.501  65.349  1.00  0.00    -0.093 A  
BRANCH   5  11
HETATM   11  C   UNL     1     -10.734   6.331  68.378  1.00  0.00    -0.356 C  
HETATM   12  C   UNL     1      -9.854   7.148  68.981  1.00  0.00    -0.156 C  
BRANCH  12  13
HETATM   13  C   UNL     1     -10.296   8.095  70.044  1.00  0.00    -0.215 C  
HETATM   14  O   UNL     1     -10.558   7.701  71.181  1.00  0.00    -0.220 OA 
BRANCH  13  15
HETATM   15  C   UNL     1     -10.389   9.552  69.687  1.00  0.00    -0.236 C  
BRANCH  15  16
HETATM   16  C   UNL     1      -9.884   9.851  68.304  1.00  0.00    -0.147 C  
HETATM   17  O   UNL     1     -10.309   9.236  67.326  1.00  0.00    -0.232 OA 
BRANCH  16  18
HETATM   18  C   UNL     1      -8.890  10.956  68.160  1.00  0.00    -0.137 C  
HETATM   19  C   UNL     1      -9.318  12.222  68.041  1.00  0.00    -0.195 C  
BRANCH  19  20
HETATM   20  C   UNL     1      -8.455  13.411  67.943  1.00  0.00    -0.173 A  
HETATM   21  C   UNL     1      -8.811  14.545  67.192  1.00  0.00    -0.245 A  
HETATM   22  C   UNL     1      -7.919  15.613  67.047  1.00  0.00    -0.233 A  
HETATM   23  C   UNL     1      -7.188  13.366  68.548  1.00  0.00    -0.110 A  
HETATM   24  C   UNL     1      -6.668  15.536  67.664  1.00  0.00    -0.179 A  
HETATM   25  H   UNL     1      -4.915  16.504  67.947  1.00  0.00     0.000 HD 
HETATM   26  O   UNL     1      -5.766  16.556  67.527  1.00  0.00    -0.126 OA 
HETATM   27  C   UNL     1      -6.296  14.430  68.415  1.00  0.00    -0.101 A  
BRANCH  22  28
HETATM   28  O   UNL     1      -8.144  16.757  66.327  1.00  0.00    -0.299 OA 
HETATM   29  C   UNL     1      -9.088  17.676  66.861  1.00  0.00    -0.253 C  
ENDBRANCH  22  28
ENDBRANCH  19  20
ENDBRANCH  16  18
ENDBRANCH  15  16
ENDBRANCH  13  15
ENDBRANCH  12  13
ENDBRANCH   5  11
ENDBRANCH   2   3
TORSDOF 8
ENDMDL
MODEL      291
REMARK 921   NORMALIZED FREE ENERGY PREDICTED BY IDOCK:   -2.06 KCAL/MOL
REMARK 922        TOTAL FREE ENERGY PREDICTED BY IDOCK:   -4.56 KCAL/MOL
REMARK 923 INTER-LIGAND FREE ENERGY PREDICTED BY IDOCK:   -3.55 KCAL/MOL
REMARK 924 INTRA-LIGAND FREE ENERGY PREDICTED BY IDOCK:   -1.01 KCAL/MOL
REMARK 927      BINDING AFFINITY PREDICTED BY RF-SCORE:    0.00 PKD
ROOT
HETATM    1  C   UNL     1      -8.289   9.569  69.914  1.00  0.00    -0.170 C  
HETATM    2  O   UNL     1      -7.366  10.020  70.901  1.00  0.00    -0.302 OA 
ENDROOT
BRANCH   2   3
HETATM    3  C   UNL     1      -6.809   9.030  71.671  1.00  0.00    -0.007 A  
HETATM    4  C   UNL     1      -7.204   7.690  71.599  1.00  0.00    -0.064 A  
HETATM    5  C   UNL     1      -6.638   6.718  72.434  1.00  0.00    -0.058 A  
HETATM    6  C   UNL     1      -5.595   7.092  73.290  1.00  0.00    -0.045 A  
HETATM    7  H   UNL     1      -4.664  10.930  73.203  1.00  0.00     0.000 HD 
HETATM    8  O   UNL     1      -5.369  10.689  72.613  1.00  0.00    -0.304 OA 
HETATM    9  C   UNL     1      -5.159   8.421  73.342  1.00  0.00    -0.045 A  
HETATM   10  C   UNL     1      -5.773   9.383  72.540  1.00  0.00     0.059 A  
BRANCH   5  11
HETATM   11  C   UNL     1      -7.092   5.320  72.405  1.00  0.00    -0.086 C  
HETATM   12  C   UNL     1      -7.850   4.767  73.367  1.00  0.00    -0.096 C  
BRANCH  12  13
HETATM   13  C   UNL     1      -8.258   3.335  73.290  1.00  0.00    -0.074 C  
HETATM   14  O   UNL     1      -7.431   2.429  73.394  1.00  0.00    -0.039 OA 
BRANCH  13  15
HETATM   15  C   UNL     1      -9.719   3.034  73.102  1.00  0.00    -0.155 C  
BRANCH  15  16
HETATM   16  C   UNL     1     -10.586   4.259  73.183  1.00  0.00    -0.195 C  
HETATM   17  O   UNL     1     -11.155   4.564  74.231  1.00  0.00    -0.277 OA 
BRANCH  16  18
HETATM   18  C   UNL     1     -10.683   5.113  71.963  1.00  0.00    -0.236 C  
HETATM   19  C   UNL     1      -9.957   4.804  70.877  1.00  0.00    -0.283 C  
BRANCH  19  20
HETATM   20  C   UNL     1      -9.991   5.524  69.593  1.00  0.00    -0.282 A  
HETATM   21  C   UNL     1      -8.829   5.807  68.854  1.00  0.00    -0.110 A  
HETATM   22  C   UNL     1      -8.896   6.577  67.688  1.00  0.00    -0.112 A  
HETATM   23  C   UNL     1     -11.223   6.027  69.143  1.00  0.00    -0.337 A  
HETATM   24  C   UNL     1     -10.138   7.059  67.268  1.00  0.00    -0.204 A  
HETATM   25  H   UNL     1     -11.079   8.158  65.856  1.00  0.00     0.000 HD 
HETATM   26  O   UNL     1     -10.234   7.831  66.141  1.00  0.00     0.045 OA 
HETATM   27  C   UNL     1     -11.299   6.789  67.978  1.00  0.00    -0.013 A  
BRANCH  22  28
HETATM   28  O   UNL     1      -7.835   6.934  66.898  1.00  0.00    -0.104 OA 
HETATM   29  C   UNL     1      -6.630   7.289  67.563  1.00  0.00    -0.057 C  
ENDBRANCH  22  28
ENDBRANCH  19  20
ENDBRANCH  16  18
ENDBRANCH  15  16
ENDBRANCH  13  15
ENDBRANCH  12  13
ENDBRANCH   5  11
ENDBRANCH   2   3
TORSDOF 8
ENDMDL
MODEL      292
REMARK 921   NORMALIZED FREE ENERGY PREDICTED BY IDOCK:   -1.99 KCAL/MOL
REMARK 922        TOTAL FREE ENERGY PREDICTED BY IDOCK:   -4.46 KCAL/MOL
REMARK 923 INTER-LIGAND FREE ENERGY PREDICTED BY IDOCK:   -4.11 KCAL/MOL
REMARK 924 INTRA-LIGAND FREE ENERGY PREDICTED BY IDOCK:   -0.35 KCAL/MOL
REMARK 927      BINDING AFFINITY PREDICTED BY RF-SCORE:    0.00 PKD
ROOT
HETATM    1  C   UNL     1     -11.687  16.542  72.367  1.00  0.00    -0.268 C  
HETATM    2  O   UNL     1     -12.611  15.951  71.457  1.00  0.00    -0.444 OA 
ENDROOT
BRANCH   2   3
HETATM    3  C   UNL     1     -12.753  14.591  71.575  1.00  0.00    -0.339 A  
HETATM    4  C   UNL     1     -12.005  13.676  70.828  1.00  0.00    -0.286 A  
HETATM    5  C   UNL     1     -12.212  12.295  70.950  1.00  0.00    -0.296 A  
HETATM    6  C   UNL     1     -13.125  11.834  71.907  1.00  0.00    -0.482 A  
HETATM    7  H   UNL     1     -15.019  14.668  73.904  1.00  0.00     0.000 HD 
HETATM    8  O   UNL     1     -14.398  14.995  73.263  1.00  0.00     0.430 OA 
HETATM    9  C   UNL     1     -13.850  12.738  72.692  1.00  0.00    -0.017 A  
HETATM   10  C   UNL     1     -13.667  14.110  72.518  1.00  0.00    -0.522 A  
BRANCH   5  11
HETATM   11  C   UNL     1     -11.472  11.330  70.125  1.00  0.00    -0.336 C  
HETATM   12  C   UNL     1     -10.777  11.675  69.027  1.00  0.00    -0.217 C  
BRANCH  12  13
HETATM   13  C   UNL     1     -10.066  10.643  68.219  1.00  0.00    -0.157 C  
HETATM   14  O   UNL     1     -10.421   9.465  68.232  1.00  0.00    -0.204 OA 
BRANCH  13  15
HETATM   15  C   UNL     1      -8.912  11.096  67.368  1.00  0.00    -0.139 C  
BRANCH  15  16
HETATM   16  C   UNL     1      -7.588  10.570  67.847  1.00  0.00    -0.092 C  
HETATM   17  O   UNL     1      -6.694  11.336  68.206  1.00  0.00    -0.057 OA 
BRANCH  16  18
HETATM   18  C   UNL     1      -7.424   9.088  67.919  1.00  0.00    -0.085 C  
HETATM   19  C   UNL     1      -7.490   8.358  66.796  1.00  0.00    -0.083 C  
BRANCH  19  20
HETATM   20  C   UNL     1      -7.296   6.901  66.710  1.00  0.00    -0.078 A  
HETATM   21  C   UNL     1      -8.370   5.992  66.725  1.00  0.00    -0.106 A  
HETATM   22  C   UNL     1      -8.137   4.613  66.741  1.00  0.00    -0.103 A  
HETATM   23  C   UNL     1      -5.984   6.401  66.711  1.00  0.00    -0.025 A  
HETATM   24  C   UNL     1      -6.819   4.152  66.738  1.00  0.00    -0.055 A  
HETATM   25  H   UNL     1      -5.661   2.494  66.769  1.00  0.00     0.000 HD 
HETATM   26  O   UNL     1      -6.557   2.808  66.771  1.00  0.00    -0.035 OA 
HETATM   27  C   UNL     1      -5.743   5.028  66.718  1.00  0.00    -0.018 A  
BRANCH  22  28
HETATM   28  O   UNL     1      -9.097   3.636  66.775  1.00  0.00    -0.140 OA 
HETATM   29  C   UNL     1      -9.801   3.384  65.566  1.00  0.00     0.045 C  
ENDBRANCH  22  28
ENDBRANCH  19  20
ENDBRANCH  16  18
ENDBRANCH  15  16
ENDBRANCH  13  15
ENDBRANCH  12  13
ENDBRANCH   5  11
ENDBRANCH   2   3
TORSDOF 8
ENDMDL
MODEL      293
REMARK 921   NORMALIZED FREE ENERGY PREDICTED BY IDOCK:   -1.90 KCAL/MOL
REMARK 922        TOTAL FREE ENERGY PREDICTED BY IDOCK:   -4.34 KCAL/MOL
REMARK 923 INTER-LIGAND FREE ENERGY PREDICTED BY IDOCK:   -4.36 KCAL/MOL
REMARK 924 INTRA-LIGAND FREE ENERGY PREDICTED BY IDOCK:    0.02 KCAL/MOL
REMARK 927      BINDING AFFINITY PREDICTED BY RF-SCORE:    0.00 PKD
ROOT
HETATM    1  C   UNL     1      -8.839  17.524  68.292  1.00  0.00    -0.274 C  
HETATM    2  O   UNL     1      -9.905  16.957  67.535  1.00  0.00    -0.250 OA 
ENDROOT
BRANCH   2   3
HETATM    3  C   UNL     1     -10.285  15.696  67.922  1.00  0.00    -0.239 A  
HETATM    4  C   UNL     1      -9.576  14.542  67.574  1.00  0.00    -0.210 A  
HETATM    5  C   UNL     1     -10.023  13.270  67.956  1.00  0.00    -0.233 A  
HETATM    6  C   UNL     1     -11.152  13.173  68.778  1.00  0.00    -0.309 A  
HETATM    7  H   UNL     1     -12.883  16.617  69.644  1.00  0.00     0.000 HD 
HETATM    8  O   UNL     1     -12.114  16.698  69.092  1.00  0.00     0.257 OA 
HETATM    9  C   UNL     1     -11.848  14.322  69.170  1.00  0.00    -0.368 A  
HETATM   10  C   UNL     1     -11.416  15.575  68.735  1.00  0.00    -0.355 A  
BRANCH   5  11
HETATM   11  C   UNL     1      -9.315  12.050  67.542  1.00  0.00    -0.179 C  
HETATM   12  C   UNL     1      -9.462  11.482  66.333  1.00  0.00    -0.230 C  
BRANCH  12  13
HETATM   13  C   UNL     1      -8.732  10.231  65.983  1.00  0.00    -0.150 C  
HETATM   14  O   UNL     1      -8.225  10.077  64.871  1.00  0.00    -0.140 OA 
BRANCH  13  15
HETATM   15  C   UNL     1      -8.616   9.170  67.041  1.00  0.00    -0.127 C  
BRANCH  15  16
HETATM   16  C   UNL     1      -8.474   7.786  66.472  1.00  0.00    -0.132 C  
HETATM   17  O   UNL     1      -8.153   7.613  65.297  1.00  0.00    -0.122 OA 
BRANCH  16  18
HETATM   18  C   UNL     1      -8.685   6.637  67.402  1.00  0.00    -0.118 C  
HETATM   19  C   UNL     1      -8.689   6.848  68.727  1.00  0.00    -0.129 C  
BRANCH  19  20
HETATM   20  C   UNL     1      -8.935   5.822  69.755  1.00  0.00    -0.137 A  
HETATM   21  C   UNL     1      -8.052   4.752  69.982  1.00  0.00    -0.069 A  
HETATM   22  C   UNL     1      -8.371   3.747  70.901  1.00  0.00    -0.066 A  
HETATM   23  C   UNL     1     -10.145   5.868  70.466  1.00  0.00    -0.254 A  
HETATM   24  C   UNL     1      -9.583   3.825  71.593  1.00  0.00    -0.157 A  
HETATM   25  H   UNL     1     -10.756   2.902  72.956  1.00  0.00     0.000 HD 
HETATM   26  O   UNL     1      -9.932   2.848  72.486  1.00  0.00    -0.140 OA 
HETATM   27  C   UNL     1     -10.468   4.874  71.390  1.00  0.00    -0.170 A  
BRANCH  22  28
HETATM   28  O   UNL     1      -7.604   2.650  71.192  1.00  0.00    -0.036 OA 
HETATM   29  C   UNL     1      -6.299   2.611  70.630  1.00  0.00    -0.024 C  
ENDBRANCH  22  28
ENDBRANCH  19  20
ENDBRANCH  16  18
ENDBRANCH  15  16
ENDBRANCH  13  15
ENDBRANCH  12  13
ENDBRANCH   5  11
ENDBRANCH   2   3
TORSDOF 8
ENDMDL
MODEL      294
REMARK 921   NORMALIZED FREE ENERGY PREDICTED BY IDOCK:   -1.78 KCAL/MOL
REMARK 922        TOTAL FREE ENERGY PREDICTED BY IDOCK:   -4.15 KCAL/MOL
REMARK 923 INTER-LIGAND FREE ENERGY PREDICTED BY IDOCK:   -3.39 KCAL/MOL
REMARK 924 INTRA-LIGAND FREE ENERGY PREDICTED BY IDOCK:   -0.77 KCAL/MOL
REMARK 927      BINDING AFFINITY PREDICTED BY RF-SCORE:    0.00 PKD
ROOT
HETATM    1  C   UNL     1      -8.233   9.529  69.895  1.00  0.00    -0.161 C  
HETATM    2  O   UNL     1      -7.258   9.906  70.863  1.00  0.00    -0.330 OA 
ENDROOT
BRANCH   2   3
HETATM    3  C   UNL     1      -6.748   8.871  71.607  1.00  0.00    -0.061 A  
HETATM    4  C   UNL     1      -7.204   7.554  71.500  1.00  0.00    -0.070 A  
HETATM    5  C   UNL     1      -6.684   6.535  72.310  1.00  0.00    -0.067 A  
HETATM    6  C   UNL     1      -5.625   6.838  73.174  1.00  0.00    -0.038 A  
HETATM    7  H   UNL     1      -4.518  10.630  73.186  1.00  0.00     0.000 HD 
HETATM    8  O   UNL     1      -5.233  10.437  72.590  1.00  0.00    -0.308 OA 
HETATM    9  C   UNL     1      -5.129   8.144  73.260  1.00  0.00    -0.041 A  
HETATM   10  C   UNL     1      -5.696   9.154  72.484  1.00  0.00    -0.038 A  
BRANCH   5  11
HETATM   11  C   UNL     1      -7.202   5.161  72.244  1.00  0.00    -0.090 C  
HETATM   12  C   UNL     1      -8.131   4.679  73.087  1.00  0.00    -0.100 C  
BRANCH  12  13
HETATM   13  C   UNL     1      -8.598   3.267  72.983  1.00  0.00    -0.081 C  
HETATM   14  O   UNL     1      -7.902   2.333  73.384  1.00  0.00    -0.042 OA 
BRANCH  13  15
HETATM   15  C   UNL     1      -9.958   3.022  72.391  1.00  0.00    -0.235 C  
BRANCH  15  16
HETATM   16  C   UNL     1     -10.649   4.287  71.967  1.00  0.00     0.052 C  
HETATM   17  O   UNL     1     -11.430   4.867  72.721  1.00  0.00    -0.203 OA 
BRANCH  16  18
HETATM   18  C   UNL     1     -10.310   4.837  70.621  1.00  0.00    -0.184 C  
HETATM   19  C   UNL     1      -9.366   4.237  69.878  1.00  0.00    -0.232 C  
BRANCH  19  20
HETATM   20  C   UNL     1      -8.966   4.637  68.519  1.00  0.00    -0.139 A  
HETATM   21  C   UNL     1      -9.746   4.347  67.385  1.00  0.00    -0.217 A  
HETATM   22  C   UNL     1      -9.282   4.658  66.102  1.00  0.00    -0.140 A  
HETATM   23  C   UNL     1      -7.713   5.246  68.344  1.00  0.00    -0.080 A  
HETATM   24  C   UNL     1      -8.032   5.266  65.966  1.00  0.00    -0.104 A  
HETATM   25  H   UNL     1      -6.692   5.981  64.631  1.00  0.00     0.000 HD 
HETATM   26  O   UNL     1      -7.542   5.567  64.724  1.00  0.00    -0.071 OA 
HETATM   27  C   UNL     1      -7.247   5.567  67.070  1.00  0.00    -0.078 A  
BRANCH  22  28
HETATM   28  O   UNL     1      -9.939   4.408  64.926  1.00  0.00    -0.177 OA 
HETATM   29  C   UNL     1      -9.651   3.175  64.280  1.00  0.00    -0.150 C  
ENDBRANCH  22  28
ENDBRANCH  19  20
ENDBRANCH  16  18
ENDBRANCH  15  16
ENDBRANCH  13  15
ENDBRANCH  12  13
ENDBRANCH   5  11
ENDBRANCH   2   3
TORSDOF 8
ENDMDL
MODEL      295
REMARK 921   NORMALIZED FREE ENERGY PREDICTED BY IDOCK:   -1.72 KCAL/MOL
REMARK 922        TOTAL FREE ENERGY PREDICTED BY IDOCK:   -4.07 KCAL/MOL
REMARK 923 INTER-LIGAND FREE ENERGY PREDICTED BY IDOCK:   -3.57 KCAL/MOL
REMARK 924 INTRA-LIGAND FREE ENERGY PREDICTED BY IDOCK:   -0.49 KCAL/MOL
REMARK 927      BINDING AFFINITY PREDICTED BY RF-SCORE:    0.00 PKD
ROOT
HETATM    1  C   UNL     1     -12.996  10.676  70.489  1.00  0.00    -0.205 C  
HETATM    2  O   UNL     1     -11.654  11.112  70.690  1.00  0.00    -0.286 OA 
ENDROOT
BRANCH   2   3
HETATM    3  C   UNL     1     -11.013  11.558  69.560  1.00  0.00    -0.125 A  
HETATM    4  C   UNL     1     -10.118  10.773  68.828  1.00  0.00    -0.202 A  
HETATM    5  C   UNL     1      -9.454  11.282  67.704  1.00  0.00    -0.173 A  
HETATM    6  C   UNL     1      -9.770  12.574  67.265  1.00  0.00    -0.202 A  
HETATM    7  H   UNL     1     -12.390  14.501  69.506  1.00  0.00     0.000 HD 
HETATM    8  O   UNL     1     -12.190  13.624  69.812  1.00  0.00    -0.321 OA 
HETATM    9  C   UNL     1     -10.697  13.356  67.963  1.00  0.00    -0.261 A  
HETATM   10  C   UNL     1     -11.307  12.849  69.110  1.00  0.00    -0.273 A  
BRANCH   5  11
HETATM   11  C   UNL     1      -8.467  10.482  66.965  1.00  0.00    -0.128 C  
HETATM   12  C   UNL     1      -7.346   9.991  67.521  1.00  0.00    -0.090 C  
BRANCH  12  13
HETATM   13  C   UNL     1      -6.372   9.205  66.711  1.00  0.00    -0.066 C  
HETATM   14  O   UNL     1      -5.242   8.959  67.134  1.00  0.00    -0.035 OA 
BRANCH  13  15
HETATM   15  C   UNL     1      -6.825   8.704  65.368  1.00  0.00    -0.071 C  
BRANCH  15  16
HETATM   16  C   UNL     1      -7.778   7.546  65.465  1.00  0.00    -0.103 C  
HETATM   17  O   UNL     1      -8.533   7.267  64.534  1.00  0.00     0.013 OA 
BRANCH  16  18
HETATM   18  C   UNL     1      -7.733   6.722  66.708  1.00  0.00    -0.106 C  
HETATM   19  C   UNL     1      -7.969   5.403  66.638  1.00  0.00    -0.105 C  
BRANCH  19  20
HETATM   20  C   UNL     1      -7.908   4.462  67.770  1.00  0.00    -0.084 A  
HETATM   21  C   UNL     1      -8.921   4.381  68.742  1.00  0.00    -0.152 A  
HETATM   22  C   UNL     1      -8.777   3.543  69.853  1.00  0.00    -0.079 A  
HETATM   23  C   UNL     1      -6.748   3.687  67.930  1.00  0.00    -0.046 A  
HETATM   24  C   UNL     1      -7.611   2.784  69.979  1.00  0.00    -0.043 A  
HETATM   25  H   UNL     1      -6.639   1.452  71.150  1.00  0.00     0.000 HD 
HETATM   26  O   UNL     1      -7.432   1.968  71.064  1.00  0.00    -0.033 OA 
HETATM   27  C   UNL     1      -6.600   2.843  69.030  1.00  0.00    -0.033 A  
BRANCH  22  28
HETATM   28  O   UNL     1      -9.681   3.396  70.871  1.00  0.00    -0.171 OA 
HETATM   29  C   UNL     1      -9.948   4.545  71.665  1.00  0.00    -0.196 C  
ENDBRANCH  22  28
ENDBRANCH  19  20
ENDBRANCH  16  18
ENDBRANCH  15  16
ENDBRANCH  13  15
ENDBRANCH  12  13
ENDBRANCH   5  11
ENDBRANCH   2   3
TORSDOF 8
ENDMDL
MODEL      296
REMARK 921   NORMALIZED FREE ENERGY PREDICTED BY IDOCK:   -1.68 KCAL/MOL
REMARK 922        TOTAL FREE ENERGY PREDICTED BY IDOCK:   -4.01 KCAL/MOL
REMARK 923 INTER-LIGAND FREE ENERGY PREDICTED BY IDOCK:   -4.51 KCAL/MOL
REMARK 924 INTRA-LIGAND FREE ENERGY PREDICTED BY IDOCK:    0.50 KCAL/MOL
REMARK 927      BINDING AFFINITY PREDICTED BY RF-SCORE:    0.00 PKD
ROOT
HETATM    1  C   UNL     1      -7.342  14.804  67.860  1.00  0.00    -0.151 C  
HETATM    2  O   UNL     1      -8.499  14.398  67.132  1.00  0.00    -0.203 OA 
ENDROOT
BRANCH   2   3
HETATM    3  C   UNL     1      -9.319  13.517  67.791  1.00  0.00    -0.213 A  
HETATM    4  C   UNL     1      -8.928  12.220  68.139  1.00  0.00    -0.192 A  
HETATM    5  C   UNL     1      -9.813  11.339  68.774  1.00  0.00    -0.194 A  
HETATM    6  C   UNL     1     -11.080  11.807  69.142  1.00  0.00    -0.294 A  
HETATM    7  H   UNL     1     -11.850  15.534  68.083  1.00  0.00     0.000 HD 
HETATM    8  O   UNL     1     -10.985  15.231  67.833  1.00  0.00    -0.285 OA 
HETATM    9  C   UNL     1     -11.470  13.116  68.838  1.00  0.00    -0.343 A  
HETATM   10  C   UNL     1     -10.593  13.961  68.159  1.00  0.00    -0.252 A  
BRANCH   5  11
HETATM   11  C   UNL     1      -9.427   9.955  69.089  1.00  0.00    -0.201 C  
HETATM   12  C   UNL     1      -8.650   9.623  70.134  1.00  0.00    -0.243 C  
BRANCH  12  13
HETATM   13  C   UNL     1      -8.276   8.202  70.386  1.00  0.00    -0.114 C  
HETATM   14  O   UNL     1      -7.156   7.901  70.801  1.00  0.00    -0.051 OA 
BRANCH  13  15
HETATM   15  C   UNL     1      -9.320   7.150  70.137  1.00  0.00    -0.158 C  
BRANCH  15  16
HETATM   16  C   UNL     1      -9.525   6.859  68.677  1.00  0.00    -0.134 C  
HETATM   17  O   UNL     1     -10.120   5.847  68.309  1.00  0.00    -0.143 OA 
BRANCH  16  18
HETATM   18  C   UNL     1      -9.026   7.872  67.700  1.00  0.00    -0.133 C  
HETATM   19  C   UNL     1      -9.200   7.666  66.385  1.00  0.00    -0.223 C  
BRANCH  19  20
HETATM   20  C   UNL     1      -8.807   8.598  65.315  1.00  0.00    -0.178 A  
HETATM   21  C   UNL     1      -7.527   8.585  64.731  1.00  0.00    -0.095 A  
HETATM   22  C   UNL     1      -7.164   9.550  63.787  1.00  0.00    -0.107 A  
HETATM   23  C   UNL     1      -9.717   9.597  64.933  1.00  0.00    -0.174 A  
HETATM   24  C   UNL     1      -8.096  10.528  63.429  1.00  0.00    -0.076 A  
HETATM   25  H   UNL     1      -8.399  12.162  62.277  1.00  0.00     0.000 HD 
HETATM   26  O   UNL     1      -7.765  11.498  62.521  1.00  0.00     0.125 OA 
HETATM   27  C   UNL     1      -9.366  10.559  63.986  1.00  0.00    -0.308 A  
BRANCH  22  28
HETATM   28  O   UNL     1      -5.947   9.652  63.167  1.00  0.00    -0.096 OA 
HETATM   29  C   UNL     1      -5.549   8.559  62.349  1.00  0.00    -0.075 C  
ENDBRANCH  22  28
ENDBRANCH  19  20
ENDBRANCH  16  18
ENDBRANCH  15  16
ENDBRANCH  13  15
ENDBRANCH  12  13
ENDBRANCH   5  11
ENDBRANCH   2   3
TORSDOF 8
ENDMDL
MODEL      297
REMARK 921   NORMALIZED FREE ENERGY PREDICTED BY IDOCK:   -1.61 KCAL/MOL
REMARK 922        TOTAL FREE ENERGY PREDICTED BY IDOCK:   -3.90 KCAL/MOL
REMARK 923 INTER-LIGAND FREE ENERGY PREDICTED BY IDOCK:   -4.38 KCAL/MOL
REMARK 924 INTRA-LIGAND FREE ENERGY PREDICTED BY IDOCK:    0.48 KCAL/MOL
REMARK 927      BINDING AFFINITY PREDICTED BY RF-SCORE:    0.00 PKD
ROOT
HETATM    1  C   UNL     1      -5.857  17.381  67.087  1.00  0.00    -0.144 C  
HETATM    2  O   UNL     1      -6.225  16.162  67.728  1.00  0.00    -0.114 OA 
ENDROOT
BRANCH   2   3
HETATM    3  C   UNL     1      -7.445  15.656  67.356  1.00  0.00    -0.205 A  
HETATM    4  C   UNL     1      -7.745  14.290  67.375  1.00  0.00    -0.194 A  
HETATM    5  C   UNL     1      -8.991  13.813  66.946  1.00  0.00    -0.234 A  
HETATM    6  C   UNL     1      -9.976  14.739  66.579  1.00  0.00    -0.283 A  
HETATM    7  H   UNL     1      -8.838  18.519  66.707  1.00  0.00     0.000 HD 
HETATM    8  O   UNL     1      -8.162  17.903  66.964  1.00  0.00    -0.214 OA 
HETATM    9  C   UNL     1      -9.704  16.111  66.597  1.00  0.00    -0.260 A  
HETATM   10  C   UNL     1      -8.440  16.562  66.977  1.00  0.00    -0.197 A  
BRANCH   5  11
HETATM   11  C   UNL     1      -9.292  12.374  66.906  1.00  0.00    -0.213 C  
HETATM   12  C   UNL     1      -9.530  11.699  65.769  1.00  0.00    -0.244 C  
BRANCH  12  13
HETATM   13  C   UNL     1      -9.852  10.244  65.798  1.00  0.00    -0.257 C  
HETATM   14  O   UNL     1      -9.344   9.461  64.994  1.00  0.00    -0.251 OA 
BRANCH  13  15
HETATM   15  C   UNL     1     -10.801   9.759  66.858  1.00  0.00    -0.120 C  
BRANCH  15  16
HETATM   16  C   UNL     1     -10.467   8.383  67.361  1.00  0.00    -0.283 C  
HETATM   17  O   UNL     1     -11.068   7.392  66.945  1.00  0.00    -0.236 OA 
BRANCH  16  18
HETATM   18  C   UNL     1      -9.345   8.262  68.338  1.00  0.00    -0.136 C  
HETATM   19  C   UNL     1      -9.255   7.171  69.114  1.00  0.00    -0.139 C  
BRANCH  19  20
HETATM   20  C   UNL     1      -8.179   6.896  70.080  1.00  0.00    -0.133 A  
HETATM   21  C   UNL     1      -8.306   5.936  71.101  1.00  0.00    -0.124 A  
HETATM   22  C   UNL     1      -7.298   5.775  72.057  1.00  0.00    -0.094 A  
HETATM   23  C   UNL     1      -7.022   7.691  70.035  1.00  0.00    -0.051 A  
HETATM   24  C   UNL     1      -6.160   6.582  71.980  1.00  0.00    -0.038 A  
HETATM   25  H   UNL     1      -4.389   7.009  72.859  1.00  0.00     0.000 HD 
HETATM   26  O   UNL     1      -5.164   6.461  72.911  1.00  0.00    -0.034 OA 
HETATM   27  C   UNL     1      -6.009   7.531  70.980  1.00  0.00    -0.035 A  
BRANCH  22  28
HETATM   28  O   UNL     1      -7.317   4.893  73.105  1.00  0.00    -0.083 OA 
HETATM   29  C   UNL     1      -7.799   3.583  72.833  1.00  0.00    -0.065 C  
ENDBRANCH  22  28
ENDBRANCH  19  20
ENDBRANCH  16  18
ENDBRANCH  15  16
ENDBRANCH  13  15
ENDBRANCH  12  13
ENDBRANCH   5  11
ENDBRANCH   2   3
TORSDOF 8
ENDMDL
MODEL      298
REMARK 921   NORMALIZED FREE ENERGY PREDICTED BY IDOCK:   -0.72 KCAL/MOL
REMARK 922        TOTAL FREE ENERGY PREDICTED BY IDOCK:   -2.60 KCAL/MOL
REMARK 923 INTER-LIGAND FREE ENERGY PREDICTED BY IDOCK:   -2.61 KCAL/MOL
REMARK 924 INTRA-LIGAND FREE ENERGY PREDICTED BY IDOCK:    0.01 KCAL/MOL
REMARK 927      BINDING AFFINITY PREDICTED BY RF-SCORE:    0.00 PKD
ROOT
HETATM    1  C   UNL     1      -5.793  10.854  66.930  1.00  0.00    -0.072 C  
HETATM    2  O   UNL     1      -6.331  12.024  66.318  1.00  0.00     0.105 OA 
ENDROOT
BRANCH   2   3
HETATM    3  C   UNL     1      -7.030  12.850  67.162  1.00  0.00     0.060 A  
HETATM    4  C   UNL     1      -8.320  12.565  67.619  1.00  0.00    -0.172 A  
HETATM    5  C   UNL     1      -9.014  13.458  68.447  1.00  0.00    -0.136 A  
HETATM    6  C   UNL     1      -8.356  14.612  68.891  1.00  0.00    -0.142 A  
HETATM    7  H   UNL     1      -4.697  15.090  67.483  1.00  0.00     0.000 HD 
HETATM    8  O   UNL     1      -5.128  14.299  67.179  1.00  0.00    -0.084 OA 
HETATM    9  C   UNL     1      -7.049  14.889  68.477  1.00  0.00    -0.108 A  
HETATM   10  C   UNL     1      -6.395  14.013  67.610  1.00  0.00    -0.118 A  
BRANCH   5  11
HETATM   11  C   UNL     1     -10.393  13.191  68.881  1.00  0.00    -0.068 C  
HETATM   12  C   UNL     1     -11.151  14.091  69.531  1.00  0.00    -0.200 C  
BRANCH  12  13
HETATM   13  C   UNL     1     -12.536  13.750  69.965  1.00  0.00    -0.240 C  
HETATM   14  O   UNL     1     -13.498  13.912  69.214  1.00  0.00     1.949 OA 
BRANCH  13  15
HETATM   15  C   UNL     1     -12.716  13.180  71.344  1.00  0.00    -0.390 C  
BRANCH  15  16
HETATM   16  C   UNL     1     -12.585  11.683  71.382  1.00  0.00    -0.286 C  
HETATM   17  O   UNL     1     -13.031  11.031  72.327  1.00  0.00    -0.305 OA 
BRANCH  16  18
HETATM   18  C   UNL     1     -11.945  11.020  70.208  1.00  0.00    -0.452 C  
HETATM   19  C   UNL     1     -11.355   9.825  70.362  1.00  0.00    -0.362 C  
BRANCH  19  20
HETATM   20  C   UNL     1     -10.732   9.035  69.287  1.00  0.00    -0.189 A  
HETATM   21  C   UNL     1      -9.975   7.877  69.540  1.00  0.00    -0.189 A  
HETATM   22  C   UNL     1      -9.320   7.212  68.499  1.00  0.00    -0.136 A  
HETATM   23  C   UNL     1     -10.821   9.514  67.969  1.00  0.00    -0.225 A  
HETATM   24  C   UNL     1      -9.432   7.715  67.200  1.00  0.00    -0.155 A  
HETATM   25  H   UNL     1      -8.864   7.439  65.279  1.00  0.00     0.000 HD 
HETATM   26  O   UNL     1      -8.788   7.097  66.162  1.00  0.00    -0.150 OA 
HETATM   27  C   UNL     1     -10.178   8.852  66.924  1.00  0.00    -0.347 A  
BRANCH  22  28
HETATM   28  O   UNL     1      -8.541   6.092  68.624  1.00  0.00    -0.112 OA 
HETATM   29  C   UNL     1      -7.252   6.135  68.023  1.00  0.00    -0.083 C  
ENDBRANCH  22  28
ENDBRANCH  19  20
ENDBRANCH  16  18
ENDBRANCH  15  16
ENDBRANCH  13  15
ENDBRANCH  12  13
ENDBRANCH   5  11
ENDBRANCH   2   3
TORSDOF 8
ENDMDL
MODEL      299
REMARK 921   NORMALIZED FREE ENERGY PREDICTED BY IDOCK:   -0.17 KCAL/MOL
REMARK 922        TOTAL FREE ENERGY PREDICTED BY IDOCK:   -1.79 KCAL/MOL
REMARK 923 INTER-LIGAND FREE ENERGY PREDICTED BY IDOCK:   -4.08 KCAL/MOL
REMARK 924 INTRA-LIGAND FREE ENERGY PREDICTED BY IDOCK:    2.28 KCAL/MOL
REMARK 927      BINDING AFFINITY PREDICTED BY RF-SCORE:    0.00 PKD
ROOT
HETATM    1  C   UNL     1     -12.563  12.207  70.167  1.00  0.00     0.093 C  
HETATM    2  O   UNL     1     -12.965  13.136  71.171  1.00  0.00    -0.288 OA 
ENDROOT
BRANCH   2   3
HETATM    3  C   UNL     1     -12.380  14.375  71.083  1.00  0.00    -0.358 A  
HETATM    4  C   UNL     1     -11.885  14.905  69.888  1.00  0.00    -0.355 A  
HETATM    5  C   UNL     1     -11.258  16.157  69.851  1.00  0.00    -0.349 A  
HETATM    6  C   UNL     1     -11.215  16.922  71.024  1.00  0.00     0.553 A  
HETATM    7  H   UNL     1     -12.767  15.176  74.209  1.00  0.00     0.000 HD 
HETATM    8  O   UNL     1     -12.809  14.649  73.419  1.00  0.00    -0.517 OA 
HETATM    9  C   UNL     1     -11.745  16.423  72.218  1.00  0.00    -0.463 A  
HETATM   10  C   UNL     1     -12.318  15.151  72.244  1.00  0.00    -0.363 A  
BRANCH   5  11
HETATM   11  C   UNL     1     -10.682  16.693  68.609  1.00  0.00    -0.349 C  
HETATM   12  C   UNL     1     -10.431  15.941  67.524  1.00  0.00    -0.298 C  
BRANCH  12  13
HETATM   13  C   UNL     1      -9.823  16.541  66.302  1.00  0.00    -0.316 C  
HETATM   14  O   UNL     1      -8.714  16.188  65.902  1.00  0.00    -0.328 OA 
BRANCH  13  15
HETATM   15  C   UNL     1     -10.622  17.577  65.561  1.00  0.00    -0.097 C  
BRANCH  15  16
HETATM   16  C   UNL     1     -10.440  18.963  66.112  1.00  0.00    -0.457 C  
HETATM   17  O   UNL     1     -11.244  19.858  65.855  1.00  0.00    -0.084 OA 
BRANCH  16  18
HETATM   18  C   UNL     1      -9.280  19.192  67.023  1.00  0.00    -0.336 C  
HETATM   19  C   UNL     1      -9.170  18.473  68.151  1.00  0.00    -0.329 C  
BRANCH  19  20
HETATM   20  C   UNL     1      -8.058  18.556  69.113  1.00  0.00    -0.006 A  
HETATM   21  C   UNL     1      -7.235  17.457  69.415  1.00  0.00    -0.001 A  
HETATM   22  C   UNL     1      -6.252  17.553  70.406  1.00  0.00     0.419 A  
HETATM   23  C   UNL     1      -7.878  19.755  69.821  1.00  0.00     0.398 A  
HETATM   24  C   UNL     1      -6.099  18.762  71.089  1.00  0.00     0.586 A  
HETATM   25  H   UNL     1      -5.054  19.704  72.541  1.00  0.00     0.000 HD 
HETATM   26  O   UNL     1      -5.159  18.882  72.077  1.00  0.00    -0.766 OA 
HETATM   27  C   UNL     1      -6.895  19.862  70.805  1.00  0.00     0.266 A  
BRANCH  22  28
HETATM   28  O   UNL     1      -5.408  16.549  70.801  1.00  0.00    -0.188 OA 
HETATM   29  C   UNL     1      -5.674  15.248  70.293  1.00  0.00    -0.144 C  
ENDBRANCH  22  28
ENDBRANCH  19  20
ENDBRANCH  16  18
ENDBRANCH  15  16
ENDBRANCH  13  15
ENDBRANCH  12  13
ENDBRANCH   5  11
ENDBRANCH   2   3
TORSDOF 8
ENDMDL
MODEL      300
REMARK 921   NORMALIZED FREE ENERGY PREDICTED BY IDOCK:    0.38 KCAL/MOL
REMARK 922        TOTAL FREE ENERGY PREDICTED BY IDOCK:   -0.98 KCAL/MOL
REMARK 923 INTER-LIGAND FREE ENERGY PREDICTED BY IDOCK:   -1.15 KCAL/MOL
REMARK 924 INTRA-LIGAND FREE ENERGY PREDICTED BY IDOCK:    0.17 KCAL/MOL
REMARK 927      BINDING AFFINITY PREDICTED BY RF-SCORE:    0.00 PKD
ROOT
HETATM    1  C   UNL     1      -9.362  10.973  69.854  1.00  0.00     0.989 C  
HETATM    2  O   UNL     1      -8.292  10.307  69.189  1.00  0.00    -0.132 OA 
ENDROOT
BRANCH   2   3
HETATM    3  C   UNL     1      -7.404  11.132  68.546  1.00  0.00    -0.104 A  
HETATM    4  C   UNL     1      -6.892  12.301  69.119  1.00  0.00    -0.073 A  
HETATM    5  C   UNL     1      -6.019  13.137  68.410  1.00  0.00    -0.083 A  
HETATM    6  C   UNL     1      -5.588  12.736  67.139  1.00  0.00     0.136 A  
HETATM    7  H   UNL     1      -7.157   9.353  65.838  1.00  0.00     0.000 HD 
HETATM    8  O   UNL     1      -7.453   9.609  66.704  1.00  0.00    -0.093 OA 
HETATM    9  C   UNL     1      -6.058  11.547  66.571  1.00  0.00    -0.086 A  
HETATM   10  C   UNL     1      -6.968  10.756  67.272  1.00  0.00    -0.086 A  
BRANCH   5  11
HETATM   11  C   UNL     1      -5.525  14.397  68.984  1.00  0.00    -0.084 C  
HETATM   12  C   UNL     1      -6.103  15.589  68.759  1.00  0.00    -0.099 C  
BRANCH  12  13
HETATM   13  C   UNL     1      -5.539  16.835  69.353  1.00  0.00    -0.158 C  
HETATM   14  O   UNL     1      -5.220  16.888  70.541  1.00  0.00    -0.202 OA 
BRANCH  13  15
HETATM   15  C   UNL     1      -5.351  18.019  68.446  1.00  0.00    -0.157 C  
BRANCH  15  16
HETATM   16  C   UNL     1      -6.454  19.033  68.569  1.00  0.00    -0.243 C  
HETATM   17  O   UNL     1      -6.243  20.228  68.362  1.00  0.00    -0.263 OA 
BRANCH  16  18
HETATM   18  C   UNL     1      -7.819  18.526  68.896  1.00  0.00    -0.245 C  
HETATM   19  C   UNL     1      -8.237  17.362  68.374  1.00  0.00    -0.262 C  
BRANCH  19  20
HETATM   20  C   UNL     1      -9.533  16.719  68.649  1.00  0.00    -0.255 A  
HETATM   21  C   UNL     1     -10.209  16.871  69.873  1.00  0.00     0.188 A  
HETATM   22  C   UNL     1     -11.389  16.165  70.129  1.00  0.00    -0.340 A  
HETATM   23  C   UNL     1     -10.061  15.845  67.685  1.00  0.00    -0.242 A  
HETATM   24  C   UNL     1     -11.887  15.306  69.146  1.00  0.00    -0.321 A  
HETATM   25  H   UNL     1     -13.369  14.003  68.704  1.00  0.00     0.000 HD 
HETATM   26  O   UNL     1     -13.030  14.586  69.372  1.00  0.00     0.251 OA 
HETATM   27  C   UNL     1     -11.241  15.143  67.929  1.00  0.00    -0.334 A  
BRANCH  22  28
HETATM   28  O   UNL     1     -12.122  16.215  71.284  1.00  0.00    -0.414 OA 
HETATM   29  C   UNL     1     -11.909  17.337  72.132  1.00  0.00     1.561 C  
ENDBRANCH  22  28
ENDBRANCH  19  20
ENDBRANCH  16  18
ENDBRANCH  15  16
ENDBRANCH  13  15
ENDBRANCH  12  13
ENDBRANCH   5  11
ENDBRANCH   2   3
TORSDOF 8
ENDMDL
MODEL      301
REMARK 921   NORMALIZED FREE ENERGY PREDICTED BY IDOCK:    2.62 KCAL/MOL
REMARK 922        TOTAL FREE ENERGY PREDICTED BY IDOCK:    2.30 KCAL/MOL
REMARK 923 INTER-LIGAND FREE ENERGY PREDICTED BY IDOCK:   -3.99 KCAL/MOL
REMARK 924 INTRA-LIGAND FREE ENERGY PREDICTED BY IDOCK:    6.29 KCAL/MOL
REMARK 927      BINDING AFFINITY PREDICTED BY RF-SCORE:    0.00 PKD
ROOT
HETATM    1  C   UNL     1     -11.089  16.617  72.226  1.00  0.00     1.198 C  
HETATM    2  O   UNL     1     -11.351  16.063  70.940  1.00  0.00    -0.370 OA 
ENDROOT
BRANCH   2   3
HETATM    3  C   UNL     1     -11.858  14.787  70.949  1.00  0.00    -0.322 A  
HETATM    4  C   UNL     1     -11.248  13.716  70.289  1.00  0.00     0.243 A  
HETATM    5  C   UNL     1     -11.822  12.438  70.290  1.00  0.00    -0.315 A  
HETATM    6  C   UNL     1     -12.982  12.223  71.046  1.00  0.00    -0.152 A  
HETATM    7  H   UNL     1     -14.411  15.431  72.853  1.00  0.00     0.000 HD 
HETATM    8  O   UNL     1     -13.621  15.590  72.350  1.00  0.00    -0.452 OA 
HETATM    9  C   UNL     1     -13.579  13.276  71.747  1.00  0.00    -0.369 A  
HETATM   10  C   UNL     1     -13.020  14.553  71.689  1.00  0.00    -0.337 A  
BRANCH   5  11
HETATM   11  C   UNL     1     -11.218  11.322  69.548  1.00  0.00    -0.337 C  
HETATM   12  C   UNL     1     -11.294  11.194  68.212  1.00  0.00    -0.365 C  
BRANCH  12  13
HETATM   13  C   UNL     1     -10.679  10.026  67.521  1.00  0.00    -0.281 C  
HETATM   14  O   UNL     1     -10.719   8.898  68.014  1.00  0.00    -0.200 OA 
BRANCH  13  15
HETATM   15  C   UNL     1     -10.026  10.266  66.188  1.00  0.00    -0.300 C  
BRANCH  15  16
HETATM   16  C   UNL     1      -8.858   9.355  65.934  1.00  0.00    -0.162 C  
HETATM   17  O   UNL     1      -8.218   9.421  64.885  1.00  0.00    -0.127 OA 
BRANCH  16  18
HETATM   18  C   UNL     1      -8.476   8.409  67.024  1.00  0.00    -0.122 C  
HETATM   19  C   UNL     1      -9.433   7.828  67.764  1.00  0.00    -0.163 C  
BRANCH  19  20
HETATM   20  C   UNL     1      -9.205   6.841  68.833  1.00  0.00    -0.131 A  
HETATM   21  C   UNL     1      -8.241   5.823  68.730  1.00  0.00    -0.101 A  
HETATM   22  C   UNL     1      -8.124   4.847  69.726  1.00  0.00    -0.069 A  
HETATM   23  C   UNL     1     -10.052   6.865  69.953  1.00  0.00    -0.200 A  
HETATM   24  C   UNL     1      -8.982   4.903  70.828  1.00  0.00    -0.131 A  
HETATM   25  H   UNL     1      -9.487   3.991  72.560  1.00  0.00     0.000 HD 
HETATM   26  O   UNL     1      -8.905   3.953  71.811  1.00  0.00    -0.100 OA 
HETATM   27  C   UNL     1      -9.937   5.901  70.955  1.00  0.00    -0.238 A  
BRANCH  22  28
HETATM   28  O   UNL     1      -7.241   3.800  69.727  1.00  0.00    -0.042 OA 
HETATM   29  C   UNL     1      -7.675   2.593  69.113  1.00  0.00    -0.046 C  
ENDBRANCH  22  28
ENDBRANCH  19  20
ENDBRANCH  16  18
ENDBRANCH  15  16
ENDBRANCH  13  15
ENDBRANCH  12  13
ENDBRANCH   5  11
ENDBRANCH   2   3
TORSDOF 8
ENDMDL
MODEL      302
REMARK 921   NORMALIZED FREE ENERGY PREDICTED BY IDOCK:    2.86 KCAL/MOL
REMARK 922        TOTAL FREE ENERGY PREDICTED BY IDOCK:    2.65 KCAL/MOL
REMARK 923 INTER-LIGAND FREE ENERGY PREDICTED BY IDOCK:   -1.79 KCAL/MOL
REMARK 924 INTRA-LIGAND FREE ENERGY PREDICTED BY IDOCK:    4.44 KCAL/MOL
REMARK 927      BINDING AFFINITY PREDICTED BY RF-SCORE:    0.00 PKD
ROOT
HETATM    1  C   UNL     1     -11.662   9.759  69.517  1.00  0.00     0.163 C  
HETATM    2  O   UNL     1     -10.388  10.386  69.634  1.00  0.00    -0.230 OA 
ENDROOT
BRANCH   2   3
HETATM    3  C   UNL     1     -10.013  11.145  68.553  1.00  0.00    -0.199 A  
HETATM    4  C   UNL     1      -9.428  10.604  67.404  1.00  0.00    -0.172 A  
HETATM    5  C   UNL     1      -9.022  11.421  66.340  1.00  0.00    -0.196 A  
HETATM    6  C   UNL     1      -9.296  12.792  66.404  1.00  0.00    -0.196 A  
HETATM    7  H   UNL     1     -11.026  13.993  69.746  1.00  0.00     0.000 HD 
HETATM    8  O   UNL     1     -10.852  13.059  69.714  1.00  0.00     0.179 OA 
HETATM    9  C   UNL     1      -9.921  13.342  67.529  1.00  0.00    -0.223 A  
HETATM   10  C   UNL     1     -10.269  12.518  68.599  1.00  0.00    -0.154 A  
BRANCH   5  11
HETATM   11  C   UNL     1      -8.351  10.865  65.156  1.00  0.00     0.001 C  
HETATM   12  C   UNL     1      -7.016  10.743  65.050  1.00  0.00     0.206 C  
BRANCH  12  13
HETATM   13  C   UNL     1      -6.396  10.192  63.812  1.00  0.00    -0.131 C  
HETATM   14  O   UNL     1      -5.191   9.945  63.757  1.00  0.00    -0.069 OA 
BRANCH  13  15
HETATM   15  C   UNL     1      -7.296   9.926  62.638  1.00  0.00    -0.126 C  
BRANCH  15  16
HETATM   16  C   UNL     1      -8.625   9.348  63.036  1.00  0.00    -0.221 C  
HETATM   17  O   UNL     1      -9.645   9.600  62.395  1.00  0.00    -0.119 OA 
BRANCH  16  18
HETATM   18  C   UNL     1      -8.646   8.417  64.202  1.00  0.00     0.067 C  
HETATM   19  C   UNL     1      -9.621   8.523  65.119  1.00  0.00     0.635 C  
BRANCH  19  20
HETATM   20  C   UNL     1      -9.795   7.645  66.288  1.00  0.00    -0.080 A  
HETATM   21  C   UNL     1      -8.897   6.607  66.595  1.00  0.00    -0.140 A  
HETATM   22  C   UNL     1      -9.152   5.734  67.658  1.00  0.00    -0.106 A  
HETATM   23  C   UNL     1     -10.954   7.793  67.066  1.00  0.00     0.016 A  
HETATM   24  C   UNL     1     -10.314   5.913  68.413  1.00  0.00    -0.210 A  
HETATM   25  H   UNL     1     -11.392   5.186  69.962  1.00  0.00     0.000 HD 
HETATM   26  O   UNL     1     -10.602   5.065  69.449  1.00  0.00    -0.161 OA 
HETATM   27  C   UNL     1     -11.213   6.932  68.133  1.00  0.00    -0.082 A  
BRANCH  22  28
HETATM   28  O   UNL     1      -8.366   4.679  68.039  1.00  0.00    -0.098 OA 
HETATM   29  C   UNL     1      -8.927   3.380  67.907  1.00  0.00    -0.144 C  
ENDBRANCH  22  28
ENDBRANCH  19  20
ENDBRANCH  16  18
ENDBRANCH  15  16
ENDBRANCH  13  15
ENDBRANCH  12  13
ENDBRANCH   5  11
ENDBRANCH   2   3
TORSDOF 8
ENDMDL
MODEL      303
REMARK 921   NORMALIZED FREE ENERGY PREDICTED BY IDOCK:    4.27 KCAL/MOL
REMARK 922        TOTAL FREE ENERGY PREDICTED BY IDOCK:    4.73 KCAL/MOL
REMARK 923 INTER-LIGAND FREE ENERGY PREDICTED BY IDOCK:    3.91 KCAL/MOL
REMARK 924 INTRA-LIGAND FREE ENERGY PREDICTED BY IDOCK:    0.81 KCAL/MOL
REMARK 927      BINDING AFFINITY PREDICTED BY RF-SCORE:    0.00 PKD
ROOT
HETATM    1  C   UNL     1      -9.827  21.064  64.638  1.00  0.00     2.718 C  
HETATM    2  O   UNL     1     -10.142  20.540  65.926  1.00  0.00    -0.222 OA 
ENDROOT
BRANCH   2   3
HETATM    3  C   UNL     1     -10.131  19.171  66.014  1.00  0.00    -0.373 A  
HETATM    4  C   UNL     1      -9.219  18.461  66.802  1.00  0.00    -0.293 A  
HETATM    5  C   UNL     1      -9.217  17.060  66.830  1.00  0.00    -0.254 A  
HETATM    6  C   UNL     1     -10.210  16.372  66.122  1.00  0.00    -0.363 A  
HETATM    7  H   UNL     1     -12.678  18.666  64.060  1.00  0.00     0.000 HD 
HETATM    8  O   UNL     1     -12.014  19.146  64.541  1.00  0.00     3.270 OA 
HETATM    9  C   UNL     1     -11.156  17.070  65.364  1.00  0.00     0.127 A  
HETATM   10  C   UNL     1     -11.108  18.463  65.307  1.00  0.00     0.907 A  
BRANCH   5  11
HETATM   11  C   UNL     1      -8.222  16.308  67.609  1.00  0.00    -0.166 C  
HETATM   12  C   UNL     1      -7.061  16.835  68.032  1.00  0.00    -0.159 C  
BRANCH  12  13
HETATM   13  C   UNL     1      -6.083  16.011  68.799  1.00  0.00    -0.110 C  
HETATM   14  O   UNL     1      -5.242  16.535  69.530  1.00  0.00    -0.127 OA 
BRANCH  13  15
HETATM   15  C   UNL     1      -6.174  14.516  68.668  1.00  0.00    -0.083 C  
BRANCH  15  16
HETATM   16  C   UNL     1      -7.423  13.948  69.281  1.00  0.00     0.103 C  
HETATM   17  O   UNL     1      -8.222  14.670  69.878  1.00  0.00     0.194 OA 
BRANCH  16  18
HETATM   18  C   UNL     1      -7.680  12.490  69.088  1.00  0.00     0.302 C  
HETATM   19  C   UNL     1      -8.467  12.083  68.081  1.00  0.00    -0.171 C  
BRANCH  19  20
HETATM   20  C   UNL     1      -8.765  10.681  67.742  1.00  0.00    -0.129 A  
HETATM   21  C   UNL     1      -7.760   9.750  67.420  1.00  0.00    -0.095 A  
HETATM   22  C   UNL     1      -8.094   8.455  67.010  1.00  0.00    -0.104 A  
HETATM   23  C   UNL     1     -10.110  10.290  67.646  1.00  0.00    -0.229 A  
HETATM   24  C   UNL     1      -9.442   8.099  66.927  1.00  0.00    -0.191 A  
HETATM   25  H   UNL     1     -10.719   6.604  66.456  1.00  0.00     0.000 HD 
HETATM   26  O   UNL     1      -9.802   6.846  66.512  1.00  0.00    -0.170 OA 
HETATM   27  C   UNL     1     -10.451   8.998  67.245  1.00  0.00    -0.343 A  
BRANCH  22  28
HETATM   28  O   UNL     1      -7.209   7.472  66.653  1.00  0.00    -0.079 OA 
HETATM   29  C   UNL     1      -6.482   6.849  67.704  1.00  0.00    -0.050 C  
ENDBRANCH  22  28
ENDBRANCH  19  20
ENDBRANCH  16  18
ENDBRANCH  15  16
ENDBRANCH  13  15
ENDBRANCH  12  13
ENDBRANCH   5  11
ENDBRANCH   2   3
TORSDOF 8
ENDMDL
MODEL      304
REMARK 921   NORMALIZED FREE ENERGY PREDICTED BY IDOCK:    5.82 KCAL/MOL
REMARK 922        TOTAL FREE ENERGY PREDICTED BY IDOCK:    6.99 KCAL/MOL
REMARK 923 INTER-LIGAND FREE ENERGY PREDICTED BY IDOCK:    4.25 KCAL/MOL
REMARK 924 INTRA-LIGAND FREE ENERGY PREDICTED BY IDOCK:    2.74 KCAL/MOL
REMARK 927      BINDING AFFINITY PREDICTED BY RF-SCORE:    0.00 PKD
ROOT
HETATM    1  C   UNL     1     -11.462   3.918  63.438  1.00  0.00     0.871 C  
HETATM    2  O   UNL     1     -10.455   3.805  64.440  1.00  0.00    -0.238 OA 
ENDROOT
BRANCH   2   3
HETATM    3  C   UNL     1     -10.140   4.976  65.083  1.00  0.00     0.237 A  
HETATM    4  C   UNL     1      -9.343   5.973  64.510  1.00  0.00     0.982 A  
HETATM    5  C   UNL     1      -9.012   7.136  65.218  1.00  0.00     0.262 A  
HETATM    6  C   UNL     1      -9.570   7.332  66.487  1.00  0.00    -0.211 A  
HETATM    7  H   UNL     1     -11.836   4.369  67.787  1.00  0.00     0.000 HD 
HETATM    8  O   UNL     1     -11.469   4.225  66.922  1.00  0.00     3.048 OA 
HETATM    9  C   UNL     1     -10.404   6.363  67.055  1.00  0.00    -0.307 A  
HETATM   10  C   UNL     1     -10.678   5.188  66.355  1.00  0.00    -0.210 A  
BRANCH   5  11
HETATM   11  C   UNL     1      -8.125   8.159  64.645  1.00  0.00    -0.148 C  
HETATM   12  C   UNL     1      -7.247   7.909  63.659  1.00  0.00    -0.090 C  
BRANCH  12  13
HETATM   13  C   UNL     1      -6.359   8.987  63.137  1.00  0.00    -0.090 C  
HETATM   14  O   UNL     1      -5.313   8.721  62.543  1.00  0.00    -0.070 OA 
BRANCH  13  15
HETATM   15  C   UNL     1      -6.795  10.411  63.339  1.00  0.00    -0.033 C  
BRANCH  15  16
HETATM   16  C   UNL     1      -7.379  10.658  64.702  1.00  0.00     0.174 C  
HETATM   17  O   UNL     1      -7.235   9.841  65.611  1.00  0.00    -0.097 OA 
BRANCH  16  18
HETATM   18  C   UNL     1      -8.088  11.953  64.920  1.00  0.00     1.790 C  
HETATM   19  C   UNL     1      -8.453  12.309  66.161  1.00  0.00     0.307 C  
BRANCH  19  20
HETATM   20  C   UNL     1      -9.111  13.574  66.530  1.00  0.00    -0.129 A  
HETATM   21  C   UNL     1      -8.455  14.816  66.458  1.00  0.00     0.024 A  
HETATM   22  C   UNL     1      -9.084  15.981  66.910  1.00  0.00    -0.228 A  
HETATM   23  C   UNL     1     -10.409  13.520  67.062  1.00  0.00    -0.252 A  
HETATM   24  C   UNL     1     -10.377  15.891  67.431  1.00  0.00    -0.288 A  
HETATM   25  H   UNL     1     -11.892  16.949  68.252  1.00  0.00     0.000 HD 
HETATM   26  O   UNL     1     -11.013  17.010  67.898  1.00  0.00    -0.337 OA 
HETATM   27  C   UNL     1     -11.046  14.678  67.507  1.00  0.00    -0.319 A  
BRANCH  22  28
HETATM   28  O   UNL     1      -8.542  17.239  66.910  1.00  0.00    -0.221 OA 
HETATM   29  C   UNL     1      -7.325  17.414  67.623  1.00  0.00    -0.175 C  
ENDBRANCH  22  28
ENDBRANCH  19  20
ENDBRANCH  16  18
ENDBRANCH  15  16
ENDBRANCH  13  15
ENDBRANCH  12  13
ENDBRANCH   5  11
ENDBRANCH   2   3
TORSDOF 8
ENDMDL
MODEL      305
REMARK 921   NORMALIZED FREE ENERGY PREDICTED BY IDOCK:   10.29 KCAL/MOL
REMARK 922        TOTAL FREE ENERGY PREDICTED BY IDOCK:   13.56 KCAL/MOL
REMARK 923 INTER-LIGAND FREE ENERGY PREDICTED BY IDOCK:   13.14 KCAL/MOL
REMARK 924 INTRA-LIGAND FREE ENERGY PREDICTED BY IDOCK:    0.42 KCAL/MOL
REMARK 927      BINDING AFFINITY PREDICTED BY RF-SCORE:    0.00 PKD
ROOT
HETATM    1  C   UNL     1      -9.662  20.702  63.718  1.00  0.00     6.124 C  
HETATM    2  O   UNL     1     -10.038  20.366  65.051  1.00  0.00     0.170 OA 
ENDROOT
BRANCH   2   3
HETATM    3  C   UNL     1     -10.138  19.020  65.303  1.00  0.00     1.036 A  
HETATM    4  C   UNL     1      -9.237  18.325  66.116  1.00  0.00    -0.135 A  
HETATM    5  C   UNL     1      -9.352  16.942  66.314  1.00  0.00    -0.292 A  
HETATM    6  C   UNL     1     -10.447  16.272  65.754  1.00  0.00    -0.379 A  
HETATM    7  H   UNL     1     -12.848  18.531  63.578  1.00  0.00     0.000 HD 
HETATM    8  O   UNL     1     -12.113  19.000  63.957  1.00  0.00     5.927 OA 
HETATM    9  C   UNL     1     -11.380  16.963  64.973  1.00  0.00     0.306 A  
HETATM   10  C   UNL     1     -11.218  18.329  64.746  1.00  0.00     2.369 A  
BRANCH   5  11
HETATM   11  C   UNL     1      -8.373  16.196  67.118  1.00  0.00    -0.225 C  
HETATM   12  C   UNL     1      -7.157  16.673  67.434  1.00  0.00    -0.189 C  
BRANCH  12  13
HETATM   13  C   UNL     1      -6.201  15.856  68.234  1.00  0.00    -0.112 C  
HETATM   14  O   UNL     1      -5.320  16.386  68.912  1.00  0.00    -0.114 OA 
BRANCH  13  15
HETATM   15  C   UNL     1      -6.363  14.362  68.205  1.00  0.00    -0.144 C  
BRANCH  15  16
HETATM   16  C   UNL     1      -5.679  13.674  69.352  1.00  0.00    -0.092 C  
HETATM   17  O   UNL     1      -5.138  14.322  70.248  1.00  0.00    -0.089 OA 
BRANCH  16  18
HETATM   18  C   UNL     1      -5.730  12.183  69.388  1.00  0.00    -0.083 C  
HETATM   19  C   UNL     1      -6.738  11.569  70.027  1.00  0.00     0.099 C  
BRANCH  19  20
HETATM   20  C   UNL     1      -6.943  10.112  70.099  1.00  0.00    -0.157 A  
HETATM   21  C   UNL     1      -8.209   9.536  70.310  1.00  0.00    -0.209 A  
HETATM   22  C   UNL     1      -8.345   8.153  70.470  1.00  0.00    -0.123 A  
HETATM   23  C   UNL     1      -5.816   9.277  70.049  1.00  0.00    -0.035 A  
HETATM   24  C   UNL     1      -7.201   7.352  70.412  1.00  0.00    -0.068 A  
HETATM   25  H   UNL     1      -6.521   5.452  70.543  1.00  0.00     0.000 HD 
HETATM   26  O   UNL     1      -7.299   5.997  70.582  1.00  0.00    -0.080 OA 
HETATM   27  C   UNL     1      -5.943   7.896  70.199  1.00  0.00    -0.022 A  
BRANCH  22  28
HETATM   28  O   UNL     1      -9.516   7.481  70.700  1.00  0.00    -0.164 OA 
HETATM   29  C   UNL     1     -10.152   7.709  71.951  1.00  0.00    -0.178 C  
ENDBRANCH  22  28
ENDBRANCH  19  20
ENDBRANCH  16  18
ENDBRANCH  15  16
ENDBRANCH  13  15
ENDBRANCH  12  13
ENDBRANCH   5  11
ENDBRANCH   2   3
TORSDOF 8
ENDMDL
MODEL      306
REMARK 921   NORMALIZED FREE ENERGY PREDICTED BY IDOCK:   27.26 KCAL/MOL
REMARK 922        TOTAL FREE ENERGY PREDICTED BY IDOCK:   38.47 KCAL/MOL
REMARK 923 INTER-LIGAND FREE ENERGY PREDICTED BY IDOCK:    3.65 KCAL/MOL
REMARK 924 INTRA-LIGAND FREE ENERGY PREDICTED BY IDOCK:   34.82 KCAL/MOL
REMARK 927      BINDING AFFINITY PREDICTED BY RF-SCORE:    0.00 PKD
ROOT
HETATM    1  C   UNL     1     -10.663   7.623  71.794  1.00  0.00    -0.216 C  
HETATM    2  O   UNL     1     -11.327   7.828  70.550  1.00  0.00    -0.274 OA 
ENDROOT
BRANCH   2   3
HETATM    3  C   UNL     1     -10.544   8.356  69.554  1.00  0.00    -0.213 A  
HETATM    4  C   UNL     1     -11.020   9.270  68.609  1.00  0.00    -0.039 A  
HETATM    5  C   UNL     1     -10.196   9.752  67.583  1.00  0.00    -0.261 A  
HETATM    6  C   UNL     1      -8.848   9.372  67.569  1.00  0.00    -0.123 A  
HETATM    7  H   UNL     1      -7.800   6.843  70.416  1.00  0.00     0.000 HD 
HETATM    8  O   UNL     1      -8.715   7.097  70.442  1.00  0.00    -0.147 OA 
HETATM    9  C   UNL     1      -8.347   8.492  68.534  1.00  0.00    -0.123 A  
HETATM   10  C   UNL     1      -9.197   7.982  69.516  1.00  0.00    -0.152 A  
BRANCH   5  11
HETATM   11  C   UNL     1     -10.707  10.666  66.551  1.00  0.00    -0.218 C  
HETATM   12  C   UNL     1     -11.194  10.250  65.369  1.00  0.00     1.174 C  
BRANCH  12  13
HETATM   13  C   UNL     1     -11.676  11.230  64.355  1.00  0.00     0.282 C  
HETATM   14  O   UNL     1     -12.839  11.211  63.950  1.00  0.00     0.678 OA 
BRANCH  13  15
HETATM   15  C   UNL     1     -10.699  12.259  63.858  1.00  0.00    -0.463 C  
BRANCH  15  16
HETATM   16  C   UNL     1     -10.417  13.336  64.867  1.00  0.00    -0.371 C  
HETATM   17  O   UNL     1     -10.376  14.521  64.536  1.00  0.00    -0.273 OA 
BRANCH  16  18
HETATM   18  C   UNL     1     -10.245  12.915  66.289  1.00  0.00    -0.285 C  
HETATM   19  C   UNL     1     -11.149  12.100  66.854  1.00  0.00    -0.348 C  
BRANCH  19  20
HETATM   20  C   UNL     1     -11.079  11.566  68.225  1.00  0.00    -0.295 A  
HETATM   21  C   UNL     1     -12.214  11.099  68.913  1.00  0.00    -0.144 A  
HETATM   22  C   UNL     1     -12.119  10.691  70.248  1.00  0.00    -0.338 A  
HETATM   23  C   UNL     1      -9.848  11.614  68.898  1.00  0.00    -0.057 A  
HETATM   24  C   UNL     1     -10.878  10.750  70.885  1.00  0.00     0.931 A  
HETATM   25  H   UNL     1      -9.912  10.415  72.630  1.00  0.00     0.000 HD 
HETATM   26  O   UNL     1     -10.756  10.374  72.196  1.00  0.00     2.414 OA 
HETATM   27  C   UNL     1      -9.743  11.201  70.226  1.00  0.00     1.858 A  
BRANCH  22  28
HETATM   28  O   UNL     1     -13.153  10.239  71.025  1.00  0.00    -0.377 OA 
HETATM   29  C   UNL     1     -14.095   9.374  70.403  1.00  0.00     1.028 C  
ENDBRANCH  22  28
ENDBRANCH  19  20
ENDBRANCH  16  18
ENDBRANCH  15  16
ENDBRANCH  13  15
ENDBRANCH  12  13
ENDBRANCH   5  11
ENDBRANCH   2   3
TORSDOF 8
ENDMDL
MODEL      307
REMARK 921   NORMALIZED FREE ENERGY PREDICTED BY IDOCK:   27.26 KCAL/MOL
REMARK 922        TOTAL FREE ENERGY PREDICTED BY IDOCK:   38.47 KCAL/MOL
REMARK 923 INTER-LIGAND FREE ENERGY PREDICTED BY IDOCK:   38.48 KCAL/MOL
REMARK 924 INTRA-LIGAND FREE ENERGY PREDICTED BY IDOCK:   -0.02 KCAL/MOL
REMARK 927      BINDING AFFINITY PREDICTED BY RF-SCORE:    0.00 PKD
ROOT
HETATM    1  C   UNL     1      -9.749  20.686  63.605  1.00  0.00     6.843 C  
HETATM    2  O   UNL     1     -10.499  20.458  64.795  1.00  0.00     0.412 OA 
ENDROOT
BRANCH   2   3
HETATM    3  C   UNL     1     -11.001  19.188  64.931  1.00  0.00     1.711 A  
HETATM    4  C   UNL     1     -10.556  18.289  65.904  1.00  0.00    -0.274 A  
HETATM    5  C   UNL     1     -11.068  16.986  65.980  1.00  0.00     0.346 A  
HETATM    6  C   UNL     1     -12.108  16.621  65.117  1.00  0.00     2.017 A  
HETATM    7  H   UNL     1     -13.188  19.410  62.537  1.00  0.00     0.000 HD 
HETATM    8  O   UNL     1     -12.486  19.674  63.121  1.00  0.00    11.656 OA 
HETATM    9  C   UNL     1     -12.593  17.525  64.166  1.00  0.00     8.078 A  
HETATM   10  C   UNL     1     -12.033  18.799  64.072  1.00  0.00     9.561 A  
BRANCH   5  11
HETATM   11  C   UNL     1     -10.561  16.017  66.963  1.00  0.00    -0.302 C  
HETATM   12  C   UNL     1      -9.380  16.147  67.590  1.00  0.00    -0.214 C  
BRANCH  12  13
HETATM   13  C   UNL     1      -8.912  15.116  68.560  1.00  0.00    -0.186 C  
HETATM   14  O   UNL     1      -8.856  15.354  69.767  1.00  0.00    -0.225 OA 
BRANCH  13  15
HETATM   15  C   UNL     1      -8.533  13.767  68.017  1.00  0.00    -0.176 C  
BRANCH  15  16
HETATM   16  C   UNL     1      -7.098  13.408  68.286  1.00  0.00    -0.109 C  
HETATM   17  O   UNL     1      -6.382  14.133  68.977  1.00  0.00    -0.088 OA 
BRANCH  16  18
HETATM   18  C   UNL     1      -6.597  12.117  67.729  1.00  0.00    -0.100 C  
HETATM   19  C   UNL     1      -6.912  10.965  68.340  1.00  0.00    -0.070 C  
BRANCH  19  20
HETATM   20  C   UNL     1      -6.533   9.620  67.877  1.00  0.00    -0.061 A  
HETATM   21  C   UNL     1      -6.297   9.325  66.522  1.00  0.00    -0.066 A  
HETATM   22  C   UNL     1      -6.034   8.013  66.113  1.00  0.00    -0.041 A  
HETATM   23  C   UNL     1      -6.500   8.575  68.815  1.00  0.00    -0.053 A  
HETATM   24  C   UNL     1      -6.007   6.999  67.074  1.00  0.00    -0.026 A  
HETATM   25  H   UNL     1      -5.752   5.014  67.356  1.00  0.00     0.000 HD 
HETATM   26  O   UNL     1      -5.770   5.703  66.703  1.00  0.00    -0.016 OA 
HETATM   27  C   UNL     1      -6.231   7.266  68.417  1.00  0.00    -0.035 A  
BRANCH  22  28
HETATM   28  O   UNL     1      -5.809   7.602  64.826  1.00  0.00    -0.037 OA 
HETATM   29  C   UNL     1      -6.935   7.563  63.958  1.00  0.00    -0.058 C  
ENDBRANCH  22  28
ENDBRANCH  19  20
ENDBRANCH  16  18
ENDBRANCH  15  16
ENDBRANCH  13  15
ENDBRANCH  12  13
ENDBRANCH   5  11
ENDBRANCH   2   3
TORSDOF 8
ENDMDL
