MODEL        1
REMARK 921   NORMALIZED FREE ENERGY PREDICTED BY IDOCK:   -7.19 KCAL/MOL
REMARK 922        TOTAL FREE ENERGY PREDICTED BY IDOCK:   -7.85 KCAL/MOL
REMARK 923 INTER-LIGAND FREE ENERGY PREDICTED BY IDOCK:   -7.61 KCAL/MOL
REMARK 924 INTRA-LIGAND FREE ENERGY PREDICTED BY IDOCK:   -0.24 KCAL/MOL
REMARK 927      BINDING AFFINITY PREDICTED BY RF-SCORE:    0.00 PKD
ROOT
HETATM    1  C   UNL     1     -12.056  12.990  67.160  1.00  0.00    -0.325 C  
HETATM    2  C   UNL     1     -11.094  13.259  65.981  1.00  0.00    -0.283 C  
HETATM    3  N   UNL     1     -11.616  12.318  64.980  1.00  0.00    -0.342 NA 
HETATM    4  C   UNL     1      -9.671  12.739  66.258  1.00  0.00    -0.262 C  
HETATM    5  C   UNL     1     -12.177  12.776  63.928  1.00  0.00    -0.463 C  
HETATM    6  H   UNL     1     -11.530  11.312  65.124  1.00  0.00     0.000 HD 
HETATM    7  N   UNL     1     -12.785  11.905  63.093  1.00  0.00    -0.915 NA 
HETATM    8  N   UNL     1     -12.209  14.078  63.579  1.00  0.00    -0.647 NA 
HETATM    9  H1  UNL     1     -13.233  12.271  62.252  1.00  0.00     0.000 HD 
HETATM   10  C   UNL     1     -11.665  14.947  64.373  1.00  0.00    -0.328 C  
HETATM   11  H2  UNL     1     -12.796  10.906  63.297  1.00  0.00     0.000 HD 
HETATM   12  N   UNL     1     -11.059  14.697  65.588  1.00  0.00    -0.328 NA 
HETATM   13  N   UNL     1     -11.777  16.232  63.937  1.00  0.00    -1.518 NA 
HETATM   14  H1  UNL     1     -11.350  16.915  64.562  1.00  0.00     0.000 HD 
HETATM   15  H2  UNL     1     -12.245  16.488  63.068  1.00  0.00     0.000 HD 
ENDROOT
BRANCH  12  16
HETATM   16  C   UNL     1     -10.355  15.665  66.356  1.00  0.00    -0.296 A  
HETATM   17  C   UNL     1     -10.907  16.338  67.460  1.00  0.00    -0.268 A  
HETATM   18  C   UNL     1     -10.255  17.390  68.126  1.00  0.00    -0.350 A  
HETATM   19  C   UNL     1      -9.000  17.801  67.709  1.00  0.00    -0.249 A  
HETATM   20  C   UNL     1      -8.379  17.127  66.670  1.00  0.00    -0.286 A  
HETATM   21 CL   UNL     1      -8.235  19.136  68.468  1.00  0.00    -0.388 Cl 
HETATM   22  C   UNL     1      -9.042  16.065  66.026  1.00  0.00    -0.361 A  
ENDBRANCH  12  16
TORSDOF 1
ENDMDL
MODEL        2
REMARK 921   NORMALIZED FREE ENERGY PREDICTED BY IDOCK:   -7.16 KCAL/MOL
REMARK 922        TOTAL FREE ENERGY PREDICTED BY IDOCK:   -7.81 KCAL/MOL
REMARK 923 INTER-LIGAND FREE ENERGY PREDICTED BY IDOCK:   -7.59 KCAL/MOL
REMARK 924 INTRA-LIGAND FREE ENERGY PREDICTED BY IDOCK:   -0.23 KCAL/MOL
REMARK 927      BINDING AFFINITY PREDICTED BY RF-SCORE:    0.00 PKD
ROOT
HETATM    1  C   UNL     1     -12.155  14.071  67.802  1.00  0.00    -0.325 C  
HETATM    2  C   UNL     1     -11.208  13.920  66.590  1.00  0.00    -0.320 C  
HETATM    3  N   UNL     1     -11.873  12.836  65.854  1.00  0.00    -0.416 NA 
HETATM    4  C   UNL     1      -9.851  13.308  66.984  1.00  0.00    -0.242 C  
HETATM    5  C   UNL     1     -12.409  13.090  64.723  1.00  0.00    -0.436 C  
HETATM    6  H   UNL     1     -11.907  11.893  66.241  1.00  0.00     0.000 HD 
HETATM    7  N   UNL     1     -13.146  12.124  64.129  1.00  0.00    -0.734 NA 
HETATM    8  N   UNL     1     -12.295  14.260  64.063  1.00  0.00    -0.727 NA 
HETATM    9  H1  UNL     1     -13.574  12.327  63.225  1.00  0.00     0.000 HD 
HETATM   10  C   UNL     1     -11.623  15.221  64.617  1.00  0.00    -0.333 C  
HETATM   11  H2  UNL     1     -13.272  11.215  64.574  1.00  0.00     0.000 HD 
HETATM   12  N   UNL     1     -11.011  15.201  65.854  1.00  0.00    -0.338 NA 
HETATM   13  N   UNL     1     -11.592  16.364  63.878  1.00  0.00    -1.602 NA 
HETATM   14  H1  UNL     1     -11.063  17.119  64.314  1.00  0.00     0.000 HD 
HETATM   15  H2  UNL     1     -12.053  16.456  62.973  1.00  0.00     0.000 HD 
ENDROOT
BRANCH  12  16
HETATM   16  C   UNL     1     -10.169  16.231  66.359  1.00  0.00    -0.313 A  
HETATM   17  C   UNL     1     -10.613  17.253  67.216  1.00  0.00    -0.283 A  
HETATM   18  C   UNL     1      -9.810  18.342  67.596  1.00  0.00    -0.328 A  
HETATM   19  C   UNL     1      -8.508  18.437  67.133  1.00  0.00    -0.254 A  
HETATM   20  C   UNL     1      -7.996  17.422  66.342  1.00  0.00    -0.325 A  
HETATM   21 CL   UNL     1      -7.551  19.804  67.532  1.00  0.00    -0.301 Cl 
HETATM   22  C   UNL     1      -8.812  16.332  65.985  1.00  0.00    -0.308 A  
ENDBRANCH  12  16
TORSDOF 1
ENDMDL
MODEL        3
REMARK 921   NORMALIZED FREE ENERGY PREDICTED BY IDOCK:   -7.15 KCAL/MOL
REMARK 922        TOTAL FREE ENERGY PREDICTED BY IDOCK:   -7.80 KCAL/MOL
REMARK 923 INTER-LIGAND FREE ENERGY PREDICTED BY IDOCK:   -7.56 KCAL/MOL
REMARK 924 INTRA-LIGAND FREE ENERGY PREDICTED BY IDOCK:   -0.24 KCAL/MOL
REMARK 927      BINDING AFFINITY PREDICTED BY RF-SCORE:    0.00 PKD
ROOT
HETATM    1  C   UNL     1     -12.019  13.676  67.637  1.00  0.00    -0.386 C  
HETATM    2  C   UNL     1     -11.112  13.681  66.386  1.00  0.00    -0.303 C  
HETATM    3  N   UNL     1     -11.787  12.677  65.552  1.00  0.00    -0.409 NA 
HETATM    4  C   UNL     1      -9.734  13.051  66.662  1.00  0.00    -0.256 C  
HETATM    5  C   UNL     1     -12.365  13.049  64.475  1.00  0.00    -0.398 C  
HETATM    6  H   UNL     1     -11.795  11.695  65.829  1.00  0.00     0.000 HD 
HETATM    7  N   UNL     1     -13.109  12.146  63.799  1.00  0.00    -0.755 NA 
HETATM    8  N   UNL     1     -12.289  14.289  63.951  1.00  0.00    -0.757 NA 
HETATM    9  H1  UNL     1     -13.571  12.443  62.939  1.00  0.00     0.000 HD 
HETATM   10  C   UNL     1     -11.611  15.192  64.589  1.00  0.00    -0.357 C  
HETATM   11  H2  UNL     1     -13.208  11.190  64.140  1.00  0.00     0.000 HD 
HETATM   12  N   UNL     1     -10.957  15.041  65.796  1.00  0.00    -0.342 NA 
HETATM   13  N   UNL     1     -11.621  16.412  63.986  1.00  0.00    -1.542 NA 
HETATM   14  H1  UNL     1     -11.088  17.122  64.488  1.00  0.00     0.000 HD 
HETATM   15  H2  UNL     1     -12.115  16.599  63.114  1.00  0.00     0.000 HD 
ENDROOT
BRANCH  12  16
HETATM   16  C   UNL     1     -10.112  16.021  66.387  1.00  0.00    -0.300 A  
HETATM   17  C   UNL     1      -8.785  16.252  65.987  1.00  0.00    -0.285 A  
HETATM   18  C   UNL     1      -7.916  17.123  66.667  1.00  0.00    -0.300 A  
HETATM   19  C   UNL     1      -8.361  17.814  67.782  1.00  0.00    -0.235 A  
HETATM   20  C   UNL     1      -9.681  17.678  68.179  1.00  0.00    -0.310 A  
HETATM   21 CL   UNL     1      -7.281  18.817  68.660  1.00  0.00    -0.317 Cl 
HETATM   22  C   UNL     1     -10.540  16.813  67.475  1.00  0.00    -0.309 A  
ENDBRANCH  12  16
TORSDOF 1
ENDMDL
MODEL        4
REMARK 921   NORMALIZED FREE ENERGY PREDICTED BY IDOCK:   -6.45 KCAL/MOL
REMARK 922        TOTAL FREE ENERGY PREDICTED BY IDOCK:   -7.06 KCAL/MOL
REMARK 923 INTER-LIGAND FREE ENERGY PREDICTED BY IDOCK:   -6.96 KCAL/MOL
REMARK 924 INTRA-LIGAND FREE ENERGY PREDICTED BY IDOCK:   -0.10 KCAL/MOL
REMARK 927      BINDING AFFINITY PREDICTED BY RF-SCORE:    0.00 PKD
ROOT
HETATM    1  C   UNL     1     -11.837  15.226  68.305  1.00  0.00    -0.251 C  
HETATM    2  C   UNL     1     -10.916  14.786  67.144  1.00  0.00    -0.320 C  
HETATM    3  N   UNL     1     -11.640  13.606  66.650  1.00  0.00    -0.346 NA 
HETATM    4  C   UNL     1      -9.581  14.205  67.646  1.00  0.00    -0.216 C  
HETATM    5  C   UNL     1     -12.182  13.649  65.494  1.00  0.00    -0.443 C  
HETATM    6  H   UNL     1     -11.709  12.765  67.222  1.00  0.00     0.000 HD 
HETATM    7  N   UNL     1     -12.971  12.618  65.115  1.00  0.00    -0.713 NA 
HETATM    8  N   UNL     1     -12.026  14.653  64.607  1.00  0.00    -0.452 NA 
HETATM    9  H1  UNL     1     -13.403  12.652  64.191  1.00  0.00     0.000 HD 
HETATM   10  C   UNL     1     -11.303  15.674  64.948  1.00  0.00    -0.315 C  
HETATM   11  H2  UNL     1     -13.130  11.826  65.737  1.00  0.00     0.000 HD 
HETATM   12  N   UNL     1     -10.674  15.879  66.160  1.00  0.00    -0.301 NA 
HETATM   13  N   UNL     1     -11.233  16.639  63.990  1.00  0.00    -1.432 NA 
HETATM   14  H1  UNL     1     -10.665  17.443  64.259  1.00  0.00     0.000 HD 
HETATM   15  H2  UNL     1     -11.704  16.566  63.089  1.00  0.00     0.000 HD 
ENDROOT
BRANCH  12  16
HETATM   16  C   UNL     1      -9.779  16.950  66.437  1.00  0.00    -0.284 A  
HETATM   17  C   UNL     1      -8.381  16.842  66.349  1.00  0.00    -0.333 A  
HETATM   18  C   UNL     1      -7.503  17.861  66.758  1.00  0.00    -0.239 A  
HETATM   19  C   UNL     1      -8.006  19.047  67.264  1.00  0.00    -0.254 A  
HETATM   20  C   UNL     1      -9.378  19.235  67.309  1.00  0.00    -0.366 A  
HETATM   21 CL   UNL     1      -6.937  20.261  67.837  1.00  0.00    -0.317 Cl 
HETATM   22  C   UNL     1     -10.241  18.209  66.880  1.00  0.00    -0.380 A  
ENDBRANCH  12  16
TORSDOF 1
ENDMDL
MODEL        5
REMARK 921   NORMALIZED FREE ENERGY PREDICTED BY IDOCK:   -6.41 KCAL/MOL
REMARK 922        TOTAL FREE ENERGY PREDICTED BY IDOCK:   -7.02 KCAL/MOL
REMARK 923 INTER-LIGAND FREE ENERGY PREDICTED BY IDOCK:   -6.80 KCAL/MOL
REMARK 924 INTRA-LIGAND FREE ENERGY PREDICTED BY IDOCK:   -0.22 KCAL/MOL
REMARK 927      BINDING AFFINITY PREDICTED BY RF-SCORE:    0.00 PKD
ROOT
HETATM    1  C   UNL     1      -8.726  14.759  66.805  1.00  0.00    -0.255 C  
HETATM    2  C   UNL     1     -10.252  14.906  66.994  1.00  0.00    -0.256 C  
HETATM    3  N   UNL     1     -10.568  15.881  65.941  1.00  0.00    -0.336 NA 
HETATM    4  C   UNL     1     -10.610  15.650  68.294  1.00  0.00    -0.262 C  
HETATM    5  C   UNL     1     -11.267  15.510  64.939  1.00  0.00    -0.389 C  
HETATM    6  H   UNL     1     -10.233  16.842  66.010  1.00  0.00     0.000 HD 
HETATM    7  N   UNL     1     -11.421  16.371  63.908  1.00  0.00    -1.618 NA 
HETATM    8  N   UNL     1     -11.875  14.312  64.827  1.00  0.00    -0.406 NA 
HETATM    9  H1  UNL     1     -11.980  16.075  63.108  1.00  0.00     0.000 HD 
HETATM   10  C   UNL     1     -11.722  13.447  65.781  1.00  0.00    -0.349 C  
HETATM   11  H2  UNL     1     -10.989  17.294  63.930  1.00  0.00     0.000 HD 
HETATM   12  N   UNL     1     -10.966  13.599  66.926  1.00  0.00    -0.287 NA 
HETATM   13  N   UNL     1     -12.357  12.264  65.554  1.00  0.00    -0.566 NA 
HETATM   14  H1  UNL     1     -12.236  11.584  66.305  1.00  0.00     0.000 HD 
HETATM   15  H2  UNL     1     -12.901  12.075  64.713  1.00  0.00     0.000 HD 
ENDROOT
BRANCH  12  16
HETATM   16  C   UNL     1     -10.941  12.676  68.008  1.00  0.00    -0.235 A  
HETATM   17  C   UNL     1      -9.983  11.656  68.143  1.00  0.00    -0.198 A  
HETATM   18  C   UNL     1     -10.048  10.665  69.138  1.00  0.00    -0.234 A  
HETATM   19  C   UNL     1     -11.085  10.672  70.055  1.00  0.00    -0.289 A  
HETATM   20  C   UNL     1     -12.018  11.695  70.013  1.00  0.00    -0.429 A  
HETATM   21 CL   UNL     1     -11.211   9.420  71.222  1.00  0.00    -0.408 Cl 
HETATM   22  C   UNL     1     -11.927  12.687  69.018  1.00  0.00    -0.282 A  
ENDBRANCH  12  16
TORSDOF 1
ENDMDL
MODEL        6
REMARK 921   NORMALIZED FREE ENERGY PREDICTED BY IDOCK:   -6.37 KCAL/MOL
REMARK 922        TOTAL FREE ENERGY PREDICTED BY IDOCK:   -6.98 KCAL/MOL
REMARK 923 INTER-LIGAND FREE ENERGY PREDICTED BY IDOCK:   -6.81 KCAL/MOL
REMARK 924 INTRA-LIGAND FREE ENERGY PREDICTED BY IDOCK:   -0.17 KCAL/MOL
REMARK 927      BINDING AFFINITY PREDICTED BY RF-SCORE:    0.00 PKD
ROOT
HETATM    1  C   UNL     1     -11.036  10.819  67.266  1.00  0.00    -0.359 C  
HETATM    2  C   UNL     1     -10.679  12.122  66.517  1.00  0.00    -0.255 C  
HETATM    3  N   UNL     1     -10.495  11.613  65.151  1.00  0.00    -0.268 NA 
HETATM    4  C   UNL     1      -9.282  12.649  66.896  1.00  0.00    -0.216 C  
HETATM    5  C   UNL     1     -11.328  11.953  64.243  1.00  0.00    -0.353 C  
HETATM    6  H   UNL     1      -9.713  10.998  64.930  1.00  0.00     0.000 HD 
HETATM    7  N   UNL     1     -11.236  11.359  63.032  1.00  0.00    -0.844 NA 
HETATM    8  N   UNL     1     -12.303  12.870  64.399  1.00  0.00    -0.518 NA 
HETATM    9  H1  UNL     1     -11.901  11.631  62.307  1.00  0.00     0.000 HD 
HETATM   10  C   UNL     1     -12.443  13.436  65.558  1.00  0.00    -0.483 C  
HETATM   11  H2  UNL     1     -10.519  10.658  62.847  1.00  0.00     0.000 HD 
HETATM   12  N   UNL     1     -11.707  13.186  66.698  1.00  0.00    -0.356 NA 
HETATM   13  N   UNL     1     -13.473  14.326  65.611  1.00  0.00    -0.546 NA 
HETATM   14  H1  UNL     1     -13.582  14.770  66.523  1.00  0.00     0.000 HD 
HETATM   15  H2  UNL     1     -14.077  14.528  64.816  1.00  0.00     0.000 HD 
ENDROOT
BRANCH  12  16
HETATM   16  C   UNL     1     -11.807  13.931  67.906  1.00  0.00    -0.378 A  
HETATM   17  C   UNL     1     -11.413  15.275  68.030  1.00  0.00    -0.351 A  
HETATM   18  C   UNL     1     -11.385  15.959  69.258  1.00  0.00    -0.355 A  
HETATM   19  C   UNL     1     -11.772  15.312  70.420  1.00  0.00    -0.310 A  
HETATM   20  C   UNL     1     -12.236  14.009  70.346  1.00  0.00    -0.433 A  
HETATM   21 CL   UNL     1     -11.665  16.120  71.930  1.00  0.00    -0.579 Cl 
HETATM   22  C   UNL     1     -12.271  13.346  69.105  1.00  0.00    -0.207 A  
ENDBRANCH  12  16
TORSDOF 1
ENDMDL
MODEL        7
REMARK 921   NORMALIZED FREE ENERGY PREDICTED BY IDOCK:   -6.35 KCAL/MOL
REMARK 922        TOTAL FREE ENERGY PREDICTED BY IDOCK:   -6.95 KCAL/MOL
REMARK 923 INTER-LIGAND FREE ENERGY PREDICTED BY IDOCK:   -6.71 KCAL/MOL
REMARK 924 INTRA-LIGAND FREE ENERGY PREDICTED BY IDOCK:   -0.24 KCAL/MOL
REMARK 927      BINDING AFFINITY PREDICTED BY RF-SCORE:    0.00 PKD
ROOT
HETATM    1  C   UNL     1      -8.316  16.939  67.293  1.00  0.00    -0.204 C  
HETATM    2  C   UNL     1      -9.850  17.119  67.248  1.00  0.00    -0.265 C  
HETATM    3  N   UNL     1      -9.951  18.574  67.070  1.00  0.00    -0.327 NA 
HETATM    4  C   UNL     1     -10.506  16.876  68.620  1.00  0.00    -0.352 C  
HETATM    5  C   UNL     1     -10.402  19.036  65.968  1.00  0.00    -0.446 C  
HETATM    6  H   UNL     1      -9.666  19.207  67.817  1.00  0.00     0.000 HD 
HETATM    7  N   UNL     1     -10.348  20.371  65.761  1.00  0.00    -0.426 NA 
HETATM    8  N   UNL     1     -10.937  18.288  64.982  1.00  0.00    -0.476 NA 
HETATM    9  H1  UNL     1     -10.709  20.740  64.880  1.00  0.00     0.000 HD 
HETATM   10  C   UNL     1     -10.975  17.001  65.131  1.00  0.00    -0.010 C  
HETATM   11  H2  UNL     1      -9.957  20.994  66.467  1.00  0.00     0.000 HD 
HETATM   12  N   UNL     1     -10.494  16.274  66.202  1.00  0.00    -0.329 NA 
HETATM   13  N   UNL     1     -11.511  16.342  64.067  1.00  0.00    -1.573 NA 
HETATM   14  H1  UNL     1     -11.541  15.329  64.185  1.00  0.00     0.000 HD 
HETATM   15  H2  UNL     1     -11.851  16.816  63.231  1.00  0.00     0.000 HD 
ENDROOT
BRANCH  12  16
HETATM   16  C   UNL     1     -10.684  14.876  66.382  1.00  0.00    -0.316 A  
HETATM   17  C   UNL     1     -11.861  14.307  66.898  1.00  0.00    -0.458 A  
HETATM   18  C   UNL     1     -11.987  12.941  67.202  1.00  0.00    -0.374 A  
HETATM   19  C   UNL     1     -10.923  12.082  66.983  1.00  0.00    -0.274 A  
HETATM   20  C   UNL     1      -9.762  12.576  66.410  1.00  0.00    -0.253 A  
HETATM   21 CL   UNL     1     -11.047  10.429  67.426  1.00  0.00    -0.342 Cl 
HETATM   22  C   UNL     1      -9.662  13.944  66.098  1.00  0.00    -0.289 A  
ENDBRANCH  12  16
TORSDOF 1
ENDMDL
MODEL        8
REMARK 921   NORMALIZED FREE ENERGY PREDICTED BY IDOCK:   -6.33 KCAL/MOL
REMARK 922        TOTAL FREE ENERGY PREDICTED BY IDOCK:   -6.94 KCAL/MOL
REMARK 923 INTER-LIGAND FREE ENERGY PREDICTED BY IDOCK:   -6.70 KCAL/MOL
REMARK 924 INTRA-LIGAND FREE ENERGY PREDICTED BY IDOCK:   -0.24 KCAL/MOL
REMARK 927      BINDING AFFINITY PREDICTED BY RF-SCORE:    0.00 PKD
ROOT
HETATM    1  C   UNL     1     -13.157  13.362  65.409  1.00  0.00    -0.050 C  
HETATM    2  C   UNL     1     -11.843  13.425  64.598  1.00  0.00    -0.391 C  
HETATM    3  N   UNL     1     -11.914  14.793  64.064  1.00  0.00    -0.838 NA 
HETATM    4  C   UNL     1     -11.893  12.543  63.337  1.00  0.00    -0.587 C  
HETATM    5  C   UNL     1     -11.076  15.665  64.474  1.00  0.00    -0.286 C  
HETATM    6  H   UNL     1     -12.624  15.042  63.375  1.00  0.00     0.000 HD 
HETATM    7  N   UNL     1     -11.247  16.950  64.092  1.00  0.00    -1.224 NA 
HETATM    8  N   UNL     1     -10.017  15.401  65.266  1.00  0.00    -0.312 NA 
HETATM    9  H1  UNL     1     -10.576  17.647  64.418  1.00  0.00     0.000 HD 
HETATM   10  C   UNL     1      -9.840  14.185  65.680  1.00  0.00    -0.249 C  
HETATM   11  H2  UNL     1     -12.026  17.217  63.491  1.00  0.00     0.000 HD 
HETATM   12  N   UNL     1     -10.645  13.094  65.421  1.00  0.00    -0.292 NA 
HETATM   13  N   UNL     1      -8.758  14.036  66.493  1.00  0.00    -0.453 NA 
HETATM   14  H1  UNL     1      -8.619  13.079  66.819  1.00  0.00     0.000 HD 
HETATM   15  H2  UNL     1      -8.145  14.807  66.753  1.00  0.00     0.000 HD 
ENDROOT
BRANCH  12  16
HETATM   16  C   UNL     1     -10.334  11.753  65.783  1.00  0.00    -0.253 A  
HETATM   17  C   UNL     1      -9.487  10.919  65.033  1.00  0.00    -0.274 A  
HETATM   18  C   UNL     1      -9.297   9.556  65.322  1.00  0.00    -0.317 A  
HETATM   19  C   UNL     1      -9.949   8.979  66.398  1.00  0.00    -0.300 A  
HETATM   20  C   UNL     1     -10.741   9.771  67.213  1.00  0.00    -0.296 A  
HETATM   21 CL   UNL     1      -9.780   7.299  66.706  1.00  0.00    -0.246 Cl 
HETATM   22  C   UNL     1     -10.907  11.137  66.916  1.00  0.00    -0.333 A  
ENDBRANCH  12  16
TORSDOF 1
ENDMDL
MODEL        9
REMARK 921   NORMALIZED FREE ENERGY PREDICTED BY IDOCK:   -6.23 KCAL/MOL
REMARK 922        TOTAL FREE ENERGY PREDICTED BY IDOCK:   -6.83 KCAL/MOL
REMARK 923 INTER-LIGAND FREE ENERGY PREDICTED BY IDOCK:   -6.63 KCAL/MOL
REMARK 924 INTRA-LIGAND FREE ENERGY PREDICTED BY IDOCK:   -0.20 KCAL/MOL
REMARK 927      BINDING AFFINITY PREDICTED BY RF-SCORE:    0.00 PKD
ROOT
HETATM    1  C   UNL     1     -12.732  12.592  64.791  1.00  0.00    -0.460 C  
HETATM    2  C   UNL     1     -11.313  13.147  65.048  1.00  0.00    -0.299 C  
HETATM    3  N   UNL     1     -11.307  14.313  64.153  1.00  0.00    -0.608 NA 
HETATM    4  C   UNL     1     -10.216  12.238  64.462  1.00  0.00    -0.322 C  
HETATM    5  C   UNL     1     -11.276  15.485  64.660  1.00  0.00    -0.371 C  
HETATM    6  H   UNL     1     -11.326  14.188  63.142  1.00  0.00     0.000 HD 
HETATM    7  N   UNL     1     -11.423  16.546  63.835  1.00  0.00    -1.599 NA 
HETATM    8  N   UNL     1     -11.103  15.752  65.970  1.00  0.00    -0.164 NA 
HETATM    9  H1  UNL     1     -11.398  17.482  64.240  1.00  0.00     0.000 HD 
HETATM   10  C   UNL     1     -10.991  14.759  66.796  1.00  0.00    -0.327 C  
HETATM   11  H2  UNL     1     -11.557  16.414  62.833  1.00  0.00     0.000 HD 
HETATM   12  N   UNL     1     -11.056  13.414  66.492  1.00  0.00    -0.294 NA 
HETATM   13  N   UNL     1     -10.846  15.141  68.095  1.00  0.00    -0.258 NA 
HETATM   14  H1  UNL     1     -10.758  14.359  68.744  1.00  0.00     0.000 HD 
HETATM   15  H2  UNL     1     -10.827  16.116  68.391  1.00  0.00     0.000 HD 
ENDROOT
BRANCH  12  16
HETATM   16  C   UNL     1     -10.789  12.361  67.411  1.00  0.00    -0.238 A  
HETATM   17  C   UNL     1     -11.778  11.737  68.191  1.00  0.00    -0.377 A  
HETATM   18  C   UNL     1     -11.487  10.797  69.195  1.00  0.00    -0.368 A  
HETATM   19  C   UNL     1     -10.174  10.435  69.444  1.00  0.00    -0.234 A  
HETATM   20  C   UNL     1      -9.165  10.967  68.658  1.00  0.00    -0.187 A  
HETATM   21 CL   UNL     1      -9.808   9.347  70.720  1.00  0.00    -0.346 Cl 
HETATM   22  C   UNL     1      -9.478  11.895  67.647  1.00  0.00    -0.182 A  
ENDBRANCH  12  16
TORSDOF 1
ENDMDL
MODEL       10
REMARK 921   NORMALIZED FREE ENERGY PREDICTED BY IDOCK:   -6.05 KCAL/MOL
REMARK 922        TOTAL FREE ENERGY PREDICTED BY IDOCK:   -6.64 KCAL/MOL
REMARK 923 INTER-LIGAND FREE ENERGY PREDICTED BY IDOCK:   -6.40 KCAL/MOL
REMARK 924 INTRA-LIGAND FREE ENERGY PREDICTED BY IDOCK:   -0.24 KCAL/MOL
REMARK 927      BINDING AFFINITY PREDICTED BY RF-SCORE:    0.00 PKD
ROOT
HETATM    1  C   UNL     1     -12.653  12.662  65.001  1.00  0.00    -0.504 C  
HETATM    2  C   UNL     1     -11.224  13.231  65.156  1.00  0.00    -0.302 C  
HETATM    3  N   UNL     1     -11.296  14.401  64.269  1.00  0.00    -0.619 NA 
HETATM    4  C   UNL     1     -10.164  12.336  64.488  1.00  0.00    -0.322 C  
HETATM    5  C   UNL     1     -11.240  15.571  64.777  1.00  0.00    -0.390 C  
HETATM    6  H   UNL     1     -11.388  14.279  63.261  1.00  0.00     0.000 HD 
HETATM    7  N   UNL     1     -11.458  16.634  63.970  1.00  0.00    -1.551 NA 
HETATM    8  N   UNL     1     -10.974  15.835  66.073  1.00  0.00    -0.237 NA 
HETATM    9  H1  UNL     1     -11.413  17.569  64.376  1.00  0.00     0.000 HD 
HETATM   10  C   UNL     1     -10.792  14.840  66.884  1.00  0.00    -0.316 C  
HETATM   11  H2  UNL     1     -11.663  16.504  62.980  1.00  0.00     0.000 HD 
HETATM   12  N   UNL     1     -10.866  13.496  66.579  1.00  0.00    -0.282 NA 
HETATM   13  N   UNL     1     -10.557  15.219  68.170  1.00  0.00    -0.249 NA 
HETATM   14  H1  UNL     1     -10.413  14.436  68.808  1.00  0.00     0.000 HD 
HETATM   15  H2  UNL     1     -10.526  16.193  68.469  1.00  0.00     0.000 HD 
ENDROOT
BRANCH  12  16
HETATM   16  C   UNL     1     -10.522  12.442  67.472  1.00  0.00    -0.215 A  
HETATM   17  C   UNL     1      -9.205  11.999  67.686  1.00  0.00    -0.182 A  
HETATM   18  C   UNL     1      -8.890  10.870  68.461  1.00  0.00    -0.153 A  
HETATM   19  C   UNL     1      -9.900  10.144  69.069  1.00  0.00    -0.205 A  
HETATM   20  C   UNL     1     -11.211  10.576  68.949  1.00  0.00    -0.323 A  
HETATM   21 CL   UNL     1      -9.526   8.720  69.951  1.00  0.00    -0.166 Cl 
HETATM   22  C   UNL     1     -11.504  11.719  68.181  1.00  0.00    -0.382 A  
ENDBRANCH  12  16
TORSDOF 1
ENDMDL
MODEL       11
REMARK 921   NORMALIZED FREE ENERGY PREDICTED BY IDOCK:   -6.04 KCAL/MOL
REMARK 922        TOTAL FREE ENERGY PREDICTED BY IDOCK:   -6.63 KCAL/MOL
REMARK 923 INTER-LIGAND FREE ENERGY PREDICTED BY IDOCK:   -6.39 KCAL/MOL
REMARK 924 INTRA-LIGAND FREE ENERGY PREDICTED BY IDOCK:   -0.24 KCAL/MOL
REMARK 927      BINDING AFFINITY PREDICTED BY RF-SCORE:    0.00 PKD
ROOT
HETATM    1  C   UNL     1     -10.396  19.592  68.215  1.00  0.00    -0.524 C  
HETATM    2  C   UNL     1      -9.850  19.385  66.784  1.00  0.00    -0.362 C  
HETATM    3  N   UNL     1      -8.924  20.521  66.676  1.00  0.00    -0.568 NA 
HETATM    4  C   UNL     1     -10.910  19.679  65.707  1.00  0.00    -0.405 C  
HETATM    5  C   UNL     1      -7.669  20.297  66.611  1.00  0.00    -0.266 C  
HETATM    6  H   UNL     1      -9.280  21.476  66.651  1.00  0.00     0.000 HD 
HETATM    7  N   UNL     1      -6.824  21.351  66.665  1.00  0.00    -0.773 NA 
HETATM    8  N   UNL     1      -7.111  19.075  66.490  1.00  0.00    -0.211 NA 
HETATM    9  H1  UNL     1      -5.820  21.171  66.613  1.00  0.00     0.000 HD 
HETATM   10  C   UNL     1      -7.889  18.038  66.469  1.00  0.00    -0.260 C  
HETATM   11  H2  UNL     1      -7.180  22.302  66.755  1.00  0.00     0.000 HD 
HETATM   12  N   UNL     1      -9.264  18.028  66.586  1.00  0.00    -0.277 NA 
HETATM   13  N   UNL     1      -7.221  16.855  66.369  1.00  0.00    -0.259 NA 
HETATM   14  H1  UNL     1      -7.833  16.039  66.353  1.00  0.00     0.000 HD 
HETATM   15  H2  UNL     1      -6.205  16.791  66.317  1.00  0.00     0.000 HD 
ENDROOT
BRANCH  12  16
HETATM   16  C   UNL     1     -10.084  16.877  66.419  1.00  0.00    -0.322 A  
HETATM   17  C   UNL     1     -10.588  16.115  67.487  1.00  0.00    -0.314 A  
HETATM   18  C   UNL     1     -11.279  14.904  67.310  1.00  0.00    -0.348 A  
HETATM   19  C   UNL     1     -11.503  14.415  66.034  1.00  0.00    -0.349 A  
HETATM   20  C   UNL     1     -11.088  15.160  64.942  1.00  0.00    -0.425 A  
HETATM   21 CL   UNL     1     -12.276  12.899  65.817  1.00  0.00    -0.513 Cl 
HETATM   22  C   UNL     1     -10.412  16.378  65.140  1.00  0.00    -0.218 A  
ENDBRANCH  12  16
TORSDOF 1
ENDMDL
MODEL       12
REMARK 921   NORMALIZED FREE ENERGY PREDICTED BY IDOCK:   -6.02 KCAL/MOL
REMARK 922        TOTAL FREE ENERGY PREDICTED BY IDOCK:   -6.61 KCAL/MOL
REMARK 923 INTER-LIGAND FREE ENERGY PREDICTED BY IDOCK:   -6.49 KCAL/MOL
REMARK 924 INTRA-LIGAND FREE ENERGY PREDICTED BY IDOCK:   -0.11 KCAL/MOL
REMARK 927      BINDING AFFINITY PREDICTED BY RF-SCORE:    0.00 PKD
ROOT
HETATM    1  C   UNL     1     -13.283  13.330  65.353  1.00  0.00     0.309 C  
HETATM    2  C   UNL     1     -11.951  13.410  64.573  1.00  0.00    -0.407 C  
HETATM    3  N   UNL     1     -11.985  14.805  64.112  1.00  0.00    -0.763 NA 
HETATM    4  C   UNL     1     -11.992  12.598  63.265  1.00  0.00    -0.526 C  
HETATM    5  C   UNL     1     -11.138  15.637  64.585  1.00  0.00    -0.373 C  
HETATM    6  H   UNL     1     -12.674  15.105  63.424  1.00  0.00     0.000 HD 
HETATM    7  N   UNL     1     -11.276  16.944  64.269  1.00  0.00    -1.305 NA 
HETATM    8  N   UNL     1     -10.102  15.309  65.383  1.00  0.00    -0.365 NA 
HETATM    9  H1  UNL     1     -10.600  17.608  64.647  1.00  0.00     0.000 HD 
HETATM   10  C   UNL     1      -9.957  14.069  65.734  1.00  0.00    -0.298 C  
HETATM   11  H2  UNL     1     -12.038  17.259  63.669  1.00  0.00     0.000 HD 
HETATM   12  N   UNL     1     -10.778  13.010  65.401  1.00  0.00    -0.286 NA 
HETATM   13  N   UNL     1      -8.896  13.855  66.560  1.00  0.00    -0.458 NA 
HETATM   14  H1  UNL     1      -8.783  12.879  66.836  1.00  0.00     0.000 HD 
HETATM   15  H2  UNL     1      -8.274  14.599  66.873  1.00  0.00     0.000 HD 
ENDROOT
BRANCH  12  16
HETATM   16  C   UNL     1     -10.500  11.646  65.696  1.00  0.00    -0.268 A  
HETATM   17  C   UNL     1     -10.826  11.029  66.916  1.00  0.00    -0.324 A  
HETATM   18  C   UNL     1     -10.425   9.724  67.250  1.00  0.00    -0.324 A  
HETATM   19  C   UNL     1      -9.683   8.977  66.351  1.00  0.00    -0.268 A  
HETATM   20  C   UNL     1      -9.393   9.510  65.106  1.00  0.00    -0.316 A  
HETATM   21 CL   UNL     1      -9.125   7.414  66.786  1.00  0.00    -0.164 Cl 
HETATM   22  C   UNL     1      -9.817  10.813  64.784  1.00  0.00    -0.358 A  
ENDBRANCH  12  16
TORSDOF 1
ENDMDL
MODEL       13
REMARK 921   NORMALIZED FREE ENERGY PREDICTED BY IDOCK:   -5.77 KCAL/MOL
REMARK 922        TOTAL FREE ENERGY PREDICTED BY IDOCK:   -6.35 KCAL/MOL
REMARK 923 INTER-LIGAND FREE ENERGY PREDICTED BY IDOCK:   -6.11 KCAL/MOL
REMARK 924 INTRA-LIGAND FREE ENERGY PREDICTED BY IDOCK:   -0.24 KCAL/MOL
REMARK 927      BINDING AFFINITY PREDICTED BY RF-SCORE:    0.00 PKD
ROOT
HETATM    1  C   UNL     1     -11.084  12.308  67.349  1.00  0.00    -0.333 C  
HETATM    2  C   UNL     1     -10.210  12.907  66.224  1.00  0.00    -0.278 C  
HETATM    3  N   UNL     1     -10.326  11.860  65.198  1.00  0.00    -0.267 NA 
HETATM    4  C   UNL     1      -8.712  12.897  66.581  1.00  0.00    -0.046 C  
HETATM    5  C   UNL     1     -10.953  12.117  64.115  1.00  0.00    -0.361 C  
HETATM    6  H   UNL     1      -9.911  10.941  65.349  1.00  0.00     0.000 HD 
HETATM    7  N   UNL     1     -11.182  11.105  63.250  1.00  0.00    -0.769 NA 
HETATM    8  N   UNL     1     -11.408  13.336  63.761  1.00  0.00    -0.322 NA 
HETATM    9  H1  UNL     1     -11.682  11.310  62.385  1.00  0.00     0.000 HD 
HETATM   10  C   UNL     1     -11.235  14.325  64.581  1.00  0.00    -0.366 C  
HETATM   11  H2  UNL     1     -10.863  10.158  63.456  1.00  0.00     0.000 HD 
HETATM   12  N   UNL     1     -10.646  14.277  65.829  1.00  0.00    -0.297 NA 
HETATM   13  N   UNL     1     -11.755  15.503  64.136  1.00  0.00    -0.866 NA 
HETATM   14  H1  UNL     1     -11.619  16.280  64.782  1.00  0.00     0.000 HD 
HETATM   15  H2  UNL     1     -12.234  15.598  63.242  1.00  0.00     0.000 HD 
ENDROOT
BRANCH  12  16
HETATM   16  C   UNL     1     -10.355  15.414  66.633  1.00  0.00    -0.280 A  
HETATM   17  C   UNL     1     -11.161  15.840  67.703  1.00  0.00    -0.283 A  
HETATM   18  C   UNL     1     -10.942  17.041  68.400  1.00  0.00    -0.263 A  
HETATM   19  C   UNL     1      -9.883  17.861  68.052  1.00  0.00    -0.320 A  
HETATM   20  C   UNL     1      -9.015  17.456  67.050  1.00  0.00    -0.253 A  
HETATM   21 CL   UNL     1      -9.659  19.364  68.849  1.00  0.00    -0.476 Cl 
HETATM   22  C   UNL     1      -9.242  16.243  66.374  1.00  0.00    -0.332 A  
ENDBRANCH  12  16
TORSDOF 1
ENDMDL
MODEL       14
REMARK 921   NORMALIZED FREE ENERGY PREDICTED BY IDOCK:   -5.76 KCAL/MOL
REMARK 922        TOTAL FREE ENERGY PREDICTED BY IDOCK:   -6.34 KCAL/MOL
REMARK 923 INTER-LIGAND FREE ENERGY PREDICTED BY IDOCK:   -6.10 KCAL/MOL
REMARK 924 INTRA-LIGAND FREE ENERGY PREDICTED BY IDOCK:   -0.24 KCAL/MOL
REMARK 927      BINDING AFFINITY PREDICTED BY RF-SCORE:    0.00 PKD
ROOT
HETATM    1  C   UNL     1     -10.378  12.752  65.288  1.00  0.00    -0.313 C  
HETATM    2  C   UNL     1     -11.316  13.399  66.332  1.00  0.00    -0.313 C  
HETATM    3  N   UNL     1     -11.987  12.209  66.875  1.00  0.00    -0.609 NA 
HETATM    4  C   UNL     1     -12.462  14.191  65.676  1.00  0.00    -0.490 C  
HETATM    5  C   UNL     1     -11.759  11.863  68.083  1.00  0.00    -0.320 C  
HETATM    6  H   UNL     1     -12.626  11.667  66.294  1.00  0.00     0.000 HD 
HETATM    7  N   UNL     1     -12.262  10.687  68.521  1.00  0.00    -0.801 NA 
HETATM    8  N   UNL     1     -11.049  12.590  68.970  1.00  0.00    -0.248 NA 
HETATM    9  H1  UNL     1     -12.080  10.411  69.486  1.00  0.00     0.000 HD 
HETATM   10  C   UNL     1     -10.524  13.708  68.577  1.00  0.00    -0.244 C  
HETATM   11  H2  UNL     1     -12.809  10.090  67.901  1.00  0.00     0.000 HD 
HETATM   12  N   UNL     1     -10.582  14.252  67.310  1.00  0.00    -0.276 NA 
HETATM   13  N   UNL     1      -9.809  14.346  69.543  1.00  0.00    -0.400 NA 
HETATM   14  H1  UNL     1      -9.395  15.226  69.234  1.00  0.00     0.000 HD 
HETATM   15  H2  UNL     1      -9.696  13.980  70.488  1.00  0.00     0.000 HD 
ENDROOT
BRANCH  12  16
HETATM   16  C   UNL     1     -10.107  15.548  66.962  1.00  0.00    -0.254 A  
HETATM   17  C   UNL     1      -8.877  15.784  66.324  1.00  0.00    -0.378 A  
HETATM   18  C   UNL     1      -8.355  17.072  66.111  1.00  0.00    -0.276 A  
HETATM   19  C   UNL     1      -9.067  18.185  66.524  1.00  0.00    -0.276 A  
HETATM   20  C   UNL     1     -10.318  18.013  67.096  1.00  0.00    -0.382 A  
HETATM   21 CL   UNL     1      -8.398  19.753  66.337  1.00  0.00    -0.359 Cl 
HETATM   22  C   UNL     1     -10.830  16.716  67.286  1.00  0.00    -0.158 A  
ENDBRANCH  12  16
TORSDOF 1
ENDMDL
MODEL       15
REMARK 921   NORMALIZED FREE ENERGY PREDICTED BY IDOCK:   -5.75 KCAL/MOL
REMARK 922        TOTAL FREE ENERGY PREDICTED BY IDOCK:   -6.32 KCAL/MOL
REMARK 923 INTER-LIGAND FREE ENERGY PREDICTED BY IDOCK:   -6.10 KCAL/MOL
REMARK 924 INTRA-LIGAND FREE ENERGY PREDICTED BY IDOCK:   -0.22 KCAL/MOL
REMARK 927      BINDING AFFINITY PREDICTED BY RF-SCORE:    0.00 PKD
ROOT
HETATM    1  C   UNL     1     -10.793  15.366  64.870  1.00  0.00    -0.445 C  
HETATM    2  C   UNL     1     -11.382  14.006  65.304  1.00  0.00    -0.321 C  
HETATM    3  N   UNL     1     -11.233  13.233  64.063  1.00  0.00    -0.518 NA 
HETATM    4  C   UNL     1     -12.908  14.069  65.508  1.00  0.00    -0.453 C  
HETATM    5  C   UNL     1     -10.407  12.259  64.032  1.00  0.00    -0.397 C  
HETATM    6  H   UNL     1     -11.783  13.470  63.237  1.00  0.00     0.000 HD 
HETATM    7  N   UNL     1     -10.169  11.655  62.847  1.00  0.00    -0.643 NA 
HETATM    8  N   UNL     1      -9.746  11.777  65.104  1.00  0.00    -0.232 NA 
HETATM    9  H1  UNL     1      -9.509  10.877  62.822  1.00  0.00     0.000 HD 
HETATM   10  C   UNL     1      -9.924  12.353  66.253  1.00  0.00    -0.246 C  
HETATM   11  H2  UNL     1     -10.637  11.969  61.997  1.00  0.00     0.000 HD 
HETATM   12  N   UNL     1     -10.714  13.453  66.517  1.00  0.00    -0.284 NA 
HETATM   13  N   UNL     1      -9.190  11.803  67.260  1.00  0.00    -0.169 NA 
HETATM   14  H1  UNL     1      -9.330  12.256  68.163  1.00  0.00     0.000 HD 
HETATM   15  H2  UNL     1      -8.560  11.014  67.124  1.00  0.00     0.000 HD 
ENDROOT
BRANCH  12  16
HETATM   16  C   UNL     1     -10.985  13.963  67.817  1.00  0.00    -0.256 A  
HETATM   17  C   UNL     1     -11.854  13.344  68.733  1.00  0.00    -0.386 A  
HETATM   18  C   UNL     1     -12.222  13.926  69.958  1.00  0.00    -0.408 A  
HETATM   19  C   UNL     1     -11.712  15.162  70.319  1.00  0.00    -0.300 A  
HETATM   20  C   UNL     1     -10.797  15.785  69.486  1.00  0.00    -0.287 A  
HETATM   21 CL   UNL     1     -12.220  15.911  71.777  1.00  0.00    -0.510 Cl 
HETATM   22  C   UNL     1     -10.429  15.179  68.270  1.00  0.00    -0.241 A  
ENDBRANCH  12  16
TORSDOF 1
ENDMDL
MODEL       16
REMARK 921   NORMALIZED FREE ENERGY PREDICTED BY IDOCK:   -5.70 KCAL/MOL
REMARK 922        TOTAL FREE ENERGY PREDICTED BY IDOCK:   -6.27 KCAL/MOL
REMARK 923 INTER-LIGAND FREE ENERGY PREDICTED BY IDOCK:   -6.18 KCAL/MOL
REMARK 924 INTRA-LIGAND FREE ENERGY PREDICTED BY IDOCK:   -0.09 KCAL/MOL
REMARK 927      BINDING AFFINITY PREDICTED BY RF-SCORE:    0.00 PKD
ROOT
HETATM    1  C   UNL     1      -8.943  15.349  68.406  1.00  0.00    -0.189 C  
HETATM    2  C   UNL     1     -10.334  15.970  68.143  1.00  0.00    -0.260 C  
HETATM    3  N   UNL     1     -10.207  17.243  68.866  1.00  0.00    -0.338 NA 
HETATM    4  C   UNL     1     -11.454  15.234  68.902  1.00  0.00    -0.346 C  
HETATM    5  C   UNL     1     -10.187  18.335  68.204  1.00  0.00    -0.387 C  
HETATM    6  H   UNL     1     -10.137  17.255  69.884  1.00  0.00     0.000 HD 
HETATM    7  N   UNL     1      -9.919  19.483  68.865  1.00  0.00    -0.481 NA 
HETATM    8  N   UNL     1     -10.418  18.435  66.879  1.00  0.00    -0.392 NA 
HETATM    9  H1  UNL     1      -9.904  20.356  68.336  1.00  0.00     0.000 HD 
HETATM   10  C   UNL     1     -10.646  17.351  66.206  1.00  0.00    -0.194 C  
HETATM   11  H2  UNL     1      -9.737  19.478  69.869  1.00  0.00     0.000 HD 
HETATM   12  N   UNL     1     -10.656  16.059  66.690  1.00  0.00    -0.316 NA 
HETATM   13  N   UNL     1     -10.841  17.564  64.875  1.00  0.00    -0.728 NA 
HETATM   14  H1  UNL     1     -11.020  16.711  64.346  1.00  0.00     0.000 HD 
HETATM   15  H2  UNL     1     -10.810  18.489  64.448  1.00  0.00     0.000 HD 
ENDROOT
BRANCH  12  16
HETATM   16  C   UNL     1     -11.048  14.915  65.940  1.00  0.00    -0.338 A  
HETATM   17  C   UNL     1     -10.185  14.212  65.080  1.00  0.00    -0.411 A  
HETATM   18  C   UNL     1     -10.617  13.171  64.240  1.00  0.00    -0.432 A  
HETATM   19  C   UNL     1     -11.946  12.784  64.244  1.00  0.00    -0.405 A  
HETATM   20  C   UNL     1     -12.826  13.396  65.122  1.00  0.00    -0.380 A  
HETATM   21 CL   UNL     1     -12.492  11.568  63.163  1.00  0.00    -0.249 Cl 
HETATM   22  C   UNL     1     -12.371  14.425  65.967  1.00  0.00    -0.337 A  
ENDBRANCH  12  16
TORSDOF 1
ENDMDL
MODEL       17
REMARK 921   NORMALIZED FREE ENERGY PREDICTED BY IDOCK:   -5.67 KCAL/MOL
REMARK 922        TOTAL FREE ENERGY PREDICTED BY IDOCK:   -6.24 KCAL/MOL
REMARK 923 INTER-LIGAND FREE ENERGY PREDICTED BY IDOCK:   -6.09 KCAL/MOL
REMARK 924 INTRA-LIGAND FREE ENERGY PREDICTED BY IDOCK:   -0.14 KCAL/MOL
REMARK 927      BINDING AFFINITY PREDICTED BY RF-SCORE:    0.00 PKD
ROOT
HETATM    1  C   UNL     1     -12.513   7.134  70.982  1.00  0.00    -0.359 C  
HETATM    2  C   UNL     1     -12.016   8.321  71.838  1.00  0.00    -0.330 C  
HETATM    3  N   UNL     1     -11.643   7.627  73.079  1.00  0.00    -0.621 NA 
HETATM    4  C   UNL     1     -13.167   9.247  72.275  1.00  0.00    -0.535 C  
HETATM    5  C   UNL     1     -10.411   7.566  73.412  1.00  0.00    -0.348 C  
HETATM    6  H   UNL     1     -12.359   7.200  73.667  1.00  0.00     0.000 HD 
HETATM    7  N   UNL     1     -10.068   6.799  74.470  1.00  0.00    -0.472 NA 
HETATM    8  N   UNL     1      -9.412   8.218  72.783  1.00  0.00    -0.276 NA 
HETATM    9  H1  UNL     1      -9.084   6.751  74.736  1.00  0.00     0.000 HD 
HETATM   10  C   UNL     1      -9.699   8.938  71.743  1.00  0.00    -0.295 C  
HETATM   11  H2  UNL     1     -10.776   6.281  74.991  1.00  0.00     0.000 HD 
HETATM   12  N   UNL     1     -10.941   9.103  71.164  1.00  0.00    -0.290 NA 
HETATM   13  N   UNL     1      -8.614   9.530  71.172  1.00  0.00    -0.333 NA 
HETATM   14  H1  UNL     1      -8.840  10.096  70.354  1.00  0.00     0.000 HD 
HETATM   15  H2  UNL     1      -7.665   9.419  71.528  1.00  0.00     0.000 HD 
ENDROOT
BRANCH  12  16
HETATM   16  C   UNL     1     -11.228  10.012  70.108  1.00  0.00    -0.304 A  
HETATM   17  C   UNL     1     -11.082   9.697  68.745  1.00  0.00    -0.093 A  
HETATM   18  C   UNL     1     -11.233  10.643  67.717  1.00  0.00    -0.383 A  
HETATM   19  C   UNL     1     -11.557  11.954  68.023  1.00  0.00    -0.332 A  
HETATM   20  C   UNL     1     -11.781  12.303  69.345  1.00  0.00    -0.392 A  
HETATM   21 CL   UNL     1     -11.666  13.127  66.776  1.00  0.00    -0.412 Cl 
HETATM   22  C   UNL     1     -11.640  11.338  70.359  1.00  0.00    -0.319 A  
ENDBRANCH  12  16
TORSDOF 1
ENDMDL
MODEL       18
REMARK 921   NORMALIZED FREE ENERGY PREDICTED BY IDOCK:   -5.63 KCAL/MOL
REMARK 922        TOTAL FREE ENERGY PREDICTED BY IDOCK:   -6.20 KCAL/MOL
REMARK 923 INTER-LIGAND FREE ENERGY PREDICTED BY IDOCK:   -6.08 KCAL/MOL
REMARK 924 INTRA-LIGAND FREE ENERGY PREDICTED BY IDOCK:   -0.12 KCAL/MOL
REMARK 927      BINDING AFFINITY PREDICTED BY RF-SCORE:    0.00 PKD
ROOT
HETATM    1  C   UNL     1     -10.095  12.957  65.806  1.00  0.00    -0.294 C  
HETATM    2  C   UNL     1     -11.237  13.548  66.663  1.00  0.00    -0.312 C  
HETATM    3  N   UNL     1     -11.920  12.321  67.096  1.00  0.00    -0.576 NA 
HETATM    4  C   UNL     1     -12.297  14.267  65.807  1.00  0.00    -0.420 C  
HETATM    5  C   UNL     1     -11.886  11.993  68.330  1.00  0.00    -0.300 C  
HETATM    6  H   UNL     1     -12.415  11.740  66.421  1.00  0.00     0.000 HD 
HETATM    7  N   UNL     1     -12.386  10.790  68.690  1.00  0.00    -0.786 NA 
HETATM    8  N   UNL     1     -11.387  12.764  69.318  1.00  0.00    -0.263 NA 
HETATM    9  H1  UNL     1     -12.359  10.528  69.676  1.00  0.00     0.000 HD 
HETATM   10  C   UNL     1     -10.869  13.911  69.007  1.00  0.00    -0.225 C  
HETATM   11  H2  UNL     1     -12.780  10.158  67.992  1.00  0.00     0.000 HD 
HETATM   12  N   UNL     1     -10.737  14.448  67.742  1.00  0.00    -0.246 NA 
HETATM   13  N   UNL     1     -10.372  14.595  70.074  1.00  0.00    -0.437 NA 
HETATM   14  H1  UNL     1      -9.964  15.497  69.829  1.00  0.00     0.000 HD 
HETATM   15  H2  UNL     1     -10.404  14.239  71.029  1.00  0.00     0.000 HD 
ENDROOT
BRANCH  12  16
HETATM   16  C   UNL     1     -10.288  15.769  67.465  1.00  0.00    -0.280 A  
HETATM   17  C   UNL     1     -10.972  16.928  67.870  1.00  0.00    -0.251 A  
HETATM   18  C   UNL     1     -10.596  18.223  67.473  1.00  0.00    -0.432 A  
HETATM   19  C   UNL     1      -9.494  18.403  66.655  1.00  0.00    -0.313 A  
HETATM   20  C   UNL     1      -8.741  17.302  66.282  1.00  0.00    -0.259 A  
HETATM   21 CL   UNL     1      -9.078  19.975  66.105  1.00  0.00    -0.402 Cl 
HETATM   22  C   UNL     1      -9.125  16.015  66.702  1.00  0.00    -0.282 A  
ENDBRANCH  12  16
TORSDOF 1
ENDMDL
MODEL       19
REMARK 921   NORMALIZED FREE ENERGY PREDICTED BY IDOCK:   -5.55 KCAL/MOL
REMARK 922        TOTAL FREE ENERGY PREDICTED BY IDOCK:   -6.12 KCAL/MOL
REMARK 923 INTER-LIGAND FREE ENERGY PREDICTED BY IDOCK:   -5.89 KCAL/MOL
REMARK 924 INTRA-LIGAND FREE ENERGY PREDICTED BY IDOCK:   -0.23 KCAL/MOL
REMARK 927      BINDING AFFINITY PREDICTED BY RF-SCORE:    0.00 PKD
ROOT
HETATM    1  C   UNL     1     -10.038  19.636  68.494  1.00  0.00    -0.557 C  
HETATM    2  C   UNL     1      -9.464  19.354  67.087  1.00  0.00    -0.320 C  
HETATM    3  N   UNL     1      -8.562  20.503  66.922  1.00  0.00    -0.539 NA 
HETATM    4  C   UNL     1     -10.513  19.558  65.978  1.00  0.00    -0.611 C  
HETATM    5  C   UNL     1      -7.301  20.304  66.891  1.00  0.00    -0.282 C  
HETATM    6  H   UNL     1      -8.938  21.447  66.834  1.00  0.00     0.000 HD 
HETATM    7  N   UNL     1      -6.480  21.378  66.892  1.00  0.00    -0.632 NA 
HETATM    8  N   UNL     1      -6.715  19.090  66.853  1.00  0.00    -0.196 NA 
HETATM    9  H1  UNL     1      -5.473  21.218  66.866  1.00  0.00     0.000 HD 
HETATM   10  C   UNL     1      -7.470  18.036  66.884  1.00  0.00    -0.210 C  
HETATM   11  H2  UNL     1      -6.859  22.324  66.918  1.00  0.00     0.000 HD 
HETATM   12  N   UNL     1      -8.846  18.002  66.981  1.00  0.00    -0.248 NA 
HETATM   13  N   UNL     1      -6.775  16.865  66.867  1.00  0.00    -0.197 NA 
HETATM   14  H1  UNL     1      -7.369  16.036  66.891  1.00  0.00     0.000 HD 
HETATM   15  H2  UNL     1      -5.757  16.820  66.833  1.00  0.00     0.000 HD 
ENDROOT
BRANCH  12  16
HETATM   16  C   UNL     1      -9.638  16.825  66.872  1.00  0.00    -0.245 A  
HETATM   17  C   UNL     1      -9.910  16.177  65.654  1.00  0.00    -0.290 A  
HETATM   18  C   UNL     1     -10.804  15.098  65.539  1.00  0.00    -0.373 A  
HETATM   19  C   UNL     1     -11.455  14.616  66.662  1.00  0.00    -0.357 A  
HETATM   20  C   UNL     1     -11.171  15.172  67.899  1.00  0.00    -0.334 A  
HETATM   21 CL   UNL     1     -12.605  13.352  66.513  1.00  0.00    -0.238 Cl 
HETATM   22  C   UNL     1     -10.261  16.241  67.996  1.00  0.00    -0.256 A  
ENDBRANCH  12  16
TORSDOF 1
ENDMDL
MODEL       20
REMARK 921   NORMALIZED FREE ENERGY PREDICTED BY IDOCK:   -5.53 KCAL/MOL
REMARK 922        TOTAL FREE ENERGY PREDICTED BY IDOCK:   -6.09 KCAL/MOL
REMARK 923 INTER-LIGAND FREE ENERGY PREDICTED BY IDOCK:   -5.91 KCAL/MOL
REMARK 924 INTRA-LIGAND FREE ENERGY PREDICTED BY IDOCK:   -0.18 KCAL/MOL
REMARK 927      BINDING AFFINITY PREDICTED BY RF-SCORE:    0.00 PKD
ROOT
HETATM    1  C   UNL     1     -12.284   6.941  70.623  1.00  0.00    -0.311 C  
HETATM    2  C   UNL     1     -11.951   8.125  71.558  1.00  0.00    -0.298 C  
HETATM    3  N   UNL     1     -11.725   7.420  72.827  1.00  0.00    -0.560 NA 
HETATM    4  C   UNL     1     -13.183   9.003  71.848  1.00  0.00    -0.462 C  
HETATM    5  C   UNL     1     -10.548   7.394  73.323  1.00  0.00    -0.392 C  
HETATM    6  H   UNL     1     -12.498   6.957  73.305  1.00  0.00     0.000 HD 
HETATM    7  N   UNL     1     -10.324   6.617  74.407  1.00  0.00    -0.431 NA 
HETATM    8  N   UNL     1      -9.498   8.092  72.847  1.00  0.00    -0.270 NA 
HETATM    9  H1  UNL     1      -9.384   6.597  74.803  1.00  0.00     0.000 HD 
HETATM   10  C   UNL     1      -9.667   8.823  71.789  1.00  0.00    -0.310 C  
HETATM   11  H2  UNL     1     -11.076   6.065  74.817  1.00  0.00     0.000 HD 
HETATM   12  N   UNL     1     -10.824   8.957  71.048  1.00  0.00    -0.240 NA 
HETATM   13  N   UNL     1      -8.537   9.463  71.380  1.00  0.00    -0.284 NA 
HETATM   14  H1  UNL     1      -8.670  10.037  70.547  1.00  0.00     0.000 HD 
HETATM   15  H2  UNL     1      -7.642   9.377  71.860  1.00  0.00     0.000 HD 
ENDROOT
BRANCH  12  16
HETATM   16  C   UNL     1     -10.998   9.877  69.977  1.00  0.00    -0.291 A  
HETATM   17  C   UNL     1     -11.493  11.183  70.141  1.00  0.00    -0.361 A  
HETATM   18  C   UNL     1     -11.792  12.034  69.063  1.00  0.00    -0.372 A  
HETATM   19  C   UNL     1     -11.588  11.602  67.763  1.00  0.00    -0.289 A  
HETATM   20  C   UNL     1     -11.036  10.351  67.545  1.00  0.00    -0.358 A  
HETATM   21 CL   UNL     1     -12.025  12.609  66.444  1.00  0.00    -0.468 Cl 
HETATM   22  C   UNL     1     -10.728   9.519  68.638  1.00  0.00    -0.218 A  
ENDBRANCH  12  16
TORSDOF 1
ENDMDL
MODEL       21
REMARK 921   NORMALIZED FREE ENERGY PREDICTED BY IDOCK:   -5.53 KCAL/MOL
REMARK 922        TOTAL FREE ENERGY PREDICTED BY IDOCK:   -6.09 KCAL/MOL
REMARK 923 INTER-LIGAND FREE ENERGY PREDICTED BY IDOCK:   -5.86 KCAL/MOL
REMARK 924 INTRA-LIGAND FREE ENERGY PREDICTED BY IDOCK:   -0.23 KCAL/MOL
REMARK 927      BINDING AFFINITY PREDICTED BY RF-SCORE:    0.00 PKD
ROOT
HETATM    1  C   UNL     1     -10.272   7.822  72.563  1.00  0.00    -0.320 C  
HETATM    2  C   UNL     1     -11.332   8.085  71.470  1.00  0.00    -0.259 C  
HETATM    3  N   UNL     1     -12.570   7.984  72.256  1.00  0.00    -0.496 NA 
HETATM    4  C   UNL     1     -11.443   6.918  70.471  1.00  0.00    -0.390 C  
HETATM    5  C   UNL     1     -13.277   9.031  72.440  1.00  0.00    -0.447 C  
HETATM    6  H   UNL     1     -12.860   7.089  72.649  1.00  0.00     0.000 HD 
HETATM    7  N   UNL     1     -14.328   8.957  73.288  1.00  0.00    -1.177 NA 
HETATM    8  N   UNL     1     -13.058  10.222  71.846  1.00  0.00    -0.461 NA 
HETATM    9  H1  UNL     1     -14.893   9.793  73.435  1.00  0.00     0.000 HD 
HETATM   10  C   UNL     1     -12.040  10.340  71.052  1.00  0.00    -0.386 C  
HETATM   11  H2  UNL     1     -14.550   8.085  73.769  1.00  0.00     0.000 HD 
HETATM   12  N   UNL     1     -11.104   9.371  70.750  1.00  0.00    -0.274 NA 
HETATM   13  N   UNL     1     -11.897  11.589  70.527  1.00  0.00    -0.468 NA 
HETATM   14  H1  UNL     1     -11.096  11.681  69.903  1.00  0.00     0.000 HD 
HETATM   15  H2  UNL     1     -12.531  12.358  70.739  1.00  0.00     0.000 HD 
ENDROOT
BRANCH  12  16
HETATM   16  C   UNL     1     -10.085   9.507  69.767  1.00  0.00    -0.216 A  
HETATM   17  C   UNL     1      -8.732   9.739  70.071  1.00  0.00    -0.237 A  
HETATM   18  C   UNL     1      -7.759  10.009  69.094  1.00  0.00    -0.104 A  
HETATM   19  C   UNL     1      -8.113  10.043  67.756  1.00  0.00    -0.109 A  
HETATM   20  C   UNL     1      -9.418   9.753  67.393  1.00  0.00    -0.178 A  
HETATM   21 CL   UNL     1      -6.944  10.450  66.567  1.00  0.00    -0.105 Cl 
HETATM   22  C   UNL     1     -10.374   9.469  68.386  1.00  0.00    -0.237 A  
ENDBRANCH  12  16
TORSDOF 1
ENDMDL
MODEL       22
REMARK 921   NORMALIZED FREE ENERGY PREDICTED BY IDOCK:   -5.47 KCAL/MOL
REMARK 922        TOTAL FREE ENERGY PREDICTED BY IDOCK:   -6.03 KCAL/MOL
REMARK 923 INTER-LIGAND FREE ENERGY PREDICTED BY IDOCK:   -5.81 KCAL/MOL
REMARK 924 INTRA-LIGAND FREE ENERGY PREDICTED BY IDOCK:   -0.22 KCAL/MOL
REMARK 927      BINDING AFFINITY PREDICTED BY RF-SCORE:    0.00 PKD
ROOT
HETATM    1  C   UNL     1     -10.651  10.376  66.608  1.00  0.00    -0.245 C  
HETATM    2  C   UNL     1      -9.953  11.495  65.803  1.00  0.00    -0.233 C  
HETATM    3  N   UNL     1      -9.653  10.787  64.550  1.00  0.00    -0.245 NA 
HETATM    4  C   UNL     1      -8.561  11.838  66.366  1.00  0.00    -0.113 C  
HETATM    5  C   UNL     1     -10.259  11.132  63.480  1.00  0.00    -0.390 C  
HETATM    6  H   UNL     1      -8.969  10.031  64.536  1.00  0.00     0.000 HD 
HETATM    7  N   UNL     1     -10.087  10.377  62.372  1.00  0.00    -0.717 NA 
HETATM    8  N   UNL     1     -11.066  12.206  63.366  1.00  0.00    -0.435 NA 
HETATM    9  H1  UNL     1     -10.571  10.653  61.517  1.00  0.00     0.000 HD 
HETATM   10  C   UNL     1     -11.281  12.935  64.416  1.00  0.00    -0.351 C  
HETATM   11  H2  UNL     1      -9.489   9.552  62.390  1.00  0.00     0.000 HD 
HETATM   12  N   UNL     1     -10.789  12.724  65.688  1.00  0.00    -0.269 NA 
HETATM   13  N   UNL     1     -12.130  13.977  64.195  1.00  0.00    -0.645 NA 
HETATM   14  H1  UNL     1     -12.299  14.550  65.022  1.00  0.00     0.000 HD 
HETATM   15  H2  UNL     1     -12.556  14.166  63.289  1.00  0.00     0.000 HD 
ENDROOT
BRANCH  12  16
HETATM   16  C   UNL     1     -10.941  13.629  66.776  1.00  0.00    -0.292 A  
HETATM   17  C   UNL     1     -10.242  14.843  66.885  1.00  0.00    -0.254 A  
HETATM   18  C   UNL     1     -10.294  15.662  68.027  1.00  0.00    -0.246 A  
HETATM   19  C   UNL     1     -11.073  15.290  69.110  1.00  0.00    -0.263 A  
HETATM   20  C   UNL     1     -11.837  14.138  69.030  1.00  0.00    -0.384 A  
HETATM   21 CL   UNL     1     -11.077  16.246  70.535  1.00  0.00    -0.338 Cl 
HETATM   22  C   UNL     1     -11.784  13.340  67.871  1.00  0.00    -0.395 A  
ENDBRANCH  12  16
TORSDOF 1
ENDMDL
MODEL       23
REMARK 921   NORMALIZED FREE ENERGY PREDICTED BY IDOCK:   -5.43 KCAL/MOL
REMARK 922        TOTAL FREE ENERGY PREDICTED BY IDOCK:   -5.99 KCAL/MOL
REMARK 923 INTER-LIGAND FREE ENERGY PREDICTED BY IDOCK:   -5.78 KCAL/MOL
REMARK 924 INTRA-LIGAND FREE ENERGY PREDICTED BY IDOCK:   -0.21 KCAL/MOL
REMARK 927      BINDING AFFINITY PREDICTED BY RF-SCORE:    0.00 PKD
ROOT
HETATM    1  C   UNL     1      -9.509  13.581  66.344  1.00  0.00    -0.236 C  
HETATM    2  C   UNL     1     -10.699  12.664  65.982  1.00  0.00    -0.269 C  
HETATM    3  N   UNL     1     -11.635  13.642  65.409  1.00  0.00    -0.314 NA 
HETATM    4  C   UNL     1     -11.438  12.147  67.231  1.00  0.00    -0.413 C  
HETATM    5  C   UNL     1     -11.906  13.586  64.162  1.00  0.00    -0.437 C  
HETATM    6  H   UNL     1     -12.063  14.354  65.999  1.00  0.00     0.000 HD 
HETATM    7  N   UNL     1     -12.646  14.579  63.620  1.00  0.00    -0.992 NA 
HETATM    8  N   UNL     1     -11.508  12.601  63.332  1.00  0.00    -0.488 NA 
HETATM    9  H1  UNL     1     -12.862  14.535  62.624  1.00  0.00     0.000 HD 
HETATM   10  C   UNL     1     -10.769  11.648  63.809  1.00  0.00    -0.419 C  
HETATM   11  H2  UNL     1     -12.980  15.354  64.193  1.00  0.00     0.000 HD 
HETATM   12  N   UNL     1     -10.300  11.529  65.102  1.00  0.00    -0.266 NA 
HETATM   13  N   UNL     1     -10.405  10.721  62.881  1.00  0.00    -0.754 NA 
HETATM   14  H1  UNL     1      -9.823   9.972  63.257  1.00  0.00     0.000 HD 
HETATM   15  H2  UNL     1     -10.686  10.771  61.902  1.00  0.00     0.000 HD 
ENDROOT
BRANCH  12  16
HETATM   16  C   UNL     1      -9.608  10.395  65.611  1.00  0.00    -0.226 A  
HETATM   17  C   UNL     1     -10.248   9.276  66.171  1.00  0.00    -0.229 A  
HETATM   18  C   UNL     1      -9.554   8.225  66.796  1.00  0.00    -0.288 A  
HETATM   19  C   UNL     1      -8.172   8.256  66.870  1.00  0.00    -0.103 A  
HETATM   20  C   UNL     1      -7.486   9.301  66.274  1.00  0.00    -0.096 A  
HETATM   21 CL   UNL     1      -7.327   7.014  67.701  1.00  0.00    -0.094 Cl 
HETATM   22  C   UNL     1      -8.198  10.336  65.639  1.00  0.00    -0.153 A  
ENDBRANCH  12  16
TORSDOF 1
ENDMDL
MODEL       24
REMARK 921   NORMALIZED FREE ENERGY PREDICTED BY IDOCK:   -5.40 KCAL/MOL
REMARK 922        TOTAL FREE ENERGY PREDICTED BY IDOCK:   -5.96 KCAL/MOL
REMARK 923 INTER-LIGAND FREE ENERGY PREDICTED BY IDOCK:   -5.71 KCAL/MOL
REMARK 924 INTRA-LIGAND FREE ENERGY PREDICTED BY IDOCK:   -0.24 KCAL/MOL
REMARK 927      BINDING AFFINITY PREDICTED BY RF-SCORE:    0.00 PKD
ROOT
HETATM    1  C   UNL     1     -10.569   8.196  69.388  1.00  0.00    -0.206 C  
HETATM    2  C   UNL     1     -10.475   8.996  70.706  1.00  0.00    -0.243 C  
HETATM    3  N   UNL     1     -10.699  10.363  70.215  1.00  0.00    -0.436 NA 
HETATM    4  C   UNL     1      -9.039   9.043  71.259  1.00  0.00    -0.302 C  
HETATM    5  C   UNL     1     -11.771  10.975  70.544  1.00  0.00    -0.318 C  
HETATM    6  H   UNL     1     -10.008  10.817  69.618  1.00  0.00     0.000 HD 
HETATM    7  N   UNL     1     -12.034  12.168  69.965  1.00  0.00    -0.361 NA 
HETATM    8  N   UNL     1     -12.671  10.521  71.439  1.00  0.00    -0.405 NA 
HETATM    9  H1  UNL     1     -12.890  12.657  70.229  1.00  0.00     0.000 HD 
HETATM   10  C   UNL     1     -12.469   9.365  71.990  1.00  0.00    -0.365 C  
HETATM   11  H2  UNL     1     -11.393  12.569  69.281  1.00  0.00     0.000 HD 
HETATM   12  N   UNL     1     -11.421   8.500  71.746  1.00  0.00    -0.288 NA 
HETATM   13  N   UNL     1     -13.451   8.992  72.857  1.00  0.00    -0.886 NA 
HETATM   14  H1  UNL     1     -13.291   8.083  73.290  1.00  0.00     0.000 HD 
HETATM   15  H2  UNL     1     -14.269   9.568  73.054  1.00  0.00     0.000 HD 
ENDROOT
BRANCH  12  16
HETATM   16  C   UNL     1     -11.169   7.305  72.477  1.00  0.00    -0.301 A  
HETATM   17  C   UNL     1     -10.529   7.276  73.728  1.00  0.00    -0.335 A  
HETATM   18  C   UNL     1     -10.161   6.084  74.376  1.00  0.00    -0.316 A  
HETATM   19  C   UNL     1     -10.439   4.862  73.788  1.00  0.00    -0.253 A  
HETATM   20  C   UNL     1     -11.131   4.830  72.588  1.00  0.00    -0.186 A  
HETATM   21 CL   UNL     1      -9.922   3.408  74.539  1.00  0.00    -0.172 Cl 
HETATM   22  C   UNL     1     -11.505   6.034  71.963  1.00  0.00    -0.343 A  
ENDBRANCH  12  16
TORSDOF 1
ENDMDL
MODEL       25
REMARK 921   NORMALIZED FREE ENERGY PREDICTED BY IDOCK:   -5.31 KCAL/MOL
REMARK 922        TOTAL FREE ENERGY PREDICTED BY IDOCK:   -5.86 KCAL/MOL
REMARK 923 INTER-LIGAND FREE ENERGY PREDICTED BY IDOCK:   -5.62 KCAL/MOL
REMARK 924 INTRA-LIGAND FREE ENERGY PREDICTED BY IDOCK:   -0.24 KCAL/MOL
REMARK 927      BINDING AFFINITY PREDICTED BY RF-SCORE:    0.00 PKD
ROOT
HETATM    1  C   UNL     1      -9.525  15.146  67.998  1.00  0.00    -0.199 C  
HETATM    2  C   UNL     1     -10.670  14.427  67.251  1.00  0.00    -0.285 C  
HETATM    3  N   UNL     1     -11.104  15.485  66.328  1.00  0.00    -0.240 NA 
HETATM    4  C   UNL     1     -11.902  14.203  68.147  1.00  0.00    -0.387 C  
HETATM    5  C   UNL     1     -10.911  15.334  65.074  1.00  0.00    -0.439 C  
HETATM    6  H   UNL     1     -11.553  16.328  66.683  1.00  0.00     0.000 HD 
HETATM    7  N   UNL     1     -11.175  16.375  64.253  1.00  0.00    -1.298 NA 
HETATM    8  N   UNL     1     -10.460  14.202  64.496  1.00  0.00    -0.338 NA 
HETATM    9  H1  UNL     1     -11.021  16.254  63.252  1.00  0.00     0.000 HD 
HETATM   10  C   UNL     1     -10.165  13.193  65.255  1.00  0.00    -0.286 C  
HETATM   11  H2  UNL     1     -11.519  17.260  64.625  1.00  0.00     0.000 HD 
HETATM   12  N   UNL     1     -10.232  13.143  66.633  1.00  0.00    -0.254 NA 
HETATM   13  N   UNL     1      -9.696  12.113  64.572  1.00  0.00    -0.472 NA 
HETATM   14  H1  UNL     1      -9.464  11.319  65.169  1.00  0.00     0.000 HD 
HETATM   15  H2  UNL     1      -9.588  12.098  63.558  1.00  0.00     0.000 HD 
ENDROOT
BRANCH  12  16
HETATM   16  C   UNL     1     -10.029  11.969  67.411  1.00  0.00    -0.191 A  
HETATM   17  C   UNL     1      -8.837  11.684  68.100  1.00  0.00    -0.164 A  
HETATM   18  C   UNL     1      -8.597  10.462  68.750  1.00  0.00    -0.141 A  
HETATM   19  C   UNL     1      -9.566   9.472  68.744  1.00  0.00    -0.157 A  
HETATM   20  C   UNL     1     -10.787   9.725  68.140  1.00  0.00    -0.264 A  
HETATM   21 CL   UNL     1      -9.246   7.950  69.469  1.00  0.00    -0.153 Cl 
HETATM   22  C   UNL     1     -11.014  10.962  67.508  1.00  0.00    -0.352 A  
ENDBRANCH  12  16
TORSDOF 1
ENDMDL
MODEL       26
REMARK 921   NORMALIZED FREE ENERGY PREDICTED BY IDOCK:   -5.30 KCAL/MOL
REMARK 922        TOTAL FREE ENERGY PREDICTED BY IDOCK:   -5.85 KCAL/MOL
REMARK 923 INTER-LIGAND FREE ENERGY PREDICTED BY IDOCK:   -5.77 KCAL/MOL
REMARK 924 INTRA-LIGAND FREE ENERGY PREDICTED BY IDOCK:   -0.08 KCAL/MOL
REMARK 927      BINDING AFFINITY PREDICTED BY RF-SCORE:    0.00 PKD
ROOT
HETATM    1  C   UNL     1      -8.613  13.426  67.730  1.00  0.00    -0.194 C  
HETATM    2  C   UNL     1     -10.005  13.760  67.148  1.00  0.00    -0.243 C  
HETATM    3  N   UNL     1     -10.650  12.441  67.204  1.00  0.00    -0.223 NA 
HETATM    4  C   UNL     1      -9.947  14.070  65.641  1.00  0.00    -0.309 C  
HETATM    5  C   UNL     1     -11.623  12.259  68.011  1.00  0.00    -0.349 C  
HETATM    6  H   UNL     1     -10.325  11.681  66.606  1.00  0.00     0.000 HD 
HETATM    7  N   UNL     1     -12.107  11.005  68.162  1.00  0.00    -0.780 NA 
HETATM    8  N   UNL     1     -12.217  13.231  68.732  1.00  0.00    -0.200 NA 
HETATM    9  H1  UNL     1     -12.885  10.860  68.806  1.00  0.00     0.000 HD 
HETATM   10  C   UNL     1     -11.759  14.440  68.638  1.00  0.00    -0.332 C  
HETATM   11  H2  UNL     1     -11.704  10.224  67.645  1.00  0.00     0.000 HD 
HETATM   12  N   UNL     1     -10.683  14.865  67.884  1.00  0.00    -0.260 NA 
HETATM   13  N   UNL     1     -12.414  15.337  69.426  1.00  0.00    -0.601 NA 
HETATM   14  H1  UNL     1     -12.053  16.288  69.352  1.00  0.00     0.000 HD 
HETATM   15  H2  UNL     1     -13.192  15.082  70.034  1.00  0.00     0.000 HD 
ENDROOT
BRANCH  12  16
HETATM   16  C   UNL     1     -10.305  16.225  67.706  1.00  0.00    -0.287 A  
HETATM   17  C   UNL     1      -9.510  16.940  68.619  1.00  0.00    -0.268 A  
HETATM   18  C   UNL     1      -9.258  18.318  68.505  1.00  0.00    -0.335 A  
HETATM   19  C   UNL     1      -9.791  19.034  67.446  1.00  0.00    -0.324 A  
HETATM   20  C   UNL     1     -10.524  18.366  66.479  1.00  0.00    -0.411 A  
HETATM   21 CL   UNL     1      -9.551  20.730  67.346  1.00  0.00    -0.564 Cl 
HETATM   22  C   UNL     1     -10.752  16.983  66.603  1.00  0.00    -0.092 A  
ENDBRANCH  12  16
TORSDOF 1
ENDMDL
MODEL       27
REMARK 921   NORMALIZED FREE ENERGY PREDICTED BY IDOCK:   -5.26 KCAL/MOL
REMARK 922        TOTAL FREE ENERGY PREDICTED BY IDOCK:   -5.81 KCAL/MOL
REMARK 923 INTER-LIGAND FREE ENERGY PREDICTED BY IDOCK:   -5.57 KCAL/MOL
REMARK 924 INTRA-LIGAND FREE ENERGY PREDICTED BY IDOCK:   -0.24 KCAL/MOL
REMARK 927      BINDING AFFINITY PREDICTED BY RF-SCORE:    0.00 PKD
ROOT
HETATM    1  C   UNL     1     -13.805  15.248  70.964  1.00  0.00    -0.414 C  
HETATM    2  C   UNL     1     -12.491  14.505  71.293  1.00  0.00    -0.346 C  
HETATM    3  N   UNL     1     -13.004  13.372  72.076  1.00  0.00    -0.329 NA 
HETATM    4  C   UNL     1     -11.622  15.277  72.303  1.00  0.00    -0.530 C  
HETATM    5  C   UNL     1     -12.922  12.193  71.592  1.00  0.00    -0.321 C  
HETATM    6  H   UNL     1     -13.420  13.525  72.995  1.00  0.00     0.000 HD 
HETATM    7  N   UNL     1     -13.532  11.183  72.252  1.00  0.00    -0.527 NA 
HETATM    8  N   UNL     1     -12.264  11.871  70.460  1.00  0.00    -0.363 NA 
HETATM    9  H1  UNL     1     -13.466  10.241  71.865  1.00  0.00     0.000 HD 
HETATM   10  C   UNL     1     -11.695  12.819  69.782  1.00  0.00    -0.282 C  
HETATM   11  H2  UNL     1     -14.045  11.358  73.115  1.00  0.00     0.000 HD 
HETATM   12  N   UNL     1     -11.703  14.168  70.073  1.00  0.00    -0.289 NA 
HETATM   13  N   UNL     1     -11.082  12.387  68.645  1.00  0.00    -0.242 NA 
HETATM   14  H1  UNL     1     -10.635  13.133  68.113  1.00  0.00     0.000 HD 
HETATM   15  H2  UNL     1     -11.071  11.410  68.354  1.00  0.00     0.000 HD 
ENDROOT
BRANCH  12  16
HETATM   16  C   UNL     1     -10.948  15.152  69.376  1.00  0.00    -0.264 A  
HETATM   17  C   UNL     1      -9.568  15.352  69.557  1.00  0.00    -0.259 A  
HETATM   18  C   UNL     1      -8.861  16.414  68.969  1.00  0.00    -0.240 A  
HETATM   19  C   UNL     1      -9.521  17.318  68.154  1.00  0.00    -0.278 A  
HETATM   20  C   UNL     1     -10.866  17.129  67.884  1.00  0.00    -0.294 A  
HETATM   21 CL   UNL     1      -8.677  18.661  67.498  1.00  0.00    -0.279 Cl 
HETATM   22  C   UNL     1     -11.554  16.050  68.470  1.00  0.00    -0.316 A  
ENDBRANCH  12  16
TORSDOF 1
ENDMDL
MODEL       28
REMARK 921   NORMALIZED FREE ENERGY PREDICTED BY IDOCK:   -5.26 KCAL/MOL
REMARK 922        TOTAL FREE ENERGY PREDICTED BY IDOCK:   -5.80 KCAL/MOL
REMARK 923 INTER-LIGAND FREE ENERGY PREDICTED BY IDOCK:   -5.60 KCAL/MOL
REMARK 924 INTRA-LIGAND FREE ENERGY PREDICTED BY IDOCK:   -0.20 KCAL/MOL
REMARK 927      BINDING AFFINITY PREDICTED BY RF-SCORE:    0.00 PKD
ROOT
HETATM    1  C   UNL     1     -11.505  15.454  65.181  1.00  0.00    -0.208 C  
HETATM    2  C   UNL     1     -10.667  14.785  66.295  1.00  0.00    -0.313 C  
HETATM    3  N   UNL     1     -11.074  15.580  67.461  1.00  0.00    -0.322 NA 
HETATM    4  C   UNL     1      -9.164  15.090  66.157  1.00  0.00    -0.294 C  
HETATM    5  C   UNL     1     -11.761  15.025  68.384  1.00  0.00    -0.317 C  
HETATM    6  H   UNL     1     -10.812  16.563  67.533  1.00  0.00     0.000 HD 
HETATM    7  N   UNL     1     -12.256  15.802  69.373  1.00  0.00    -0.511 NA 
HETATM    8  N   UNL     1     -12.032  13.706  68.452  1.00  0.00    -0.367 NA 
HETATM    9  H1  UNL     1     -12.804  15.358  70.111  1.00  0.00     0.000 HD 
HETATM   10  C   UNL     1     -11.602  12.934  67.504  1.00  0.00    -0.356 C  
HETATM   11  H2  UNL     1     -12.086  16.807  69.382  1.00  0.00     0.000 HD 
HETATM   12  N   UNL     1     -10.898  13.314  66.379  1.00  0.00    -0.286 NA 
HETATM   13  N   UNL     1     -11.953  11.628  67.658  1.00  0.00    -0.625 NA 
HETATM   14  H1  UNL     1     -11.615  11.021  66.912  1.00  0.00     0.000 HD 
HETATM   15  H2  UNL     1     -12.503  11.288  68.446  1.00  0.00     0.000 HD 
ENDROOT
BRANCH  12  16
HETATM   16  C   UNL     1     -10.328  12.413  65.436  1.00  0.00    -0.277 A  
HETATM   17  C   UNL     1     -10.822  12.231  64.133  1.00  0.00    -0.412 A  
HETATM   18  C   UNL     1     -10.341  11.241  63.259  1.00  0.00    -0.406 A  
HETATM   19  C   UNL     1      -9.321  10.396  63.664  1.00  0.00    -0.291 A  
HETATM   20  C   UNL     1      -8.750  10.576  64.913  1.00  0.00    -0.192 A  
HETATM   21 CL   UNL     1      -8.786   9.136  62.629  1.00  0.00    -0.219 Cl 
HETATM   22  C   UNL     1      -9.235  11.583  65.768  1.00  0.00    -0.210 A  
ENDBRANCH  12  16
TORSDOF 1
ENDMDL
MODEL       29
REMARK 921   NORMALIZED FREE ENERGY PREDICTED BY IDOCK:   -5.25 KCAL/MOL
REMARK 922        TOTAL FREE ENERGY PREDICTED BY IDOCK:   -5.80 KCAL/MOL
REMARK 923 INTER-LIGAND FREE ENERGY PREDICTED BY IDOCK:   -5.63 KCAL/MOL
REMARK 924 INTRA-LIGAND FREE ENERGY PREDICTED BY IDOCK:   -0.17 KCAL/MOL
REMARK 927      BINDING AFFINITY PREDICTED BY RF-SCORE:    0.00 PKD
ROOT
HETATM    1  C   UNL     1     -11.756  14.996  67.107  1.00  0.00    -0.227 C  
HETATM    2  C   UNL     1     -10.872  14.002  67.894  1.00  0.00    -0.244 C  
HETATM    3  N   UNL     1     -11.040  14.510  69.263  1.00  0.00    -0.262 NA 
HETATM    4  C   UNL     1      -9.372  14.207  67.614  1.00  0.00    -0.209 C  
HETATM    5  C   UNL     1     -11.668  13.799  70.118  1.00  0.00    -0.233 C  
HETATM    6  H   UNL     1     -10.658  15.418  69.527  1.00  0.00     0.000 HD 
HETATM    7  N   UNL     1     -11.946  14.340  71.325  1.00  0.00    -0.442 NA 
HETATM    8  N   UNL     1     -12.080  12.532  69.909  1.00  0.00    -0.287 NA 
HETATM    9  H1  UNL     1     -12.448  13.772  72.007  1.00  0.00     0.000 HD 
HETATM   10  C   UNL     1     -11.861  11.991  68.752  1.00  0.00    -0.302 C  
HETATM   11  H2  UNL     1     -11.661  15.294  71.547  1.00  0.00     0.000 HD 
HETATM   12  N   UNL     1     -11.260  12.582  67.659  1.00  0.00    -0.264 NA 
HETATM   13  N   UNL     1     -12.340  10.721  68.642  1.00  0.00    -0.786 NA 
HETATM   14  H1  UNL     1     -12.168  10.296  67.731  1.00  0.00     0.000 HD 
HETATM   15  H2  UNL     1     -12.826  10.240  69.398  1.00  0.00     0.000 HD 
ENDROOT
BRANCH  12  16
HETATM   16  C   UNL     1     -10.917  11.903  66.456  1.00  0.00    -0.292 A  
HETATM   17  C   UNL     1      -9.927  10.909  66.376  1.00  0.00    -0.266 A  
HETATM   18  C   UNL     1      -9.500  10.344  65.162  1.00  0.00    -0.303 A  
HETATM   19  C   UNL     1     -10.071  10.754  63.969  1.00  0.00    -0.345 A  
HETATM   20  C   UNL     1     -11.101  11.680  63.995  1.00  0.00    -0.458 A  
HETATM   21 CL   UNL     1      -9.498  10.124  62.479  1.00  0.00    -0.312 Cl 
HETATM   22  C   UNL     1     -11.525  12.222  65.223  1.00  0.00    -0.399 A  
ENDBRANCH  12  16
TORSDOF 1
ENDMDL
MODEL       30
REMARK 921   NORMALIZED FREE ENERGY PREDICTED BY IDOCK:   -5.24 KCAL/MOL
REMARK 922        TOTAL FREE ENERGY PREDICTED BY IDOCK:   -5.78 KCAL/MOL
REMARK 923 INTER-LIGAND FREE ENERGY PREDICTED BY IDOCK:   -5.63 KCAL/MOL
REMARK 924 INTRA-LIGAND FREE ENERGY PREDICTED BY IDOCK:   -0.15 KCAL/MOL
REMARK 927      BINDING AFFINITY PREDICTED BY RF-SCORE:    0.00 PKD
ROOT
HETATM    1  C   UNL     1     -12.530  13.182  65.459  1.00  0.00    -0.516 C  
HETATM    2  C   UNL     1     -11.039  13.246  65.058  1.00  0.00    -0.309 C  
HETATM    3  N   UNL     1     -10.901  14.674  64.738  1.00  0.00    -0.538 NA 
HETATM    4  C   UNL     1     -10.766  12.547  63.713  1.00  0.00    -0.483 C  
HETATM    5  C   UNL     1     -10.178  15.412  65.489  1.00  0.00    -0.382 C  
HETATM    6  H   UNL     1     -11.376  15.070  63.928  1.00  0.00     0.000 HD 
HETATM    7  N   UNL     1     -10.181  16.747  65.274  1.00  0.00    -0.610 NA 
HETATM    8  N   UNL     1      -9.398  14.959  66.492  1.00  0.00    -0.266 NA 
HETATM    9  H1  UNL     1      -9.603  17.336  65.873  1.00  0.00     0.000 HD 
HETATM   10  C   UNL     1      -9.395  13.689  66.750  1.00  0.00    -0.261 C  
HETATM   11  H2  UNL     1     -10.748  17.154  64.530  1.00  0.00     0.000 HD 
HETATM   12  N   UNL     1     -10.137  12.711  66.118  1.00  0.00    -0.252 NA 
HETATM   13  N   UNL     1      -8.594  13.345  67.796  1.00  0.00    -0.180 NA 
HETATM   14  H1  UNL     1      -8.592  12.345  67.998  1.00  0.00     0.000 HD 
HETATM   15  H2  UNL     1      -8.048  14.022  68.327  1.00  0.00     0.000 HD 
ENDROOT
BRANCH  12  16
HETATM   16  C   UNL     1      -9.996  11.313  66.345  1.00  0.00    -0.215 A  
HETATM   17  C   UNL     1      -9.163  10.479  65.579  1.00  0.00    -0.223 A  
HETATM   18  C   UNL     1      -9.136   9.081  65.719  1.00  0.00    -0.272 A  
HETATM   19  C   UNL     1      -9.946   8.463  66.658  1.00  0.00    -0.284 A  
HETATM   20  C   UNL     1     -10.735   9.243  67.488  1.00  0.00    -0.272 A  
HETATM   21 CL   UNL     1      -9.973   6.752  66.778  1.00  0.00    -0.243 Cl 
HETATM   22  C   UNL     1     -10.736  10.643  67.342  1.00  0.00    -0.326 A  
ENDBRANCH  12  16
TORSDOF 1
ENDMDL
MODEL       31
REMARK 921   NORMALIZED FREE ENERGY PREDICTED BY IDOCK:   -5.24 KCAL/MOL
REMARK 922        TOTAL FREE ENERGY PREDICTED BY IDOCK:   -5.78 KCAL/MOL
REMARK 923 INTER-LIGAND FREE ENERGY PREDICTED BY IDOCK:   -5.56 KCAL/MOL
REMARK 924 INTRA-LIGAND FREE ENERGY PREDICTED BY IDOCK:   -0.22 KCAL/MOL
REMARK 927      BINDING AFFINITY PREDICTED BY RF-SCORE:    0.00 PKD
ROOT
HETATM    1  C   UNL     1     -10.285  19.473  68.586  1.00  0.00    -0.481 C  
HETATM    2  C   UNL     1      -9.131  18.918  67.720  1.00  0.00    -0.290 C  
HETATM    3  N   UNL     1      -8.023  19.780  68.154  1.00  0.00    -0.311 NA 
HETATM    4  C   UNL     1      -9.299  19.269  66.231  1.00  0.00    -0.375 C  
HETATM    5  C   UNL     1      -7.058  19.267  68.816  1.00  0.00    -0.340 C  
HETATM    6  H   UNL     1      -8.023  20.775  67.930  1.00  0.00     0.000 HD 
HETATM    7  N   UNL     1      -6.125  20.095  69.338  1.00  0.00    -0.309 NA 
HETATM    8  N   UNL     1      -6.893  17.948  69.037  1.00  0.00    -0.246 NA 
HETATM    9  H1  UNL     1      -5.354  19.685  69.867  1.00  0.00     0.000 HD 
HETATM   10  C   UNL     1      -7.786  17.126  68.580  1.00  0.00    -0.265 C  
HETATM   11  H2  UNL     1      -6.190  21.104  69.207  1.00  0.00     0.000 HD 
HETATM   12  N   UNL     1      -8.939  17.450  67.894  1.00  0.00    -0.246 NA 
HETATM   13  N   UNL     1      -7.535  15.822  68.881  1.00  0.00    -0.159 NA 
HETATM   14  H1  UNL     1      -8.238  15.176  68.522  1.00  0.00     0.000 HD 
HETATM   15  H2  UNL     1      -6.722  15.519  69.416  1.00  0.00     0.000 HD 
ENDROOT
BRANCH  12  16
HETATM   16  C   UNL     1      -9.817  16.505  67.293  1.00  0.00    -0.254 A  
HETATM   17  C   UNL     1     -10.966  15.996  67.923  1.00  0.00    -0.327 A  
HETATM   18  C   UNL     1     -11.748  14.962  67.379  1.00  0.00    -0.311 A  
HETATM   19  C   UNL     1     -11.406  14.405  66.158  1.00  0.00    -0.350 A  
HETATM   20  C   UNL     1     -10.324  14.917  65.461  1.00  0.00    -0.388 A  
HETATM   21 CL   UNL     1     -12.313  13.091  65.529  1.00  0.00    -0.521 Cl 
HETATM   22  C   UNL     1      -9.563  15.962  66.015  1.00  0.00    -0.385 A  
ENDBRANCH  12  16
TORSDOF 1
ENDMDL
MODEL       32
REMARK 921   NORMALIZED FREE ENERGY PREDICTED BY IDOCK:   -5.21 KCAL/MOL
REMARK 922        TOTAL FREE ENERGY PREDICTED BY IDOCK:   -5.75 KCAL/MOL
REMARK 923 INTER-LIGAND FREE ENERGY PREDICTED BY IDOCK:   -5.53 KCAL/MOL
REMARK 924 INTRA-LIGAND FREE ENERGY PREDICTED BY IDOCK:   -0.21 KCAL/MOL
REMARK 927      BINDING AFFINITY PREDICTED BY RF-SCORE:    0.00 PKD
ROOT
HETATM    1  C   UNL     1      -9.513  14.333  66.563  1.00  0.00    -0.306 C  
HETATM    2  C   UNL     1     -10.774  13.456  66.393  1.00  0.00    -0.286 C  
HETATM    3  N   UNL     1     -11.648  14.373  65.648  1.00  0.00    -0.343 NA 
HETATM    4  C   UNL     1     -11.522  13.247  67.723  1.00  0.00    -0.354 C  
HETATM    5  C   UNL     1     -11.948  14.098  64.437  1.00  0.00    -0.457 C  
HETATM    6  H   UNL     1     -12.010  15.216  66.091  1.00  0.00     0.000 HD 
HETATM    7  N   UNL     1     -12.625  15.021  63.717  1.00  0.00    -0.965 NA 
HETATM    8  N   UNL     1     -11.642  12.944  63.811  1.00  0.00    -0.448 NA 
HETATM    9  H1  UNL     1     -12.865  14.802  62.750  1.00  0.00     0.000 HD 
HETATM   10  C   UNL     1     -10.964  12.048  64.459  1.00  0.00    -0.318 C  
HETATM   11  H2  UNL     1     -12.889  15.915  64.131  1.00  0.00     0.000 HD 
HETATM   12  N   UNL     1     -10.478  12.146  65.747  1.00  0.00    -0.245 NA 
HETATM   13  N   UNL     1     -10.688  10.934  63.726  1.00  0.00    -0.528 NA 
HETATM   14  H1  UNL     1     -10.155  10.230  64.236  1.00  0.00     0.000 HD 
HETATM   15  H2  UNL     1     -10.986  10.815  62.759  1.00  0.00     0.000 HD 
ENDROOT
BRANCH  12  16
HETATM   16  C   UNL     1      -9.860  11.082  66.463  1.00  0.00    -0.203 A  
HETATM   17  C   UNL     1      -8.470  10.870  66.500  1.00  0.00    -0.159 A  
HETATM   18  C   UNL     1      -7.880   9.741  67.093  1.00  0.00    -0.099 A  
HETATM   19  C   UNL     1      -8.675   8.776  67.689  1.00  0.00    -0.135 A  
HETATM   20  C   UNL     1     -10.046   8.969  67.743  1.00  0.00    -0.260 A  
HETATM   21 CL   UNL     1      -7.963   7.359  68.343  1.00  0.00    -0.122 Cl 
HETATM   22  C   UNL     1     -10.617  10.114  67.158  1.00  0.00    -0.308 A  
ENDBRANCH  12  16
TORSDOF 1
ENDMDL
MODEL       33
REMARK 921   NORMALIZED FREE ENERGY PREDICTED BY IDOCK:   -5.15 KCAL/MOL
REMARK 922        TOTAL FREE ENERGY PREDICTED BY IDOCK:   -5.69 KCAL/MOL
REMARK 923 INTER-LIGAND FREE ENERGY PREDICTED BY IDOCK:   -5.44 KCAL/MOL
REMARK 924 INTRA-LIGAND FREE ENERGY PREDICTED BY IDOCK:   -0.24 KCAL/MOL
REMARK 927      BINDING AFFINITY PREDICTED BY RF-SCORE:    0.00 PKD
ROOT
HETATM    1  C   UNL     1     -12.527  13.931  66.020  1.00  0.00    -0.501 C  
HETATM    2  C   UNL     1     -11.687  13.779  67.308  1.00  0.00    -0.382 C  
HETATM    3  N   UNL     1     -11.756  12.325  67.512  1.00  0.00    -0.459 NA 
HETATM    4  C   UNL     1     -12.405  14.352  68.544  1.00  0.00    -0.039 C  
HETATM    5  C   UNL     1     -10.695  11.627  67.377  1.00  0.00    -0.234 C  
HETATM    6  H   UNL     1     -12.639  11.880  67.759  1.00  0.00     0.000 HD 
HETATM    7  N   UNL     1     -10.802  10.280  67.418  1.00  0.00    -0.288 NA 
HETATM    8  N   UNL     1      -9.458  12.134  67.197  1.00  0.00    -0.186 NA 
HETATM    9  H1  UNL     1      -9.955   9.722  67.311  1.00  0.00     0.000 HD 
HETATM   10  C   UNL     1      -9.321  13.421  67.120  1.00  0.00    -0.240 C  
HETATM   11  H2  UNL     1     -11.708   9.832  67.553  1.00  0.00     0.000 HD 
HETATM   12  N   UNL     1     -10.324  14.368  67.174  1.00  0.00    -0.261 NA 
HETATM   13  N   UNL     1      -8.037  13.823  66.913  1.00  0.00    -0.389 NA 
HETATM   14  H1  UNL     1      -7.929  14.835  66.852  1.00  0.00     0.000 HD 
HETATM   15  H2  UNL     1      -7.256  13.173  66.826  1.00  0.00     0.000 HD 
ENDROOT
BRANCH  12  16
HETATM   16  C   UNL     1     -10.109  15.774  67.223  1.00  0.00    -0.247 A  
HETATM   17  C   UNL     1      -9.775  16.472  68.397  1.00  0.00    -0.236 A  
HETATM   18  C   UNL     1      -9.702  17.874  68.464  1.00  0.00    -0.352 A  
HETATM   19  C   UNL     1      -9.950  18.635  67.334  1.00  0.00    -0.332 A  
HETATM   20  C   UNL     1     -10.215  17.997  66.133  1.00  0.00    -0.364 A  
HETATM   21 CL   UNL     1      -9.938  20.348  67.430  1.00  0.00    -0.575 Cl 
HETATM   22  C   UNL     1     -10.269  16.591  66.083  1.00  0.00    -0.360 A  
ENDBRANCH  12  16
TORSDOF 1
ENDMDL
MODEL       34
REMARK 921   NORMALIZED FREE ENERGY PREDICTED BY IDOCK:   -5.15 KCAL/MOL
REMARK 922        TOTAL FREE ENERGY PREDICTED BY IDOCK:   -5.68 KCAL/MOL
REMARK 923 INTER-LIGAND FREE ENERGY PREDICTED BY IDOCK:   -5.57 KCAL/MOL
REMARK 924 INTRA-LIGAND FREE ENERGY PREDICTED BY IDOCK:   -0.11 KCAL/MOL
REMARK 927      BINDING AFFINITY PREDICTED BY RF-SCORE:    0.00 PKD
ROOT
HETATM    1  C   UNL     1     -11.496   5.357  72.933  1.00  0.00    -0.340 C  
HETATM    2  C   UNL     1     -10.458   5.998  71.985  1.00  0.00    -0.209 C  
HETATM    3  N   UNL     1      -9.640   4.827  71.639  1.00  0.00    -0.151 NA 
HETATM    4  C   UNL     1      -9.474   6.917  72.732  1.00  0.00    -0.161 C  
HETATM    5  C   UNL     1      -9.665   4.383  70.442  1.00  0.00    -0.214 C  
HETATM    6  H   UNL     1      -9.060   4.376  72.345  1.00  0.00     0.000 HD 
HETATM    7  N   UNL     1      -9.030   3.220  70.174  1.00  0.00    -0.091 NA 
HETATM    8  N   UNL     1     -10.282   4.991  69.408  1.00  0.00    -0.224 NA 
HETATM    9  H1  UNL     1      -9.050   2.865  69.218  1.00  0.00     0.000 HD 
HETATM   10  C   UNL     1     -10.929   6.092  69.633  1.00  0.00    -0.400 C  
HETATM   11  H2  UNL     1      -8.543   2.709  70.911  1.00  0.00     0.000 HD 
HETATM   12  N   UNL     1     -11.093   6.725  70.849  1.00  0.00    -0.262 NA 
HETATM   13  N   UNL     1     -11.534   6.607  68.527  1.00  0.00    -0.559 NA 
HETATM   14  H1  UNL     1     -12.044   7.472  68.705  1.00  0.00     0.000 HD 
HETATM   15  H2  UNL     1     -11.483   6.169  67.608  1.00  0.00     0.000 HD 
ENDROOT
BRANCH  12  16
HETATM   16  C   UNL     1     -11.696   8.003  71.022  1.00  0.00    -0.277 A  
HETATM   17  C   UNL     1     -11.176   9.191  70.479  1.00  0.00    -0.309 A  
HETATM   18  C   UNL     1     -11.698  10.463  70.770  1.00  0.00    -0.464 A  
HETATM   19  C   UNL     1     -12.786  10.587  71.618  1.00  0.00    -0.445 A  
HETATM   20  C   UNL     1     -13.381   9.444  72.126  1.00  0.00    -0.545 A  
HETATM   21 CL   UNL     1     -13.376  12.143  72.038  1.00  0.00    -0.569 Cl 
HETATM   22  C   UNL     1     -12.853   8.179  71.810  1.00  0.00    -0.355 A  
ENDBRANCH  12  16
TORSDOF 1
ENDMDL
MODEL       35
REMARK 921   NORMALIZED FREE ENERGY PREDICTED BY IDOCK:   -5.11 KCAL/MOL
REMARK 922        TOTAL FREE ENERGY PREDICTED BY IDOCK:   -5.65 KCAL/MOL
REMARK 923 INTER-LIGAND FREE ENERGY PREDICTED BY IDOCK:   -5.41 KCAL/MOL
REMARK 924 INTRA-LIGAND FREE ENERGY PREDICTED BY IDOCK:   -0.24 KCAL/MOL
REMARK 927      BINDING AFFINITY PREDICTED BY RF-SCORE:    0.00 PKD
ROOT
HETATM    1  C   UNL     1      -9.872  11.246  68.375  1.00  0.00    -0.200 C  
HETATM    2  C   UNL     1     -11.245  11.955  68.384  1.00  0.00    -0.258 C  
HETATM    3  N   UNL     1     -12.114  10.865  68.851  1.00  0.00    -0.725 NA 
HETATM    4  C   UNL     1     -11.761  12.244  66.963  1.00  0.00    -0.399 C  
HETATM    5  C   UNL     1     -12.661  10.955  70.002  1.00  0.00    -0.187 C  
HETATM    6  H   UNL     1     -12.280  10.049  68.263  1.00  0.00     0.000 HD 
HETATM    7  N   UNL     1     -13.332   9.884  70.480  1.00  0.00    -0.595 NA 
HETATM    8  N   UNL     1     -12.622  12.050  70.788  1.00  0.00    -0.272 NA 
HETATM    9  H1  UNL     1     -13.769   9.956  71.400  1.00  0.00     0.000 HD 
HETATM   10  C   UNL     1     -11.960  13.086  70.377  1.00  0.00    -0.258 C  
HETATM   11  H2  UNL     1     -13.401   9.025  69.936  1.00  0.00     0.000 HD 
HETATM   12  N   UNL     1     -11.241  13.200  69.204  1.00  0.00    -0.263 NA 
HETATM   13  N   UNL     1     -11.965  14.124  71.257  1.00  0.00    -0.453 NA 
HETATM   14  H1  UNL     1     -11.443  14.939  70.934  1.00  0.00     0.000 HD 
HETATM   15  H2  UNL     1     -12.445  14.091  72.156  1.00  0.00     0.000 HD 
ENDROOT
BRANCH  12  16
HETATM   16  C   UNL     1     -10.645  14.403  68.732  1.00  0.00    -0.254 A  
HETATM   17  C   UNL     1      -9.286  14.721  68.904  1.00  0.00    -0.184 A  
HETATM   18  C   UNL     1      -8.738  15.969  68.560  1.00  0.00    -0.195 A  
HETATM   19  C   UNL     1      -9.545  16.951  68.009  1.00  0.00    -0.247 A  
HETATM   20  C   UNL     1     -10.876  16.667  67.753  1.00  0.00    -0.292 A  
HETATM   21 CL   UNL     1      -8.897  18.501  67.660  1.00  0.00    -0.278 Cl 
HETATM   22  C   UNL     1     -11.403  15.406  68.091  1.00  0.00    -0.353 A  
ENDBRANCH  12  16
TORSDOF 1
ENDMDL
MODEL       36
REMARK 921   NORMALIZED FREE ENERGY PREDICTED BY IDOCK:   -5.07 KCAL/MOL
REMARK 922        TOTAL FREE ENERGY PREDICTED BY IDOCK:   -5.61 KCAL/MOL
REMARK 923 INTER-LIGAND FREE ENERGY PREDICTED BY IDOCK:   -5.38 KCAL/MOL
REMARK 924 INTRA-LIGAND FREE ENERGY PREDICTED BY IDOCK:   -0.23 KCAL/MOL
REMARK 927      BINDING AFFINITY PREDICTED BY RF-SCORE:    0.00 PKD
ROOT
HETATM    1  C   UNL     1     -10.542   8.949  68.684  1.00  0.00    -0.182 C  
HETATM    2  C   UNL     1     -10.333   9.720  70.007  1.00  0.00    -0.263 C  
HETATM    3  N   UNL     1     -10.525  11.104  69.552  1.00  0.00    -0.439 NA 
HETATM    4  C   UNL     1      -8.866   9.693  70.472  1.00  0.00    -0.169 C  
HETATM    5  C   UNL     1     -11.546  11.756  69.956  1.00  0.00    -0.236 C  
HETATM    6  H   UNL     1      -9.851  11.539  68.922  1.00  0.00     0.000 HD 
HETATM    7  N   UNL     1     -11.790  12.970  69.414  1.00  0.00    -0.322 NA 
HETATM    8  N   UNL     1     -12.411  11.325  70.897  1.00  0.00    -0.387 NA 
HETATM    9  H1  UNL     1     -12.606  13.491  69.737  1.00  0.00     0.000 HD 
HETATM   10  C   UNL     1     -12.227  10.152  71.417  1.00  0.00    -0.397 C  
HETATM   11  H2  UNL     1     -11.174  13.356  68.698  1.00  0.00     0.000 HD 
HETATM   12  N   UNL     1     -11.236   9.246  71.095  1.00  0.00    -0.312 NA 
HETATM   13  N   UNL     1     -13.171   9.806  72.335  1.00  0.00    -0.556 NA 
HETATM   14  H1  UNL     1     -13.027   8.883  72.744  1.00  0.00     0.000 HD 
HETATM   15  H2  UNL     1     -13.949  10.413  72.591  1.00  0.00     0.000 HD 
ENDROOT
BRANCH  12  16
HETATM   16  C   UNL     1     -10.994   8.028  71.790  1.00  0.00    -0.251 A  
HETATM   17  C   UNL     1     -11.355   6.763  71.296  1.00  0.00    -0.333 A  
HETATM   18  C   UNL     1     -11.239   5.581  72.049  1.00  0.00    -0.222 A  
HETATM   19  C   UNL     1     -10.735   5.628  73.338  1.00  0.00    -0.278 A  
HETATM   20  C   UNL     1     -10.299   6.839  73.849  1.00  0.00    -0.397 A  
HETATM   21 CL   UNL     1     -10.665   4.200  74.286  1.00  0.00    -0.286 Cl 
HETATM   22  C   UNL     1     -10.409   8.009  73.074  1.00  0.00    -0.351 A  
ENDBRANCH  12  16
TORSDOF 1
ENDMDL
MODEL       37
REMARK 921   NORMALIZED FREE ENERGY PREDICTED BY IDOCK:   -5.07 KCAL/MOL
REMARK 922        TOTAL FREE ENERGY PREDICTED BY IDOCK:   -5.61 KCAL/MOL
REMARK 923 INTER-LIGAND FREE ENERGY PREDICTED BY IDOCK:   -5.42 KCAL/MOL
REMARK 924 INTRA-LIGAND FREE ENERGY PREDICTED BY IDOCK:   -0.19 KCAL/MOL
REMARK 927      BINDING AFFINITY PREDICTED BY RF-SCORE:    0.00 PKD
ROOT
HETATM    1  C   UNL     1     -10.854   9.291  69.440  1.00  0.00    -0.184 C  
HETATM    2  C   UNL     1     -10.983   8.974  70.947  1.00  0.00    -0.268 C  
HETATM    3  N   UNL     1     -11.595  10.216  71.438  1.00  0.00    -0.312 NA 
HETATM    4  C   UNL     1      -9.616   8.940  71.655  1.00  0.00    -0.363 C  
HETATM    5  C   UNL     1     -12.794  10.188  71.876  1.00  0.00    -0.427 C  
HETATM    6  H   UNL     1     -11.068  11.089  71.430  1.00  0.00     0.000 HD 
HETATM    7  N   UNL     1     -13.395  11.360  72.182  1.00  0.00    -0.568 NA 
HETATM    8  N   UNL     1     -13.519   9.066  72.062  1.00  0.00    -0.410 NA 
HETATM    9  H1  UNL     1     -14.353  11.338  72.532  1.00  0.00     0.000 HD 
HETATM   10  C   UNL     1     -12.988   7.926  71.749  1.00  0.00    -0.325 C  
HETATM   11  H2  UNL     1     -12.902  12.245  72.065  1.00  0.00     0.000 HD 
HETATM   12  N   UNL     1     -11.738   7.714  71.203  1.00  0.00    -0.286 NA 
HETATM   13  N   UNL     1     -13.814   6.863  71.953  1.00  0.00    -0.489 NA 
HETATM   14  H1  UNL     1     -13.396   5.966  71.706  1.00  0.00     0.000 HD 
HETATM   15  H2  UNL     1     -14.761   6.954  72.318  1.00  0.00     0.000 HD 
ENDROOT
BRANCH  12  16
HETATM   16  C   UNL     1     -11.146   6.435  71.005  1.00  0.00    -0.294 A  
HETATM   17  C   UNL     1     -10.717   5.602  72.053  1.00  0.00    -0.291 A  
HETATM   18  C   UNL     1     -10.010   4.405  71.845  1.00  0.00    -0.258 A  
HETATM   19  C   UNL     1      -9.717   3.989  70.557  1.00  0.00    -0.188 A  
HETATM   20  C   UNL     1     -10.177   4.736  69.484  1.00  0.00    -0.180 A  
HETATM   21 CL   UNL     1      -8.786   2.571  70.302  1.00  0.00    -0.130 Cl 
HETATM   22  C   UNL     1     -10.897   5.923  69.713  1.00  0.00    -0.447 A  
ENDBRANCH  12  16
TORSDOF 1
ENDMDL
MODEL       38
REMARK 921   NORMALIZED FREE ENERGY PREDICTED BY IDOCK:   -5.07 KCAL/MOL
REMARK 922        TOTAL FREE ENERGY PREDICTED BY IDOCK:   -5.60 KCAL/MOL
REMARK 923 INTER-LIGAND FREE ENERGY PREDICTED BY IDOCK:   -5.40 KCAL/MOL
REMARK 924 INTRA-LIGAND FREE ENERGY PREDICTED BY IDOCK:   -0.20 KCAL/MOL
REMARK 927      BINDING AFFINITY PREDICTED BY RF-SCORE:    0.00 PKD
ROOT
HETATM    1  C   UNL     1      -9.904  14.856  66.734  1.00  0.00    -0.254 C  
HETATM    2  C   UNL     1     -11.063  13.836  66.668  1.00  0.00    -0.311 C  
HETATM    3  N   UNL     1     -11.837  14.371  65.539  1.00  0.00    -0.357 NA 
HETATM    4  C   UNL     1     -12.027  13.970  67.862  1.00  0.00    -0.387 C  
HETATM    5  C   UNL     1     -11.897  13.702  64.453  1.00  0.00    -0.424 C  
HETATM    6  H   UNL     1     -12.320  15.265  65.622  1.00  0.00     0.000 HD 
HETATM    7  N   UNL     1     -12.483  14.273  63.377  1.00  0.00    -1.101 NA 
HETATM    8  N   UNL     1     -11.419  12.451  64.293  1.00  0.00    -0.340 NA 
HETATM    9  H1  UNL     1     -12.531  13.738  62.510  1.00  0.00     0.000 HD 
HETATM   10  C   UNL     1     -10.821  11.883  65.294  1.00  0.00    -0.297 C  
HETATM   11  H2  UNL     1     -12.867  15.216  63.431  1.00  0.00     0.000 HD 
HETATM   12  N   UNL     1     -10.582  12.431  66.538  1.00  0.00    -0.232 NA 
HETATM   13  N   UNL     1     -10.355  10.634  65.016  1.00  0.00    -0.301 NA 
HETATM   14  H1  UNL     1      -9.884  10.188  65.803  1.00  0.00     0.000 HD 
HETATM   15  H2  UNL     1     -10.465  10.187  64.107  1.00  0.00     0.000 HD 
ENDROOT
BRANCH  12  16
HETATM   16  C   UNL     1     -10.046  11.719  67.648  1.00  0.00    -0.193 A  
HETATM   17  C   UNL     1      -8.674  11.660  67.948  1.00  0.00    -0.154 A  
HETATM   18  C   UNL     1      -8.142  10.843  68.960  1.00  0.00    -0.126 A  
HETATM   19  C   UNL     1      -8.983  10.056  69.728  1.00  0.00    -0.185 A  
HETATM   20  C   UNL     1     -10.351  10.127  69.522  1.00  0.00    -0.263 A  
HETATM   21 CL   UNL     1      -8.330   8.999  70.912  1.00  0.00    -0.219 Cl 
HETATM   22  C   UNL     1     -10.866  10.963  68.513  1.00  0.00    -0.262 A  
ENDBRANCH  12  16
TORSDOF 1
ENDMDL
MODEL       39
REMARK 921   NORMALIZED FREE ENERGY PREDICTED BY IDOCK:   -5.06 KCAL/MOL
REMARK 922        TOTAL FREE ENERGY PREDICTED BY IDOCK:   -5.60 KCAL/MOL
REMARK 923 INTER-LIGAND FREE ENERGY PREDICTED BY IDOCK:   -5.37 KCAL/MOL
REMARK 924 INTRA-LIGAND FREE ENERGY PREDICTED BY IDOCK:   -0.22 KCAL/MOL
REMARK 927      BINDING AFFINITY PREDICTED BY RF-SCORE:    0.00 PKD
ROOT
HETATM    1  C   UNL     1      -7.208  17.371  66.122  1.00  0.00    -0.327 C  
HETATM    2  C   UNL     1      -7.860  17.151  67.506  1.00  0.00    -0.175 C  
HETATM    3  N   UNL     1      -7.059  18.062  68.335  1.00  0.00    -0.238 NA 
HETATM    4  C   UNL     1      -7.541  15.761  68.087  1.00  0.00    -0.128 C  
HETATM    5  C   UNL     1      -7.614  19.099  68.834  1.00  0.00    -0.336 C  
HETATM    6  H   UNL     1      -6.073  17.869  68.511  1.00  0.00     0.000 HD 
HETATM    7  N   UNL     1      -6.834  20.005  69.466  1.00  0.00    -0.279 NA 
HETATM    8  N   UNL     1      -8.935  19.365  68.782  1.00  0.00    -0.372 NA 
HETATM    9  H1  UNL     1      -7.277  20.833  69.865  1.00  0.00     0.000 HD 
HETATM   10  C   UNL     1      -9.710  18.535  68.156  1.00  0.00    -0.339 C  
HETATM   11  H2  UNL     1      -5.826  19.864  69.542  1.00  0.00     0.000 HD 
HETATM   12  N   UNL     1      -9.332  17.387  67.489  1.00  0.00    -0.232 NA 
HETATM   13  N   UNL     1     -11.018  18.912  68.143  1.00  0.00    -0.231 NA 
HETATM   14  H1  UNL     1     -11.627  18.259  67.650  1.00  0.00     0.000 HD 
HETATM   15  H2  UNL     1     -11.357  19.766  68.584  1.00  0.00     0.000 HD 
ENDROOT
BRANCH  12  16
HETATM   16  C   UNL     1     -10.235  16.437  66.936  1.00  0.00    -0.290 A  
HETATM   17  C   UNL     1     -10.981  15.527  67.705  1.00  0.00    -0.317 A  
HETATM   18  C   UNL     1     -11.762  14.503  67.144  1.00  0.00    -0.420 A  
HETATM   19  C   UNL     1     -11.835  14.363  65.768  1.00  0.00    -0.364 A  
HETATM   20  C   UNL     1     -11.176  15.275  64.960  1.00  0.00    -0.409 A  
HETATM   21 CL   UNL     1     -12.724  13.067  65.081  1.00  0.00    -0.536 Cl 
HETATM   22  C   UNL     1     -10.411  16.303  65.541  1.00  0.00    -0.383 A  
ENDBRANCH  12  16
TORSDOF 1
ENDMDL
MODEL       40
REMARK 921   NORMALIZED FREE ENERGY PREDICTED BY IDOCK:   -5.00 KCAL/MOL
REMARK 922        TOTAL FREE ENERGY PREDICTED BY IDOCK:   -5.52 KCAL/MOL
REMARK 923 INTER-LIGAND FREE ENERGY PREDICTED BY IDOCK:   -5.31 KCAL/MOL
REMARK 924 INTRA-LIGAND FREE ENERGY PREDICTED BY IDOCK:   -0.22 KCAL/MOL
REMARK 927      BINDING AFFINITY PREDICTED BY RF-SCORE:    0.00 PKD
ROOT
HETATM    1  C   UNL     1     -11.852  15.540  69.801  1.00  0.00    -0.376 C  
HETATM    2  C   UNL     1     -10.766  14.921  68.894  1.00  0.00    -0.245 C  
HETATM    3  N   UNL     1     -11.126  13.498  68.965  1.00  0.00    -0.273 NA 
HETATM    4  C   UNL     1      -9.369  14.971  69.539  1.00  0.00    -0.070 C  
HETATM    5  C   UNL     1     -11.572  12.916  67.918  1.00  0.00    -0.345 C  
HETATM    6  H   UNL     1     -11.021  12.981  69.837  1.00  0.00     0.000 HD 
HETATM    7  N   UNL     1     -12.041  11.654  68.035  1.00  0.00    -0.572 NA 
HETATM    8  N   UNL     1     -11.611  13.469  66.689  1.00  0.00    -0.346 NA 
HETATM    9  H1  UNL     1     -12.397  11.189  67.199  1.00  0.00     0.000 HD 
HETATM   10  C   UNL     1     -11.200  14.690  66.545  1.00  0.00    -0.346 C  
HETATM   11  H2  UNL     1     -12.039  11.177  68.937  1.00  0.00     0.000 HD 
HETATM   12  N   UNL     1     -10.737  15.533  67.535  1.00  0.00    -0.295 NA 
HETATM   13  N   UNL     1     -11.307  15.156  65.270  1.00  0.00    -0.341 NA 
HETATM   14  H1  UNL     1     -10.984  16.117  65.157  1.00  0.00     0.000 HD 
HETATM   15  H2  UNL     1     -11.675  14.598  64.501  1.00  0.00     0.000 HD 
ENDROOT
BRANCH  12  16
HETATM   16  C   UNL     1     -10.169  16.817  67.305  1.00  0.00    -0.292 A  
HETATM   17  C   UNL     1      -8.888  17.018  66.762  1.00  0.00    -0.267 A  
HETATM   18  C   UNL     1      -8.281  18.283  66.669  1.00  0.00    -0.282 A  
HETATM   19  C   UNL     1      -8.956  19.409  67.111  1.00  0.00    -0.297 A  
HETATM   20  C   UNL     1     -10.249  19.277  67.590  1.00  0.00    -0.507 A  
HETATM   21 CL   UNL     1      -8.188  20.943  67.071  1.00  0.00    -0.198 Cl 
HETATM   22  C   UNL     1     -10.845  18.004  67.661  1.00  0.00    -0.257 A  
ENDBRANCH  12  16
TORSDOF 1
ENDMDL
MODEL       41
REMARK 921   NORMALIZED FREE ENERGY PREDICTED BY IDOCK:   -4.98 KCAL/MOL
REMARK 922        TOTAL FREE ENERGY PREDICTED BY IDOCK:   -5.51 KCAL/MOL
REMARK 923 INTER-LIGAND FREE ENERGY PREDICTED BY IDOCK:   -5.38 KCAL/MOL
REMARK 924 INTRA-LIGAND FREE ENERGY PREDICTED BY IDOCK:   -0.13 KCAL/MOL
REMARK 927      BINDING AFFINITY PREDICTED BY RF-SCORE:    0.00 PKD
ROOT
HETATM    1  C   UNL     1     -10.125  20.283  68.067  1.00  0.00    -0.451 C  
HETATM    2  C   UNL     1      -9.642  19.352  66.932  1.00  0.00    -0.339 C  
HETATM    3  N   UNL     1      -8.736  20.251  66.204  1.00  0.00    -0.576 NA 
HETATM    4  C   UNL     1     -10.754  19.055  65.909  1.00  0.00    -0.404 C  
HETATM    5  C   UNL     1      -7.482  20.009  66.210  1.00  0.00    -0.299 C  
HETATM    6  H   UNL     1      -9.104  21.058  65.701  1.00  0.00     0.000 HD 
HETATM    7  N   UNL     1      -6.648  20.924  65.667  1.00  0.00    -0.462 NA 
HETATM    8  N   UNL     1      -6.916  18.896  66.720  1.00  0.00    -0.197 NA 
HETATM    9  H1  UNL     1      -5.646  20.730  65.671  1.00  0.00     0.000 HD 
HETATM   10  C   UNL     1      -7.682  18.011  67.278  1.00  0.00    -0.209 C  
HETATM   11  H2  UNL     1      -7.011  21.787  65.263  1.00  0.00     0.000 HD 
HETATM   12  N   UNL     1      -9.050  18.083  67.445  1.00  0.00    -0.248 NA 
HETATM   13  N   UNL     1      -7.006  16.942  67.781  1.00  0.00    -0.138 NA 
HETATM   14  H1  UNL     1      -7.608  16.246  68.221  1.00  0.00     0.000 HD 
HETATM   15  H2  UNL     1      -5.993  16.845  67.724  1.00  0.00     0.000 HD 
ENDROOT
BRANCH  12  16
HETATM   16  C   UNL     1      -9.863  17.026  67.941  1.00  0.00    -0.269 A  
HETATM   17  C   UNL     1     -10.100  16.798  69.307  1.00  0.00    -0.240 A  
HETATM   18  C   UNL     1     -10.788  15.672  69.792  1.00  0.00    -0.310 A  
HETATM   19  C   UNL     1     -11.282  14.728  68.906  1.00  0.00    -0.266 A  
HETATM   20  C   UNL     1     -11.138  14.938  67.545  1.00  0.00    -0.319 A  
HETATM   21 CL   UNL     1     -12.053  13.314  69.498  1.00  0.00    -0.344 Cl 
HETATM   22  C   UNL     1     -10.459  16.080  67.079  1.00  0.00    -0.307 A  
ENDBRANCH  12  16
TORSDOF 1
ENDMDL
MODEL       42
REMARK 921   NORMALIZED FREE ENERGY PREDICTED BY IDOCK:   -4.95 KCAL/MOL
REMARK 922        TOTAL FREE ENERGY PREDICTED BY IDOCK:   -5.47 KCAL/MOL
REMARK 923 INTER-LIGAND FREE ENERGY PREDICTED BY IDOCK:   -5.64 KCAL/MOL
REMARK 924 INTRA-LIGAND FREE ENERGY PREDICTED BY IDOCK:    0.17 KCAL/MOL
REMARK 927      BINDING AFFINITY PREDICTED BY RF-SCORE:    0.00 PKD
ROOT
HETATM    1  C   UNL     1     -10.744   9.416  66.576  1.00  0.00    -0.012 C  
HETATM    2  C   UNL     1     -10.359  10.869  66.217  1.00  0.00    -0.250 C  
HETATM    3  N   UNL     1      -9.971  10.711  64.808  1.00  0.00    -0.303 NA 
HETATM    4  C   UNL     1      -9.053  11.313  66.903  1.00  0.00    -0.172 C  
HETATM    5  C   UNL     1     -10.693  11.245  63.901  1.00  0.00    -0.384 C  
HETATM    6  H   UNL     1      -9.136  10.181  64.559  1.00  0.00     0.000 HD 
HETATM    7  N   UNL     1     -10.412  10.966  62.608  1.00  0.00    -0.723 NA 
HETATM    8  N   UNL     1     -11.726  12.080  64.132  1.00  0.00    -0.372 NA 
HETATM    9  H1  UNL     1     -10.989  11.393  61.883  1.00  0.00     0.000 HD 
HETATM   10  C   UNL     1     -12.046  12.345  65.361  1.00  0.00    -0.365 C  
HETATM   11  H2  UNL     1      -9.643  10.343  62.364  1.00  0.00     0.000 HD 
HETATM   12  N   UNL     1     -11.455  11.839  66.501  1.00  0.00    -0.456 NA 
HETATM   13  N   UNL     1     -13.118  13.176  65.480  1.00  0.00    -0.474 NA 
HETATM   14  H1  UNL     1     -13.369  13.384  66.446  1.00  0.00     0.000 HD 
HETATM   15  H2  UNL     1     -13.622  13.555  64.679  1.00  0.00     0.000 HD 
ENDROOT
BRANCH  12  16
HETATM   16  C   UNL     1     -11.751  12.266  67.825  1.00  0.00    -0.337 A  
HETATM   17  C   UNL     1     -12.044  11.387  68.882  1.00  0.00    -0.285 A  
HETATM   18  C   UNL     1     -12.470  11.821  70.149  1.00  0.00    -0.182 A  
HETATM   19  C   UNL     1     -12.606  13.175  70.407  1.00  0.00    -0.116 A  
HETATM   20  C   UNL     1     -12.264  14.089  69.423  1.00  0.00    -0.336 A  
HETATM   21 CL   UNL     1     -13.201  13.706  71.926  1.00  0.00    -0.467 Cl 
HETATM   22  C   UNL     1     -11.824  13.634  68.166  1.00  0.00    -0.407 A  
ENDBRANCH  12  16
TORSDOF 1
ENDMDL
MODEL       43
REMARK 921   NORMALIZED FREE ENERGY PREDICTED BY IDOCK:   -4.93 KCAL/MOL
REMARK 922        TOTAL FREE ENERGY PREDICTED BY IDOCK:   -5.46 KCAL/MOL
REMARK 923 INTER-LIGAND FREE ENERGY PREDICTED BY IDOCK:   -5.23 KCAL/MOL
REMARK 924 INTRA-LIGAND FREE ENERGY PREDICTED BY IDOCK:   -0.23 KCAL/MOL
REMARK 927      BINDING AFFINITY PREDICTED BY RF-SCORE:    0.00 PKD
ROOT
HETATM    1  C   UNL     1     -12.391  13.843  66.113  1.00  0.00    -0.504 C  
HETATM    2  C   UNL     1     -11.548  13.513  67.366  1.00  0.00    -0.356 C  
HETATM    3  N   UNL     1     -11.844  12.083  67.528  1.00  0.00    -0.574 NA 
HETATM    4  C   UNL     1     -12.129  14.149  68.643  1.00  0.00    -0.320 C  
HETATM    5  C   UNL     1     -10.913  11.229  67.336  1.00  0.00    -0.282 C  
HETATM    6  H   UNL     1     -12.780  11.776  67.792  1.00  0.00     0.000 HD 
HETATM    7  N   UNL     1     -11.234   9.916  67.340  1.00  0.00    -0.365 NA 
HETATM    8  N   UNL     1      -9.617  11.539  67.129  1.00  0.00    -0.176 NA 
HETATM    9  H1  UNL     1     -10.491   9.234  67.186  1.00  0.00     0.000 HD 
HETATM   10  C   UNL     1      -9.277  12.789  67.086  1.00  0.00    -0.219 C  
HETATM   11  H2  UNL     1     -12.196   9.614  67.492  1.00  0.00     0.000 HD 
HETATM   12  N   UNL     1     -10.113  13.881  67.203  1.00  0.00    -0.249 NA 
HETATM   13  N   UNL     1      -7.952  12.988  66.847  1.00  0.00    -0.401 NA 
HETATM   14  H1  UNL     1      -7.685  13.972  66.813  1.00  0.00     0.000 HD 
HETATM   15  H2  UNL     1      -7.288  12.225  66.714  1.00  0.00     0.000 HD 
ENDROOT
BRANCH  12  16
HETATM   16  C   UNL     1      -9.673  15.232  67.288  1.00  0.00    -0.212 A  
HETATM   17  C   UNL     1      -9.613  16.104  66.187  1.00  0.00    -0.359 A  
HETATM   18  C   UNL     1      -9.048  17.389  66.252  1.00  0.00    -0.232 A  
HETATM   19  C   UNL     1      -8.529  17.857  67.448  1.00  0.00    -0.235 A  
HETATM   20  C   UNL     1      -8.625  17.067  68.582  1.00  0.00    -0.265 A  
HETATM   21 CL   UNL     1      -7.769  19.394  67.513  1.00  0.00    -0.281 Cl 
HETATM   22  C   UNL     1      -9.208  15.789  68.499  1.00  0.00    -0.198 A  
ENDBRANCH  12  16
TORSDOF 1
ENDMDL
MODEL       44
REMARK 921   NORMALIZED FREE ENERGY PREDICTED BY IDOCK:   -4.92 KCAL/MOL
REMARK 922        TOTAL FREE ENERGY PREDICTED BY IDOCK:   -5.45 KCAL/MOL
REMARK 923 INTER-LIGAND FREE ENERGY PREDICTED BY IDOCK:   -5.21 KCAL/MOL
REMARK 924 INTRA-LIGAND FREE ENERGY PREDICTED BY IDOCK:   -0.23 KCAL/MOL
REMARK 927      BINDING AFFINITY PREDICTED BY RF-SCORE:    0.00 PKD
ROOT
HETATM    1  C   UNL     1     -10.756  16.741  69.065  1.00  0.00    -0.331 C  
HETATM    2  C   UNL     1      -9.792  16.852  67.862  1.00  0.00    -0.263 C  
HETATM    3  N   UNL     1      -8.697  17.630  68.458  1.00  0.00    -0.286 NA 
HETATM    4  C   UNL     1     -10.337  17.781  66.761  1.00  0.00    -0.343 C  
HETATM    5  C   UNL     1      -7.561  17.073  68.631  1.00  0.00    -0.238 C  
HETATM    6  H   UNL     1      -8.842  18.602  68.728  1.00  0.00     0.000 HD 
HETATM    7  N   UNL     1      -6.611  17.748  69.316  1.00  0.00    -0.254 NA 
HETATM    8  N   UNL     1      -7.228  15.847  68.178  1.00  0.00    -0.124 NA 
HETATM    9  H1  UNL     1      -5.704  17.303  69.455  1.00  0.00     0.000 HD 
HETATM   10  C   UNL     1      -8.124  15.156  67.545  1.00  0.00    -0.177 C  
HETATM   11  H2  UNL     1      -6.797  18.681  69.686  1.00  0.00     0.000 HD 
HETATM   12  N   UNL     1      -9.431  15.522  67.294  1.00  0.00    -0.211 NA 
HETATM   13  N   UNL     1      -7.691  13.926  67.154  1.00  0.00    -0.362 NA 
HETATM   14  H1  UNL     1      -8.396  13.382  66.657  1.00  0.00     0.000 HD 
HETATM   15  H2  UNL     1      -6.750  13.580  67.341  1.00  0.00     0.000 HD 
ENDROOT
BRANCH  12  16
HETATM   16  C   UNL     1     -10.335  14.788  66.476  1.00  0.00    -0.286 A  
HETATM   17  C   UNL     1     -11.363  13.975  66.983  1.00  0.00    -0.346 A  
HETATM   18  C   UNL     1     -12.161  13.147  66.174  1.00  0.00    -0.479 A  
HETATM   19  C   UNL     1     -11.959  13.117  64.804  1.00  0.00    -0.388 A  
HETATM   20  C   UNL     1     -11.006  13.950  64.242  1.00  0.00    -0.219 A  
HETATM   21 CL   UNL     1     -12.877  12.049  63.823  1.00  0.00    -0.529 Cl 
HETATM   22  C   UNL     1     -10.229  14.784  65.068  1.00  0.00    -0.379 A  
ENDBRANCH  12  16
TORSDOF 1
ENDMDL
MODEL       45
REMARK 921   NORMALIZED FREE ENERGY PREDICTED BY IDOCK:   -4.92 KCAL/MOL
REMARK 922        TOTAL FREE ENERGY PREDICTED BY IDOCK:   -5.44 KCAL/MOL
REMARK 923 INTER-LIGAND FREE ENERGY PREDICTED BY IDOCK:   -5.21 KCAL/MOL
REMARK 924 INTRA-LIGAND FREE ENERGY PREDICTED BY IDOCK:   -0.23 KCAL/MOL
REMARK 927      BINDING AFFINITY PREDICTED BY RF-SCORE:    0.00 PKD
ROOT
HETATM    1  C   UNL     1     -10.261  18.370  68.134  1.00  0.00    -0.410 C  
HETATM    2  C   UNL     1      -9.863  16.948  67.680  1.00  0.00    -0.259 C  
HETATM    3  N   UNL     1      -8.719  17.248  66.806  1.00  0.00    -0.239 NA 
HETATM    4  C   UNL     1     -10.897  16.331  66.720  1.00  0.00    -0.125 C  
HETATM    5  C   UNL     1      -7.550  16.881  67.165  1.00  0.00    -0.179 C  
HETATM    6  H   UNL     1      -8.858  17.742  65.925  1.00  0.00     0.000 HD 
HETATM    7  N   UNL     1      -6.493  17.295  66.430  1.00  0.00    -0.230 NA 
HETATM    8  N   UNL     1      -7.282  16.102  68.232  1.00  0.00    -0.132 NA 
HETATM    9  H1  UNL     1      -5.558  17.001  66.717  1.00  0.00     0.000 HD 
HETATM   10  C   UNL     1      -8.267  15.713  68.979  1.00  0.00    -0.233 C  
HETATM   11  H2  UNL     1      -6.626  17.885  65.610  1.00  0.00     0.000 HD 
HETATM   12  N   UNL     1      -9.601  16.033  68.827  1.00  0.00    -0.211 NA 
HETATM   13  N   UNL     1      -7.882  14.953  70.042  1.00  0.00    -0.333 NA 
HETATM   14  H1  UNL     1      -8.658  14.648  70.629  1.00  0.00     0.000 HD 
HETATM   15  H2  UNL     1      -6.910  14.712  70.232  1.00  0.00     0.000 HD 
ENDROOT
BRANCH  12  16
HETATM   16  C   UNL     1     -10.662  15.470  69.591  1.00  0.00    -0.271 A  
HETATM   17  C   UNL     1     -11.231  16.094  70.715  1.00  0.00    -0.356 A  
HETATM   18  C   UNL     1     -12.180  15.470  71.544  1.00  0.00    -0.462 A  
HETATM   19  C   UNL     1     -12.607  14.184  71.260  1.00  0.00    -0.363 A  
HETATM   20  C   UNL     1     -12.132  13.548  70.125  1.00  0.00    -0.425 A  
HETATM   21 CL   UNL     1     -13.706  13.391  72.313  1.00  0.00    -0.673 Cl 
HETATM   22  C   UNL     1     -11.194  14.196  69.299  1.00  0.00    -0.308 A  
ENDBRANCH  12  16
TORSDOF 1
ENDMDL
MODEL       46
REMARK 921   NORMALIZED FREE ENERGY PREDICTED BY IDOCK:   -4.91 KCAL/MOL
REMARK 922        TOTAL FREE ENERGY PREDICTED BY IDOCK:   -5.44 KCAL/MOL
REMARK 923 INTER-LIGAND FREE ENERGY PREDICTED BY IDOCK:   -5.20 KCAL/MOL
REMARK 924 INTRA-LIGAND FREE ENERGY PREDICTED BY IDOCK:   -0.24 KCAL/MOL
REMARK 927      BINDING AFFINITY PREDICTED BY RF-SCORE:    0.00 PKD
ROOT
HETATM    1  C   UNL     1     -12.342  14.056  66.549  1.00  0.00    -0.442 C  
HETATM    2  C   UNL     1     -11.319  14.139  67.705  1.00  0.00    -0.319 C  
HETATM    3  N   UNL     1     -11.926  15.188  68.536  1.00  0.00    -0.549 NA 
HETATM    4  C   UNL     1      -9.983  14.761  67.258  1.00  0.00    -0.231 C  
HETATM    5  C   UNL     1     -12.393  14.879  69.684  1.00  0.00    -0.208 C  
HETATM    6  H   UNL     1     -11.974  16.149  68.200  1.00  0.00     0.000 HD 
HETATM    7  N   UNL     1     -13.081  15.818  70.372  1.00  0.00    -0.743 NA 
HETATM    8  N   UNL     1     -12.248  13.676  70.275  1.00  0.00    -0.349 NA 
HETATM    9  H1  UNL     1     -13.454  15.571  71.289  1.00  0.00     0.000 HD 
HETATM   10  C   UNL     1     -11.622  12.740  69.632  1.00  0.00    -0.252 C  
HETATM   11  H2  UNL     1     -13.226  16.749  69.982  1.00  0.00     0.000 HD 
HETATM   12  N   UNL     1     -11.089  12.820  68.361  1.00  0.00    -0.246 NA 
HETATM   13  N   UNL     1     -11.555  11.560  70.308  1.00  0.00    -0.504 NA 
HETATM   14  H1  UNL     1     -11.063  10.825  69.802  1.00  0.00     0.000 HD 
HETATM   15  H2  UNL     1     -11.960  11.425  71.234  1.00  0.00     0.000 HD 
ENDROOT
BRANCH  12  16
HETATM   16  C   UNL     1     -10.290  11.811  67.752  1.00  0.00    -0.194 A  
HETATM   17  C   UNL     1     -10.780  10.891  66.809  1.00  0.00    -0.309 A  
HETATM   18  C   UNL     1     -10.021   9.814  66.319  1.00  0.00    -0.331 A  
HETATM   19  C   UNL     1      -8.720   9.629  66.755  1.00  0.00    -0.134 A  
HETATM   20  C   UNL     1      -8.163  10.547  67.631  1.00  0.00    -0.111 A  
HETATM   21 CL   UNL     1      -7.818   8.271  66.219  1.00  0.00    -0.096 Cl 
HETATM   22  C   UNL     1      -8.934  11.627  68.098  1.00  0.00    -0.182 A  
ENDBRANCH  12  16
TORSDOF 1
ENDMDL
MODEL       47
REMARK 921   NORMALIZED FREE ENERGY PREDICTED BY IDOCK:   -4.90 KCAL/MOL
REMARK 922        TOTAL FREE ENERGY PREDICTED BY IDOCK:   -5.43 KCAL/MOL
REMARK 923 INTER-LIGAND FREE ENERGY PREDICTED BY IDOCK:   -5.23 KCAL/MOL
REMARK 924 INTRA-LIGAND FREE ENERGY PREDICTED BY IDOCK:   -0.19 KCAL/MOL
REMARK 927      BINDING AFFINITY PREDICTED BY RF-SCORE:    0.00 PKD
ROOT
HETATM    1  C   UNL     1     -10.376  12.816  63.845  1.00  0.00    -0.352 C  
HETATM    2  C   UNL     1     -10.963  12.437  65.224  1.00  0.00    -0.298 C  
HETATM    3  N   UNL     1     -10.896  10.971  65.158  1.00  0.00    -0.173 NA 
HETATM    4  C   UNL     1     -12.474  12.725  65.313  1.00  0.00    -0.528 C  
HETATM    5  C   UNL     1     -10.090  10.350  65.930  1.00  0.00    -0.261 C  
HETATM    6  H   UNL     1     -11.487  10.455  64.505  1.00  0.00     0.000 HD 
HETATM    7  N   UNL     1      -9.928   9.019  65.754  1.00  0.00    -0.440 NA 
HETATM    8  N   UNL     1      -9.379  10.924  66.921  1.00  0.00    -0.167 NA 
HETATM    9  H1  UNL     1      -9.284   8.523  66.371  1.00  0.00     0.000 HD 
HETATM   10  C   UNL     1      -9.483  12.204  67.098  1.00  0.00    -0.190 C  
HETATM   11  H2  UNL     1     -10.437   8.523  65.023  1.00  0.00     0.000 HD 
HETATM   12  N   UNL     1     -10.239  13.087  66.353  1.00  0.00    -0.273 NA 
HETATM   13  N   UNL     1      -8.704  12.683  68.107  1.00  0.00    -0.186 NA 
HETATM   14  H1  UNL     1      -8.786  13.690  68.246  1.00  0.00     0.000 HD 
HETATM   15  H2  UNL     1      -8.095  12.090  68.671  1.00  0.00     0.000 HD 
ENDROOT
BRANCH  12  16
HETATM   16  C   UNL     1     -10.428  14.461  66.671  1.00  0.00    -0.274 A  
HETATM   17  C   UNL     1      -9.868  15.518  65.934  1.00  0.00    -0.385 A  
HETATM   18  C   UNL     1      -9.945  16.863  66.336  1.00  0.00    -0.321 A  
HETATM   19  C   UNL     1     -10.611  17.199  67.503  1.00  0.00    -0.323 A  
HETATM   20  C   UNL     1     -11.242  16.205  68.232  1.00  0.00    -0.343 A  
HETATM   21 CL   UNL     1     -10.640  18.830  68.037  1.00  0.00    -0.390 Cl 
HETATM   22  C   UNL     1     -11.166  14.866  67.805  1.00  0.00    -0.329 A  
ENDBRANCH  12  16
TORSDOF 1
ENDMDL
MODEL       48
REMARK 921   NORMALIZED FREE ENERGY PREDICTED BY IDOCK:   -4.89 KCAL/MOL
REMARK 922        TOTAL FREE ENERGY PREDICTED BY IDOCK:   -5.42 KCAL/MOL
REMARK 923 INTER-LIGAND FREE ENERGY PREDICTED BY IDOCK:   -5.20 KCAL/MOL
REMARK 924 INTRA-LIGAND FREE ENERGY PREDICTED BY IDOCK:   -0.22 KCAL/MOL
REMARK 927      BINDING AFFINITY PREDICTED BY RF-SCORE:    0.00 PKD
ROOT
HETATM    1  C   UNL     1     -12.257  14.444  67.595  1.00  0.00    -0.200 C  
HETATM    2  C   UNL     1     -11.436  14.189  66.311  1.00  0.00    -0.352 C  
HETATM    3  N   UNL     1     -11.128  15.567  65.903  1.00  0.00    -0.261 NA 
HETATM    4  C   UNL     1     -12.307  13.658  65.158  1.00  0.00    -0.486 C  
HETATM    5  C   UNL     1      -9.918  15.975  65.954  1.00  0.00    -0.352 C  
HETATM    6  H   UNL     1     -11.870  16.189  65.584  1.00  0.00     0.000 HD 
HETATM    7  N   UNL     1      -9.671  17.283  65.722  1.00  0.00    -0.544 NA 
HETATM    8  N   UNL     1      -8.853  15.192  66.221  1.00  0.00    -0.246 NA 
HETATM    9  H1  UNL     1      -8.705  17.609  65.762  1.00  0.00     0.000 HD 
HETATM   10  C   UNL     1      -9.055  13.938  66.481  1.00  0.00    -0.143 C  
HETATM   11  H2  UNL     1     -10.431  17.930  65.512  1.00  0.00     0.000 HD 
HETATM   12  N   UNL     1     -10.271  13.288  66.547  1.00  0.00    -0.277 NA 
HETATM   13  N   UNL     1      -7.916  13.247  66.762  1.00  0.00    -0.367 NA 
HETATM   14  H1  UNL     1      -8.075  12.260  66.966  1.00  0.00     0.000 HD 
HETATM   15  H2  UNL     1      -6.991  13.675  66.767  1.00  0.00     0.000 HD 
ENDROOT
BRANCH  12  16
HETATM   16  C   UNL     1     -10.432  11.883  66.699  1.00  0.00    -0.216 A  
HETATM   17  C   UNL     1     -10.864  11.271  67.889  1.00  0.00    -0.278 A  
HETATM   18  C   UNL     1     -10.886   9.878  68.073  1.00  0.00    -0.294 A  
HETATM   19  C   UNL     1     -10.483   9.037  67.049  1.00  0.00    -0.246 A  
HETATM   20  C   UNL     1     -10.114   9.584  65.831  1.00  0.00    -0.284 A  
HETATM   21 CL   UNL     1     -10.435   7.340  67.298  1.00  0.00    -0.347 Cl 
HETATM   22  C   UNL     1     -10.114  10.981  65.661  1.00  0.00    -0.310 A  
ENDBRANCH  12  16
TORSDOF 1
ENDMDL
MODEL       49
REMARK 921   NORMALIZED FREE ENERGY PREDICTED BY IDOCK:   -4.87 KCAL/MOL
REMARK 922        TOTAL FREE ENERGY PREDICTED BY IDOCK:   -5.39 KCAL/MOL
REMARK 923 INTER-LIGAND FREE ENERGY PREDICTED BY IDOCK:   -5.16 KCAL/MOL
REMARK 924 INTRA-LIGAND FREE ENERGY PREDICTED BY IDOCK:   -0.24 KCAL/MOL
REMARK 927      BINDING AFFINITY PREDICTED BY RF-SCORE:    0.00 PKD
ROOT
HETATM    1  C   UNL     1      -9.226  10.059  69.485  1.00  0.00    -0.238 C  
HETATM    2  C   UNL     1     -10.731  10.117  69.139  1.00  0.00    -0.226 C  
HETATM    3  N   UNL     1     -11.266   9.110  70.065  1.00  0.00    -0.383 NA 
HETATM    4  C   UNL     1     -11.033   9.526  67.750  1.00  0.00    -0.165 C  
HETATM    5  C   UNL     1     -12.020   9.486  71.026  1.00  0.00    -0.328 C  
HETATM    6  H   UNL     1     -11.039   8.123  69.943  1.00  0.00     0.000 HD 
HETATM    7  N   UNL     1     -12.380   8.573  71.955  1.00  0.00    -0.341 NA 
HETATM    8  N   UNL     1     -12.494  10.738  71.186  1.00  0.00    -0.389 NA 
HETATM    9  H1  UNL     1     -12.983   8.873  72.722  1.00  0.00     0.000 HD 
HETATM   10  C   UNL     1     -12.142  11.648  70.332  1.00  0.00    -0.373 C  
HETATM   11  H2  UNL     1     -12.058   7.608  71.892  1.00  0.00     0.000 HD 
HETATM   12  N   UNL     1     -11.291  11.494  69.256  1.00  0.00    -0.264 NA 
HETATM   13  N   UNL     1     -12.656  12.880  70.603  1.00  0.00    -0.231 NA 
HETATM   14  H1  UNL     1     -12.379  13.596  69.931  1.00  0.00     0.000 HD 
HETATM   15  H2  UNL     1     -13.260  13.069  71.402  1.00  0.00     0.000 HD 
ENDROOT
BRANCH  12  16
HETATM   16  C   UNL     1     -11.046  12.488  68.268  1.00  0.00    -0.257 A  
HETATM   17  C   UNL     1      -9.920  13.330  68.271  1.00  0.00    -0.236 A  
HETATM   18  C   UNL     1      -9.757  14.399  67.373  1.00  0.00    -0.220 A  
HETATM   19  C   UNL     1     -10.725  14.654  66.417  1.00  0.00    -0.309 A  
HETATM   20  C   UNL     1     -11.822  13.813  66.324  1.00  0.00    -0.426 A  
HETATM   21 CL   UNL     1     -10.566  16.005  65.370  1.00  0.00    -0.423 Cl 
HETATM   22  C   UNL     1     -11.960  12.738  67.222  1.00  0.00    -0.345 A  
ENDBRANCH  12  16
TORSDOF 1
ENDMDL
MODEL       50
REMARK 921   NORMALIZED FREE ENERGY PREDICTED BY IDOCK:   -4.87 KCAL/MOL
REMARK 922        TOTAL FREE ENERGY PREDICTED BY IDOCK:   -5.39 KCAL/MOL
REMARK 923 INTER-LIGAND FREE ENERGY PREDICTED BY IDOCK:   -5.17 KCAL/MOL
REMARK 924 INTRA-LIGAND FREE ENERGY PREDICTED BY IDOCK:   -0.22 KCAL/MOL
REMARK 927      BINDING AFFINITY PREDICTED BY RF-SCORE:    0.00 PKD
ROOT
HETATM    1  C   UNL     1     -12.140  12.698  68.297  1.00  0.00    -0.135 C  
HETATM    2  C   UNL     1     -11.805  13.749  67.215  1.00  0.00    -0.401 C  
HETATM    3  N   UNL     1     -11.950  14.992  67.985  1.00  0.00    -0.521 NA 
HETATM    4  C   UNL     1     -12.909  13.857  66.146  1.00  0.00    -0.202 C  
HETATM    5  C   UNL     1     -10.913  15.697  68.229  1.00  0.00    -0.315 C  
HETATM    6  H   UNL     1     -12.866  15.289  68.320  1.00  0.00     0.000 HD 
HETATM    7  N   UNL     1     -11.035  16.754  69.063  1.00  0.00    -0.281 NA 
HETATM    8  N   UNL     1      -9.689  15.470  67.710  1.00  0.00    -0.211 NA 
HETATM    9  H1  UNL     1     -10.207  17.317  69.257  1.00  0.00     0.000 HD 
HETATM   10  C   UNL     1      -9.526  14.446  66.931  1.00  0.00    -0.258 C  
HETATM   11  H2  UNL     1     -11.933  16.982  69.488  1.00  0.00     0.000 HD 
HETATM   12  N   UNL     1     -10.479  13.512  66.577  1.00  0.00    -0.281 NA 
HETATM   13  N   UNL     1      -8.249  14.295  66.485  1.00  0.00    -0.255 NA 
HETATM   14  H1  UNL     1      -8.121  13.489  65.873  1.00  0.00     0.000 HD 
HETATM   15  H2  UNL     1      -7.491  14.928  66.739  1.00  0.00     0.000 HD 
ENDROOT
BRANCH  12  16
HETATM   16  C   UNL     1     -10.287  12.485  65.610  1.00  0.00    -0.271 A  
HETATM   17  C   UNL     1      -9.889  11.176  65.931  1.00  0.00    -0.275 A  
HETATM   18  C   UNL     1      -9.568  10.210  64.961  1.00  0.00    -0.362 A  
HETATM   19  C   UNL     1      -9.651  10.526  63.615  1.00  0.00    -0.320 A  
HETATM   20  C   UNL     1     -10.105  11.780  63.242  1.00  0.00    -0.448 A  
HETATM   21 CL   UNL     1      -9.185   9.375  62.431  1.00  0.00    -0.209 Cl 
HETATM   22  C   UNL     1     -10.437  12.728  64.228  1.00  0.00    -0.423 A  
ENDBRANCH  12  16
TORSDOF 1
ENDMDL
MODEL       51
REMARK 921   NORMALIZED FREE ENERGY PREDICTED BY IDOCK:   -4.85 KCAL/MOL
REMARK 922        TOTAL FREE ENERGY PREDICTED BY IDOCK:   -5.38 KCAL/MOL
REMARK 923 INTER-LIGAND FREE ENERGY PREDICTED BY IDOCK:   -5.14 KCAL/MOL
REMARK 924 INTRA-LIGAND FREE ENERGY PREDICTED BY IDOCK:   -0.23 KCAL/MOL
REMARK 927      BINDING AFFINITY PREDICTED BY RF-SCORE:    0.00 PKD
ROOT
HETATM    1  C   UNL     1     -11.788  14.093  67.925  1.00  0.00    -0.405 C  
HETATM    2  C   UNL     1     -10.794  13.897  66.758  1.00  0.00    -0.286 C  
HETATM    3  N   UNL     1     -11.711  13.910  65.610  1.00  0.00    -0.341 NA 
HETATM    4  C   UNL     1     -10.200  12.476  66.730  1.00  0.00    -0.243 C  
HETATM    5  C   UNL     1     -11.659  14.883  64.784  1.00  0.00    -0.410 C  
HETATM    6  H   UNL     1     -12.379  13.152  65.474  1.00  0.00     0.000 HD 
HETATM    7  N   UNL     1     -12.606  14.960  63.822  1.00  0.00    -0.981 NA 
HETATM    8  N   UNL     1     -10.721  15.851  64.794  1.00  0.00    -0.576 NA 
HETATM    9  H1  UNL     1     -12.564  15.737  63.162  1.00  0.00     0.000 HD 
HETATM   10  C   UNL     1      -9.817  15.829  65.723  1.00  0.00    -0.348 C  
HETATM   11  H2  UNL     1     -13.343  14.258  63.757  1.00  0.00     0.000 HD 
HETATM   12  N   UNL     1      -9.708  14.918  66.754  1.00  0.00    -0.242 NA 
HETATM   13  N   UNL     1      -8.936  16.866  65.654  1.00  0.00    -0.416 NA 
HETATM   14  H1  UNL     1      -8.225  16.848  66.385  1.00  0.00     0.000 HD 
HETATM   15  H2  UNL     1      -8.984  17.591  64.940  1.00  0.00     0.000 HD 
ENDROOT
BRANCH  12  16
HETATM   16  C   UNL     1      -8.618  14.855  67.667  1.00  0.00    -0.174 A  
HETATM   17  C   UNL     1      -7.417  14.174  67.403  1.00  0.00    -0.155 A  
HETATM   18  C   UNL     1      -6.404  14.000  68.362  1.00  0.00    -0.105 A  
HETATM   19  C   UNL     1      -6.558  14.523  69.635  1.00  0.00    -0.153 A  
HETATM   20  C   UNL     1      -7.692  15.263  69.929  1.00  0.00     0.030 A  
HETATM   21 CL   UNL     1      -5.360  14.244  70.831  1.00  0.00    -0.131 Cl 
HETATM   22  C   UNL     1      -8.688  15.439  68.950  1.00  0.00    -0.208 A  
ENDBRANCH  12  16
TORSDOF 1
ENDMDL
MODEL       52
REMARK 921   NORMALIZED FREE ENERGY PREDICTED BY IDOCK:   -4.83 KCAL/MOL
REMARK 922        TOTAL FREE ENERGY PREDICTED BY IDOCK:   -5.35 KCAL/MOL
REMARK 923 INTER-LIGAND FREE ENERGY PREDICTED BY IDOCK:   -5.12 KCAL/MOL
REMARK 924 INTRA-LIGAND FREE ENERGY PREDICTED BY IDOCK:   -0.24 KCAL/MOL
REMARK 927      BINDING AFFINITY PREDICTED BY RF-SCORE:    0.00 PKD
ROOT
HETATM    1  C   UNL     1     -10.194   8.636  67.368  1.00  0.00    -0.329 C  
HETATM    2  C   UNL     1     -10.117   9.689  68.496  1.00  0.00    -0.175 C  
HETATM    3  N   UNL     1     -10.276  10.931  67.726  1.00  0.00    -0.176 NA 
HETATM    4  C   UNL     1      -8.699   9.810  69.085  1.00  0.00    -0.155 C  
HETATM    5  C   UNL     1     -11.336  11.627  67.880  1.00  0.00    -0.299 C  
HETATM    6  H   UNL     1      -9.549  11.233  67.078  1.00  0.00     0.000 HD 
HETATM    7  N   UNL     1     -11.538  12.681  67.059  1.00  0.00    -0.346 NA 
HETATM    8  N   UNL     1     -12.281  11.391  68.813  1.00  0.00    -0.494 NA 
HETATM    9  H1  UNL     1     -12.384  13.237  67.182  1.00  0.00     0.000 HD 
HETATM   10  C   UNL     1     -12.138  10.369  69.597  1.00  0.00    -0.097 C  
HETATM   11  H2  UNL     1     -10.861  12.915  66.333  1.00  0.00     0.000 HD 
HETATM   12  N   UNL     1     -11.114   9.444  69.577  1.00  0.00    -0.169 NA 
HETATM   13  N   UNL     1     -13.161  10.211  70.482  1.00  0.00    -0.589 NA 
HETATM   14  H1  UNL     1     -13.048   9.406  71.099  1.00  0.00     0.000 HD 
HETATM   15  H2  UNL     1     -13.964  10.836  70.524  1.00  0.00     0.000 HD 
ENDROOT
BRANCH  12  16
HETATM   16  C   UNL     1     -10.928   8.420  70.547  1.00  0.00    -0.242 A  
HETATM   17  C   UNL     1     -11.346   7.090  70.368  1.00  0.00    -0.354 A  
HETATM   18  C   UNL     1     -11.284   6.120  71.384  1.00  0.00    -0.346 A  
HETATM   19  C   UNL     1     -10.779   6.454  72.630  1.00  0.00    -0.234 A  
HETATM   20  C   UNL     1     -10.289   7.732  72.840  1.00  0.00    -0.396 A  
HETATM   21 CL   UNL     1     -10.775   5.294  73.895  1.00  0.00    -0.329 Cl 
HETATM   22  C   UNL     1     -10.345   8.684  71.806  1.00  0.00    -0.386 A  
ENDBRANCH  12  16
TORSDOF 1
ENDMDL
MODEL       53
REMARK 921   NORMALIZED FREE ENERGY PREDICTED BY IDOCK:   -4.77 KCAL/MOL
REMARK 922        TOTAL FREE ENERGY PREDICTED BY IDOCK:   -5.29 KCAL/MOL
REMARK 923 INTER-LIGAND FREE ENERGY PREDICTED BY IDOCK:   -5.10 KCAL/MOL
REMARK 924 INTRA-LIGAND FREE ENERGY PREDICTED BY IDOCK:   -0.18 KCAL/MOL
REMARK 927      BINDING AFFINITY PREDICTED BY RF-SCORE:    0.00 PKD
ROOT
HETATM    1  C   UNL     1      -9.359   9.730  64.669  1.00  0.00    -0.318 C  
HETATM    2  C   UNL     1      -9.147  10.439  66.026  1.00  0.00    -0.162 C  
HETATM    3  N   UNL     1      -9.014  11.835  65.589  1.00  0.00    -0.407 NA 
HETATM    4  C   UNL     1      -7.771  10.122  66.640  1.00  0.00    -0.106 C  
HETATM    5  C   UNL     1      -9.926  12.674  65.901  1.00  0.00    -0.264 C  
HETATM    6  H   UNL     1      -8.205  12.132  65.044  1.00  0.00     0.000 HD 
HETATM    7  N   UNL     1      -9.870  13.914  65.367  1.00  0.00    -0.544 NA 
HETATM    8  N   UNL     1     -10.954  12.416  66.735  1.00  0.00    -0.252 NA 
HETATM    9  H1  UNL     1     -10.598  14.584  65.617  1.00  0.00     0.000 HD 
HETATM   10  C   UNL     1     -11.060  11.227  67.240  1.00  0.00    -0.305 C  
HETATM   11  H2  UNL     1      -9.117  14.175  64.729  1.00  0.00     0.000 HD 
HETATM   12  N   UNL     1     -10.236  10.146  67.000  1.00  0.00    -0.222 NA 
HETATM   13  N   UNL     1     -12.146  11.070  68.046  1.00  0.00    -0.727 NA 
HETATM   14  H1  UNL     1     -12.229  10.134  68.444  1.00  0.00     0.000 HD 
HETATM   15  H2  UNL     1     -12.814  11.817  68.235  1.00  0.00     0.000 HD 
ENDROOT
BRANCH  12  16
HETATM   16  C   UNL     1     -10.312   8.901  67.685  1.00  0.00    -0.251 A  
HETATM   17  C   UNL     1      -9.979   8.734  69.041  1.00  0.00    -0.197 A  
HETATM   18  C   UNL     1      -9.924   7.479  69.671  1.00  0.00    -0.184 A  
HETATM   19  C   UNL     1     -10.220   6.331  68.955  1.00  0.00    -0.181 A  
HETATM   20  C   UNL     1     -10.622   6.443  67.634  1.00  0.00    -0.340 A  
HETATM   21 CL   UNL     1     -10.077   4.792  69.699  1.00  0.00    -0.302 Cl 
HETATM   22  C   UNL     1     -10.686   7.711  67.025  1.00  0.00    -0.340 A  
ENDBRANCH  12  16
TORSDOF 1
ENDMDL
MODEL       54
REMARK 921   NORMALIZED FREE ENERGY PREDICTED BY IDOCK:   -4.76 KCAL/MOL
REMARK 922        TOTAL FREE ENERGY PREDICTED BY IDOCK:   -5.27 KCAL/MOL
REMARK 923 INTER-LIGAND FREE ENERGY PREDICTED BY IDOCK:   -5.12 KCAL/MOL
REMARK 924 INTRA-LIGAND FREE ENERGY PREDICTED BY IDOCK:   -0.15 KCAL/MOL
REMARK 927      BINDING AFFINITY PREDICTED BY RF-SCORE:    0.00 PKD
ROOT
HETATM    1  C   UNL     1     -11.851  16.134  68.354  1.00  0.00     0.018 C  
HETATM    2  C   UNL     1     -11.240  14.988  67.516  1.00  0.00    -0.330 C  
HETATM    3  N   UNL     1     -10.415  15.750  66.568  1.00  0.00    -0.299 NA 
HETATM    4  C   UNL     1     -12.284  14.303  66.616  1.00  0.00    -0.411 C  
HETATM    5  C   UNL     1      -9.143  15.659  66.638  1.00  0.00    -0.282 C  
HETATM    6  H   UNL     1     -10.852  16.344  65.864  1.00  0.00     0.000 HD 
HETATM    7  N   UNL     1      -8.396  16.478  65.863  1.00  0.00    -0.344 NA 
HETATM    8  N   UNL     1      -8.476  14.796  67.431  1.00  0.00    -0.188 NA 
HETATM    9  H1  UNL     1      -7.380  16.404  65.918  1.00  0.00     0.000 HD 
HETATM   10  C   UNL     1      -9.158  14.018  68.212  1.00  0.00    -0.191 C  
HETATM   11  H2  UNL     1      -8.838  17.153  65.239  1.00  0.00     0.000 HD 
HETATM   12  N   UNL     1     -10.530  13.981  68.356  1.00  0.00    -0.246 NA 
HETATM   13  N   UNL     1      -8.386  13.207  68.987  1.00  0.00    -0.312 NA 
HETATM   14  H1  UNL     1      -8.923  12.595  69.601  1.00  0.00     0.000 HD 
HETATM   15  H2  UNL     1      -7.367  13.211  68.956  1.00  0.00     0.000 HD 
ENDROOT
BRANCH  12  16
HETATM   16  C   UNL     1     -11.239  13.015  69.123  1.00  0.00    -0.241 A  
HETATM   17  C   UNL     1     -11.962  13.321  70.289  1.00  0.00    -0.372 A  
HETATM   18  C   UNL     1     -12.542  12.342  71.115  1.00  0.00    -0.349 A  
HETATM   19  C   UNL     1     -12.425  11.002  70.786  1.00  0.00    -0.396 A  
HETATM   20  C   UNL     1     -11.783  10.647  69.611  1.00  0.00    -0.368 A  
HETATM   21 CL   UNL     1     -13.064   9.801  71.833  1.00  0.00    -0.509 Cl 
HETATM   22  C   UNL     1     -11.223  11.643  68.790  1.00  0.00    -0.304 A  
ENDBRANCH  12  16
TORSDOF 1
ENDMDL
MODEL       55
REMARK 921   NORMALIZED FREE ENERGY PREDICTED BY IDOCK:   -4.76 KCAL/MOL
REMARK 922        TOTAL FREE ENERGY PREDICTED BY IDOCK:   -5.27 KCAL/MOL
REMARK 923 INTER-LIGAND FREE ENERGY PREDICTED BY IDOCK:   -5.37 KCAL/MOL
REMARK 924 INTRA-LIGAND FREE ENERGY PREDICTED BY IDOCK:    0.10 KCAL/MOL
REMARK 927      BINDING AFFINITY PREDICTED BY RF-SCORE:    0.00 PKD
ROOT
HETATM    1  C   UNL     1      -9.971  15.132  65.796  1.00  0.00    -0.375 C  
HETATM    2  C   UNL     1      -9.131  15.711  66.957  1.00  0.00    -0.219 C  
HETATM    3  N   UNL     1      -8.111  16.460  66.211  1.00  0.00    -0.321 NA 
HETATM    4  C   UNL     1      -8.319  14.625  67.687  1.00  0.00    -0.186 C  
HETATM    5  C   UNL     1      -8.102  17.736  66.278  1.00  0.00    -0.234 C  
HETATM    6  H   UNL     1      -7.418  15.968  65.647  1.00  0.00     0.000 HD 
HETATM    7  N   UNL     1      -7.258  18.417  65.472  1.00  0.00    -0.542 NA 
HETATM    8  N   UNL     1      -8.877  18.467  67.104  1.00  0.00    -0.266 NA 
HETATM    9  H1  UNL     1      -7.251  19.436  65.526  1.00  0.00     0.000 HD 
HETATM   10  C   UNL     1      -9.723  17.850  67.869  1.00  0.00    -0.288 C  
HETATM   11  H2  UNL     1      -6.643  17.924  64.824  1.00  0.00     0.000 HD 
HETATM   12  N   UNL     1      -9.954  16.491  67.925  1.00  0.00    -0.240 NA 
HETATM   13  N   UNL     1     -10.471  18.685  68.643  1.00  0.00    -0.403 NA 
HETATM   14  H1  UNL     1     -11.136  18.199  69.244  1.00  0.00     0.000 HD 
HETATM   15  H2  UNL     1     -10.376  19.699  68.622  1.00  0.00     0.000 HD 
ENDROOT
BRANCH  12  16
HETATM   16  C   UNL     1     -10.793  15.850  68.879  1.00  0.00    -0.274 A  
HETATM   17  C   UNL     1     -10.681  16.036  70.268  1.00  0.00    -0.278 A  
HETATM   18  C   UNL     1     -11.420  15.295  71.206  1.00  0.00    -0.431 A  
HETATM   19  C   UNL     1     -12.322  14.336  70.775  1.00  0.00    -0.357 A  
HETATM   20  C   UNL     1     -12.524  14.160  69.416  1.00  0.00    -0.114 A  
HETATM   21 CL   UNL     1     -13.168  13.375  71.918  1.00  0.00    -0.505 Cl 
HETATM   22  C   UNL     1     -11.785  14.923  68.492  1.00  0.00    -0.338 A  
ENDBRANCH  12  16
TORSDOF 1
ENDMDL
MODEL       56
REMARK 921   NORMALIZED FREE ENERGY PREDICTED BY IDOCK:   -4.74 KCAL/MOL
REMARK 922        TOTAL FREE ENERGY PREDICTED BY IDOCK:   -5.26 KCAL/MOL
REMARK 923 INTER-LIGAND FREE ENERGY PREDICTED BY IDOCK:   -5.03 KCAL/MOL
REMARK 924 INTRA-LIGAND FREE ENERGY PREDICTED BY IDOCK:   -0.23 KCAL/MOL
REMARK 927      BINDING AFFINITY PREDICTED BY RF-SCORE:    0.00 PKD
ROOT
HETATM    1  C   UNL     1     -12.036  13.958  67.409  1.00  0.00    -0.436 C  
HETATM    2  C   UNL     1     -10.921  14.126  68.466  1.00  0.00    -0.254 C  
HETATM    3  N   UNL     1     -10.782  12.742  68.941  1.00  0.00    -0.377 NA 
HETATM    4  C   UNL     1     -11.408  14.888  69.712  1.00  0.00    -0.314 C  
HETATM    5  C   UNL     1      -9.706  12.103  68.688  1.00  0.00    -0.081 C  
HETATM    6  H   UNL     1     -11.535  12.299  69.467  1.00  0.00     0.000 HD 
HETATM    7  N   UNL     1      -9.652  10.788  68.997  1.00  0.00    -0.268 NA 
HETATM    8  N   UNL     1      -8.603  12.643  68.131  1.00  0.00    -0.184 NA 
HETATM    9  H1  UNL     1      -8.792  10.277  68.795  1.00  0.00     0.000 HD 
HETATM   10  C   UNL     1      -8.630  13.894  67.790  1.00  0.00    -0.182 C  
HETATM   11  H2  UNL     1     -10.451  10.318  69.422  1.00  0.00     0.000 HD 
HETATM   12  N   UNL     1      -9.695  14.764  67.908  1.00  0.00    -0.209 NA 
HETATM   13  N   UNL     1      -7.475  14.329  67.214  1.00  0.00    -0.312 NA 
HETATM   14  H1  UNL     1      -7.496  15.313  66.947  1.00  0.00     0.000 HD 
HETATM   15  H2  UNL     1      -6.665  13.728  67.065  1.00  0.00     0.000 HD 
ENDROOT
BRANCH  12  16
HETATM   16  C   UNL     1      -9.631  16.162  67.648  1.00  0.00    -0.222 A  
HETATM   17  C   UNL     1      -9.027  17.090  68.513  1.00  0.00    -0.263 A  
HETATM   18  C   UNL     1      -9.091  18.480  68.317  1.00  0.00    -0.338 A  
HETATM   19  C   UNL     1      -9.763  18.994  67.221  1.00  0.00    -0.314 A  
HETATM   20  C   UNL     1     -10.317  18.123  66.298  1.00  0.00    -0.407 A  
HETATM   21 CL   UNL     1      -9.910  20.692  67.020  1.00  0.00    -0.548 Cl 
HETATM   22  C   UNL     1     -10.229  16.733  66.504  1.00  0.00    -0.319 A  
ENDBRANCH  12  16
TORSDOF 1
ENDMDL
MODEL       57
REMARK 921   NORMALIZED FREE ENERGY PREDICTED BY IDOCK:   -4.70 KCAL/MOL
REMARK 922        TOTAL FREE ENERGY PREDICTED BY IDOCK:   -5.21 KCAL/MOL
REMARK 923 INTER-LIGAND FREE ENERGY PREDICTED BY IDOCK:   -5.16 KCAL/MOL
REMARK 924 INTRA-LIGAND FREE ENERGY PREDICTED BY IDOCK:   -0.05 KCAL/MOL
REMARK 927      BINDING AFFINITY PREDICTED BY RF-SCORE:    0.00 PKD
ROOT
HETATM    1  C   UNL     1     -11.399  11.805  68.249  1.00  0.00    -0.343 C  
HETATM    2  C   UNL     1     -10.079  12.012  67.472  1.00  0.00    -0.195 C  
HETATM    3  N   UNL     1      -9.836  10.651  66.973  1.00  0.00    -0.180 NA 
HETATM    4  C   UNL     1      -8.885  12.270  68.410  1.00  0.00    -0.137 C  
HETATM    5  C   UNL     1      -9.915  10.425  65.718  1.00  0.00    -0.270 C  
HETATM    6  H   UNL     1      -9.608   9.897  67.620  1.00  0.00     0.000 HD 
HETATM    7  N   UNL     1      -9.840   9.145  65.289  1.00  0.00    -0.391 NA 
HETATM    8  N   UNL     1     -10.066  11.376  64.774  1.00  0.00    -0.260 NA 
HETATM    9  H1  UNL     1      -9.902   8.965  64.287  1.00  0.00     0.000 HD 
HETATM   10  C   UNL     1     -10.174  12.612  65.150  1.00  0.00    -0.280 C  
HETATM   11  H2  UNL     1      -9.724   8.379  65.951  1.00  0.00     0.000 HD 
HETATM   12  N   UNL     1     -10.182  13.088  66.446  1.00  0.00    -0.273 NA 
HETATM   13  N   UNL     1     -10.348  13.485  64.120  1.00  0.00    -0.708 NA 
HETATM   14  H1  UNL     1     -10.434  14.457  64.416  1.00  0.00     0.000 HD 
HETATM   15  H2  UNL     1     -10.389  13.194  63.143  1.00  0.00     0.000 HD 
ENDROOT
BRANCH  12  16
HETATM   16  C   UNL     1     -10.165  14.466  66.803  1.00  0.00    -0.270 A  
HETATM   17  C   UNL     1     -11.169  15.087  67.565  1.00  0.00    -0.333 A  
HETATM   18  C   UNL     1     -11.214  16.473  67.795  1.00  0.00    -0.097 A  
HETATM   19  C   UNL     1     -10.230  17.294  67.270  1.00  0.00    -0.320 A  
HETATM   20  C   UNL     1      -9.179  16.727  66.569  1.00  0.00    -0.294 A  
HETATM   21 CL   UNL     1     -10.325  18.994  67.482  1.00  0.00    -0.465 Cl 
HETATM   22  C   UNL     1      -9.143  15.335  66.364  1.00  0.00    -0.347 A  
ENDBRANCH  12  16
TORSDOF 1
ENDMDL
MODEL       58
REMARK 921   NORMALIZED FREE ENERGY PREDICTED BY IDOCK:   -4.70 KCAL/MOL
REMARK 922        TOTAL FREE ENERGY PREDICTED BY IDOCK:   -5.21 KCAL/MOL
REMARK 923 INTER-LIGAND FREE ENERGY PREDICTED BY IDOCK:   -4.97 KCAL/MOL
REMARK 924 INTRA-LIGAND FREE ENERGY PREDICTED BY IDOCK:   -0.23 KCAL/MOL
REMARK 927      BINDING AFFINITY PREDICTED BY RF-SCORE:    0.00 PKD
ROOT
HETATM    1  C   UNL     1     -11.159  14.461  66.719  1.00  0.00    -0.323 C  
HETATM    2  C   UNL     1     -11.245  12.921  66.619  1.00  0.00    -0.304 C  
HETATM    3  N   UNL     1     -12.358  12.769  65.672  1.00  0.00    -0.594 NA 
HETATM    4  C   UNL     1     -11.783  12.281  67.912  1.00  0.00    -0.410 C  
HETATM    5  C   UNL     1     -12.125  12.296  64.508  1.00  0.00    -0.383 C  
HETATM    6  H   UNL     1     -13.305  13.036  65.940  1.00  0.00     0.000 HD 
HETATM    7  N   UNL     1     -13.125  12.303  63.599  1.00  0.00    -0.760 NA 
HETATM    8  N   UNL     1     -10.944  11.781  64.110  1.00  0.00    -0.347 NA 
HETATM    9  H1  UNL     1     -12.938  11.925  62.669  1.00  0.00     0.000 HD 
HETATM   10  C   UNL     1      -9.951  11.788  64.945  1.00  0.00    -0.247 C  
HETATM   11  H2  UNL     1     -14.043  12.677  63.835  1.00  0.00     0.000 HD 
HETATM   12  N   UNL     1      -9.948  12.300  66.227  1.00  0.00    -0.227 NA 
HETATM   13  N   UNL     1      -8.802  11.269  64.432  1.00  0.00    -0.380 NA 
HETATM   14  H1  UNL     1      -8.021  11.274  65.089  1.00  0.00     0.000 HD 
HETATM   15  H2  UNL     1      -8.727  10.908  63.482  1.00  0.00     0.000 HD 
ENDROOT
BRANCH  12  16
HETATM   16  C   UNL     1      -8.876  12.159  67.152  1.00  0.00    -0.191 A  
HETATM   17  C   UNL     1      -8.691  11.029  67.967  1.00  0.00    -0.138 A  
HETATM   18  C   UNL     1      -7.713  10.958  68.975  1.00  0.00    -0.135 A  
HETATM   19  C   UNL     1      -6.865  12.030  69.193  1.00  0.00    -0.090 A  
HETATM   20  C   UNL     1      -6.957  13.143  68.373  1.00  0.00    -0.104 A  
HETATM   21 CL   UNL     1      -5.723  11.978  70.473  1.00  0.00    -0.166 Cl 
HETATM   22  C   UNL     1      -7.933  13.189  67.359  1.00  0.00    -0.174 A  
ENDBRANCH  12  16
TORSDOF 1
ENDMDL
MODEL       59
REMARK 921   NORMALIZED FREE ENERGY PREDICTED BY IDOCK:   -4.69 KCAL/MOL
REMARK 922        TOTAL FREE ENERGY PREDICTED BY IDOCK:   -5.20 KCAL/MOL
REMARK 923 INTER-LIGAND FREE ENERGY PREDICTED BY IDOCK:   -5.00 KCAL/MOL
REMARK 924 INTRA-LIGAND FREE ENERGY PREDICTED BY IDOCK:   -0.20 KCAL/MOL
REMARK 927      BINDING AFFINITY PREDICTED BY RF-SCORE:    0.00 PKD
ROOT
HETATM    1  C   UNL     1      -9.289  13.176  67.002  1.00  0.00    -0.238 C  
HETATM    2  C   UNL     1     -10.464  12.224  66.682  1.00  0.00    -0.222 C  
HETATM    3  N   UNL     1     -10.847  12.699  65.346  1.00  0.00    -0.280 NA 
HETATM    4  C   UNL     1     -11.707  12.522  67.541  1.00  0.00    -0.439 C  
HETATM    5  C   UNL     1     -10.658  11.938  64.337  1.00  0.00    -0.319 C  
HETATM    6  H   UNL     1     -11.259  13.624  65.225  1.00  0.00     0.000 HD 
HETATM    7  N   UNL     1     -10.872  12.444  63.102  1.00  0.00    -0.662 NA 
HETATM    8  N   UNL     1     -10.257  10.653  64.408  1.00  0.00    -0.354 NA 
HETATM    9  H1  UNL     1     -10.721  11.836  62.296  1.00  0.00     0.000 HD 
HETATM   10  C   UNL     1     -10.010  10.144  65.575  1.00  0.00    -0.293 C  
HETATM   11  H2  UNL     1     -11.177  13.409  62.978  1.00  0.00     0.000 HD 
HETATM   12  N   UNL     1     -10.083  10.787  66.794  1.00  0.00    -0.214 NA 
HETATM   13  N   UNL     1      -9.589   8.850  65.529  1.00  0.00    -0.459 NA 
HETATM   14  H1  UNL     1      -9.394   8.450  66.447  1.00  0.00     0.000 HD 
HETATM   15  H2  UNL     1      -9.478   8.329  64.659  1.00  0.00     0.000 HD 
ENDROOT
BRANCH  12  16
HETATM   16  C   UNL     1      -9.935  10.148  68.057  1.00  0.00    -0.148 A  
HETATM   17  C   UNL     1     -11.002   9.576  68.772  1.00  0.00    -0.116 A  
HETATM   18  C   UNL     1     -10.871   9.073  70.078  1.00  0.00    -0.247 A  
HETATM   19  C   UNL     1      -9.643   9.114  70.715  1.00  0.00    -0.275 A  
HETATM   20  C   UNL     1      -8.542   9.603  70.032  1.00  0.00    -0.237 A  
HETATM   21 CL   UNL     1      -9.497   8.572  72.337  1.00  0.00    -0.358 Cl 
HETATM   22  C   UNL     1      -8.690  10.088  68.719  1.00  0.00    -0.136 A  
ENDBRANCH  12  16
TORSDOF 1
ENDMDL
MODEL       60
REMARK 921   NORMALIZED FREE ENERGY PREDICTED BY IDOCK:   -4.61 KCAL/MOL
REMARK 922        TOTAL FREE ENERGY PREDICTED BY IDOCK:   -5.12 KCAL/MOL
REMARK 923 INTER-LIGAND FREE ENERGY PREDICTED BY IDOCK:   -5.30 KCAL/MOL
REMARK 924 INTRA-LIGAND FREE ENERGY PREDICTED BY IDOCK:    0.18 KCAL/MOL
REMARK 927      BINDING AFFINITY PREDICTED BY RF-SCORE:    0.00 PKD
ROOT
HETATM    1  C   UNL     1      -8.654  14.302  67.075  1.00  0.00    -0.213 C  
HETATM    2  C   UNL     1      -9.887  15.198  66.821  1.00  0.00    -0.241 C  
HETATM    3  N   UNL     1     -10.948  14.387  67.435  1.00  0.00    -0.292 NA 
HETATM    4  C   UNL     1     -10.281  15.238  65.333  1.00  0.00    -0.414 C  
HETATM    5  C   UNL     1     -11.524  14.815  68.492  1.00  0.00    -0.308 C  
HETATM    6  H   UNL     1     -11.221  13.495  67.023  1.00  0.00     0.000 HD 
HETATM    7  N   UNL     1     -12.387  13.994  69.131  1.00  0.00    -0.486 NA 
HETATM    8  N   UNL     1     -11.338  16.038  69.028  1.00  0.00    -0.351 NA 
HETATM    9  H1  UNL     1     -12.848  14.335  69.975  1.00  0.00     0.000 HD 
HETATM   10  C   UNL     1     -10.493  16.841  68.461  1.00  0.00    -0.335 C  
HETATM   11  H2  UNL     1     -12.574  13.055  68.778  1.00  0.00     0.000 HD 
HETATM   12  N   UNL     1      -9.711  16.579  67.354  1.00  0.00    -0.243 NA 
HETATM   13  N   UNL     1     -10.364  18.039  69.097  1.00  0.00    -0.419 NA 
HETATM   14  H1  UNL     1      -9.699  18.670  68.652  1.00  0.00     0.000 HD 
HETATM   15  H2  UNL     1     -10.884  18.281  69.940  1.00  0.00     0.000 HD 
ENDROOT
BRANCH  12  16
HETATM   16  C   UNL     1      -8.901  17.540  66.688  1.00  0.00    -0.262 A  
HETATM   17  C   UNL     1      -7.554  17.325  66.348  1.00  0.00    -0.349 A  
HETATM   18  C   UNL     1      -6.724  18.327  65.817  1.00  0.00    -0.317 A  
HETATM   19  C   UNL     1      -7.229  19.597  65.592  1.00  0.00    -0.281 A  
HETATM   20  C   UNL     1      -8.569  19.846  65.843  1.00  0.00    -0.172 A  
HETATM   21 CL   UNL     1      -6.200  20.843  65.018  1.00  0.00    -0.296 Cl 
HETATM   22  C   UNL     1      -9.387  18.824  66.360  1.00  0.00    -0.321 A  
ENDBRANCH  12  16
TORSDOF 1
ENDMDL
MODEL       61
REMARK 921   NORMALIZED FREE ENERGY PREDICTED BY IDOCK:   -4.61 KCAL/MOL
REMARK 922        TOTAL FREE ENERGY PREDICTED BY IDOCK:   -5.11 KCAL/MOL
REMARK 923 INTER-LIGAND FREE ENERGY PREDICTED BY IDOCK:   -4.93 KCAL/MOL
REMARK 924 INTRA-LIGAND FREE ENERGY PREDICTED BY IDOCK:   -0.18 KCAL/MOL
REMARK 927      BINDING AFFINITY PREDICTED BY RF-SCORE:    0.00 PKD
ROOT
HETATM    1  C   UNL     1     -11.858  14.088  68.853  1.00  0.00    -0.390 C  
HETATM    2  C   UNL     1     -11.266  14.134  67.427  1.00  0.00    -0.318 C  
HETATM    3  N   UNL     1     -11.167  15.585  67.216  1.00  0.00    -0.276 NA 
HETATM    4  C   UNL     1     -12.280  13.683  66.360  1.00  0.00    -0.472 C  
HETATM    5  C   UNL     1     -10.012  16.125  67.135  1.00  0.00    -0.251 C  
HETATM    6  H   UNL     1     -12.010  16.153  67.135  1.00  0.00     0.000 HD 
HETATM    7  N   UNL     1      -9.935  17.474  67.094  1.00  0.00    -0.303 NA 
HETATM    8  N   UNL     1      -8.848  15.446  67.084  1.00  0.00    -0.199 NA 
HETATM    9  H1  UNL     1      -9.012  17.905  67.029  1.00  0.00     0.000 HD 
HETATM   10  C   UNL     1      -8.881  14.152  67.155  1.00  0.00    -0.229 C  
HETATM   11  H2  UNL     1     -10.778  18.047  67.127  1.00  0.00     0.000 HD 
HETATM   12  N   UNL     1      -9.999  13.357  67.308  1.00  0.00    -0.229 NA 
HETATM   13  N   UNL     1      -7.650  13.570  67.120  1.00  0.00    -0.369 NA 
HETATM   14  H1  UNL     1      -7.677  12.552  67.176  1.00  0.00     0.000 HD 
HETATM   15  H2  UNL     1      -6.784  14.102  67.046  1.00  0.00     0.000 HD 
ENDROOT
BRANCH  12  16
HETATM   16  C   UNL     1      -9.997  11.935  67.241  1.00  0.00    -0.186 A  
HETATM   17  C   UNL     1      -9.755  11.209  66.063  1.00  0.00    -0.263 A  
HETATM   18  C   UNL     1      -9.892   9.813  65.976  1.00  0.00    -0.342 A  
HETATM   19  C   UNL     1     -10.271   9.084  67.092  1.00  0.00    -0.265 A  
HETATM   20  C   UNL     1     -10.455   9.741  68.298  1.00  0.00    -0.255 A  
HETATM   21 CL   UNL     1     -10.515   7.390  66.971  1.00  0.00    -0.386 Cl 
HETATM   22  C   UNL     1     -10.297  11.138  68.367  1.00  0.00    -0.201 A  
ENDBRANCH  12  16
TORSDOF 1
ENDMDL
MODEL       62
REMARK 921   NORMALIZED FREE ENERGY PREDICTED BY IDOCK:   -4.60 KCAL/MOL
REMARK 922        TOTAL FREE ENERGY PREDICTED BY IDOCK:   -5.11 KCAL/MOL
REMARK 923 INTER-LIGAND FREE ENERGY PREDICTED BY IDOCK:   -4.96 KCAL/MOL
REMARK 924 INTRA-LIGAND FREE ENERGY PREDICTED BY IDOCK:   -0.15 KCAL/MOL
REMARK 927      BINDING AFFINITY PREDICTED BY RF-SCORE:    0.00 PKD
ROOT
HETATM    1  C   UNL     1      -8.835   9.304  70.197  1.00  0.00    -0.235 C  
HETATM    2  C   UNL     1     -10.318   9.124  69.803  1.00  0.00    -0.215 C  
HETATM    3  N   UNL     1     -10.775   8.208  70.858  1.00  0.00    -0.217 NA 
HETATM    4  C   UNL     1     -10.483   8.298  68.513  1.00  0.00    -0.199 C  
HETATM    5  C   UNL     1     -11.612   8.628  71.726  1.00  0.00    -0.332 C  
HETATM    6  H   UNL     1     -10.428   7.250  70.896  1.00  0.00     0.000 HD 
HETATM    7  N   UNL     1     -11.906   7.828  72.775  1.00  0.00    -0.598 NA 
HETATM    8  N   UNL     1     -12.237   9.822  71.678  1.00  0.00    -0.393 NA 
HETATM    9  H1  UNL     1     -12.576   8.163  73.469  1.00  0.00     0.000 HD 
HETATM   10  C   UNL     1     -11.955  10.631  70.704  1.00  0.00    -0.367 C  
HETATM   11  H2  UNL     1     -11.470   6.911  72.871  1.00  0.00     0.000 HD 
HETATM   12  N   UNL     1     -11.042  10.422  69.689  1.00  0.00    -0.257 NA 
HETATM   13  N   UNL     1     -12.622  11.816  70.766  1.00  0.00    -0.293 NA 
HETATM   14  H1  UNL     1     -12.400  12.451  69.999  1.00  0.00     0.000 HD 
HETATM   15  H2  UNL     1     -13.281  12.047  71.508  1.00  0.00     0.000 HD 
ENDROOT
BRANCH  12  16
HETATM   16  C   UNL     1     -10.868  11.280  68.567  1.00  0.00    -0.205 A  
HETATM   17  C   UNL     1     -11.850  11.485  67.582  1.00  0.00    -0.194 A  
HETATM   18  C   UNL     1     -11.620  12.223  66.408  1.00  0.00    -0.445 A  
HETATM   19  C   UNL     1     -10.381  12.800  66.185  1.00  0.00    -0.269 A  
HETATM   20  C   UNL     1      -9.398  12.688  67.154  1.00  0.00    -0.210 A  
HETATM   21 CL   UNL     1     -10.072  13.633  64.717  1.00  0.00    -0.337 Cl 
HETATM   22  C   UNL     1      -9.653  11.958  68.331  1.00  0.00    -0.196 A  
ENDBRANCH  12  16
TORSDOF 1
ENDMDL
MODEL       63
REMARK 921   NORMALIZED FREE ENERGY PREDICTED BY IDOCK:   -4.60 KCAL/MOL
REMARK 922        TOTAL FREE ENERGY PREDICTED BY IDOCK:   -5.10 KCAL/MOL
REMARK 923 INTER-LIGAND FREE ENERGY PREDICTED BY IDOCK:   -4.86 KCAL/MOL
REMARK 924 INTRA-LIGAND FREE ENERGY PREDICTED BY IDOCK:   -0.24 KCAL/MOL
REMARK 927      BINDING AFFINITY PREDICTED BY RF-SCORE:    0.00 PKD
ROOT
HETATM    1  C   UNL     1     -10.873  16.194  65.420  1.00  0.00    -0.319 C  
HETATM    2  C   UNL     1     -10.623  15.505  66.780  1.00  0.00    -0.307 C  
HETATM    3  N   UNL     1     -11.581  14.393  66.706  1.00  0.00    -0.371 NA 
HETATM    4  C   UNL     1     -11.137  16.345  67.963  1.00  0.00    -0.292 C  
HETATM    5  C   UNL     1     -11.141  13.197  66.624  1.00  0.00    -0.292 C  
HETATM    6  H   UNL     1     -12.585  14.574  66.719  1.00  0.00     0.000 HD 
HETATM    7  N   UNL     1     -12.027  12.199  66.404  1.00  0.00    -0.621 NA 
HETATM    8  N   UNL     1      -9.845  12.844  66.745  1.00  0.00    -0.235 NA 
HETATM    9  H1  UNL     1     -11.675  11.244  66.340  1.00  0.00     0.000 HD 
HETATM   10  C   UNL     1      -8.963  13.778  66.923  1.00  0.00    -0.221 C  
HETATM   11  H2  UNL     1     -13.022  12.397  66.305  1.00  0.00     0.000 HD 
HETATM   12  N   UNL     1      -9.192  15.138  66.981  1.00  0.00    -0.211 NA 
HETATM   13  N   UNL     1      -7.685  13.314  67.006  1.00  0.00    -0.385 NA 
HETATM   14  H1  UNL     1      -6.991  14.049  67.146  1.00  0.00     0.000 HD 
HETATM   15  H2  UNL     1      -7.444  12.326  66.934  1.00  0.00     0.000 HD 
ENDROOT
BRANCH  12  16
HETATM   16  C   UNL     1      -8.210  16.112  67.316  1.00  0.00    -0.177 A  
HETATM   17  C   UNL     1      -7.792  16.377  68.632  1.00  0.00    -0.211 A  
HETATM   18  C   UNL     1      -6.927  17.434  68.965  1.00  0.00    -0.238 A  
HETATM   19  C   UNL     1      -6.433  18.264  67.973  1.00  0.00    -0.193 A  
HETATM   20  C   UNL     1      -6.757  18.005  66.651  1.00  0.00    -0.236 A  
HETATM   21 CL   UNL     1      -5.440  19.601  68.386  1.00  0.00    -0.215 Cl 
HETATM   22  C   UNL     1      -7.612  16.933  66.336  1.00  0.00    -0.339 A  
ENDBRANCH  12  16
TORSDOF 1
ENDMDL
MODEL       64
REMARK 921   NORMALIZED FREE ENERGY PREDICTED BY IDOCK:   -4.59 KCAL/MOL
REMARK 922        TOTAL FREE ENERGY PREDICTED BY IDOCK:   -5.10 KCAL/MOL
REMARK 923 INTER-LIGAND FREE ENERGY PREDICTED BY IDOCK:   -4.86 KCAL/MOL
REMARK 924 INTRA-LIGAND FREE ENERGY PREDICTED BY IDOCK:   -0.24 KCAL/MOL
REMARK 927      BINDING AFFINITY PREDICTED BY RF-SCORE:    0.00 PKD
ROOT
HETATM    1  C   UNL     1      -8.029  16.840  69.288  1.00  0.00    -0.024 C  
HETATM    2  C   UNL     1      -8.526  18.022  68.425  1.00  0.00    -0.298 C  
HETATM    3  N   UNL     1      -7.768  19.133  69.017  1.00  0.00    -0.320 NA 
HETATM    4  C   UNL     1      -9.992  18.386  68.724  1.00  0.00    -0.404 C  
HETATM    5  C   UNL     1      -6.861  19.706  68.323  1.00  0.00    -0.289 C  
HETATM    6  H   UNL     1      -7.963  19.443  69.968  1.00  0.00     0.000 HD 
HETATM    7  N   UNL     1      -6.071  20.622  68.928  1.00  0.00    -0.341 NA 
HETATM    8  N   UNL     1      -6.627  19.469  67.017  1.00  0.00    -0.194 NA 
HETATM    9  H1  UNL     1      -5.347  21.079  68.374  1.00  0.00     0.000 HD 
HETATM   10  C   UNL     1      -7.342  18.573  66.411  1.00  0.00    -0.247 C  
HETATM   11  H2  UNL     1      -6.196  20.849  69.914  1.00  0.00     0.000 HD 
HETATM   12  N   UNL     1      -8.331  17.786  66.966  1.00  0.00    -0.220 NA 
HETATM   13  N   UNL     1      -7.006  18.396  65.103  1.00  0.00    -0.403 NA 
HETATM   14  H1  UNL     1      -7.569  17.692  64.628  1.00  0.00     0.000 HD 
HETATM   15  H2  UNL     1      -6.261  18.919  64.643  1.00  0.00     0.000 HD 
ENDROOT
BRANCH  12  16
HETATM   16  C   UNL     1      -9.183  16.916  66.229  1.00  0.00    -0.267 A  
HETATM   17  C   UNL     1     -10.330  17.345  65.539  1.00  0.00    -0.075 A  
HETATM   18  C   UNL     1     -11.239  16.462  64.932  1.00  0.00    -0.191 A  
HETATM   19  C   UNL     1     -11.017  15.096  64.986  1.00  0.00    -0.430 A  
HETATM   20  C   UNL     1      -9.866  14.621  65.592  1.00  0.00    -0.354 A  
HETATM   21 CL   UNL     1     -12.165  14.011  64.314  1.00  0.00    -0.472 Cl 
HETATM   22  C   UNL     1      -8.960  15.523  66.181  1.00  0.00    -0.329 A  
ENDBRANCH  12  16
TORSDOF 1
ENDMDL
MODEL       65
REMARK 921   NORMALIZED FREE ENERGY PREDICTED BY IDOCK:   -4.57 KCAL/MOL
REMARK 922        TOTAL FREE ENERGY PREDICTED BY IDOCK:   -5.08 KCAL/MOL
REMARK 923 INTER-LIGAND FREE ENERGY PREDICTED BY IDOCK:   -4.98 KCAL/MOL
REMARK 924 INTRA-LIGAND FREE ENERGY PREDICTED BY IDOCK:   -0.10 KCAL/MOL
REMARK 927      BINDING AFFINITY PREDICTED BY RF-SCORE:    0.00 PKD
ROOT
HETATM    1  C   UNL     1      -9.456  15.642  66.001  1.00  0.00    -0.390 C  
HETATM    2  C   UNL     1      -9.351  15.335  67.513  1.00  0.00    -0.204 C  
HETATM    3  N   UNL     1      -9.246  16.694  68.062  1.00  0.00    -0.219 NA 
HETATM    4  C   UNL     1      -8.003  14.690  67.885  1.00  0.00    -0.149 C  
HETATM    5  C   UNL     1     -10.205  17.156  68.768  1.00  0.00    -0.332 C  
HETATM    6  H   UNL     1      -8.417  17.261  67.883  1.00  0.00     0.000 HD 
HETATM    7  N   UNL     1     -10.163  18.455  69.138  1.00  0.00    -0.434 NA 
HETATM    8  N   UNL     1     -11.270  16.439  69.180  1.00  0.00    -0.303 NA 
HETATM    9  H1  UNL     1     -10.930  18.824  69.702  1.00  0.00     0.000 HD 
HETATM   10  C   UNL     1     -11.362  15.198  68.816  1.00  0.00    -0.300 C  
HETATM   11  H2  UNL     1      -9.385  19.053  68.861  1.00  0.00     0.000 HD 
HETATM   12  N   UNL     1     -10.485  14.503  68.008  1.00  0.00    -0.234 NA 
HETATM   13  N   UNL     1     -12.487  14.577  69.265  1.00  0.00    -0.570 NA 
HETATM   14  H1  UNL     1     -12.558  13.601  68.979  1.00  0.00     0.000 HD 
HETATM   15  H2  UNL     1     -13.192  15.044  69.835  1.00  0.00     0.000 HD 
ENDROOT
BRANCH  12  16
HETATM   16  C   UNL     1     -10.555  13.106  67.750  1.00  0.00    -0.234 A  
HETATM   17  C   UNL     1     -10.427  12.121  68.744  1.00  0.00    -0.201 A  
HETATM   18  C   UNL     1     -10.358  10.745  68.461  1.00  0.00    -0.202 A  
HETATM   19  C   UNL     1     -10.431  10.304  67.151  1.00  0.00    -0.254 A  
HETATM   20  C   UNL     1     -10.627  11.226  66.136  1.00  0.00    -0.312 A  
HETATM   21 CL   UNL     1     -10.269   8.633  66.796  1.00  0.00    -0.361 Cl 
HETATM   22  C   UNL     1     -10.709  12.598  66.441  1.00  0.00    -0.278 A  
ENDBRANCH  12  16
TORSDOF 1
ENDMDL
MODEL       66
REMARK 921   NORMALIZED FREE ENERGY PREDICTED BY IDOCK:   -4.56 KCAL/MOL
REMARK 922        TOTAL FREE ENERGY PREDICTED BY IDOCK:   -5.06 KCAL/MOL
REMARK 923 INTER-LIGAND FREE ENERGY PREDICTED BY IDOCK:   -4.86 KCAL/MOL
REMARK 924 INTRA-LIGAND FREE ENERGY PREDICTED BY IDOCK:   -0.20 KCAL/MOL
REMARK 927      BINDING AFFINITY PREDICTED BY RF-SCORE:    0.00 PKD
ROOT
HETATM    1  C   UNL     1      -9.358   7.848  66.702  1.00  0.00    -0.244 C  
HETATM    2  C   UNL     1      -9.195   9.166  67.492  1.00  0.00    -0.128 C  
HETATM    3  N   UNL     1      -8.947  10.115  66.397  1.00  0.00    -0.143 NA 
HETATM    4  C   UNL     1      -7.886   9.202  68.302  1.00  0.00    -0.102 C  
HETATM    5  C   UNL     1      -9.824  11.006  66.135  1.00  0.00    -0.225 C  
HETATM    6  H   UNL     1      -8.086  10.062  65.853  1.00  0.00     0.000 HD 
HETATM    7  N   UNL     1      -9.654  11.771  65.034  1.00  0.00    -0.388 NA 
HETATM    8  N   UNL     1     -10.920  11.249  66.883  1.00  0.00    -0.289 NA 
HETATM    9  H1  UNL     1     -10.355  12.483  64.826  1.00  0.00     0.000 HD 
HETATM   10  C   UNL     1     -11.133  10.512  67.928  1.00  0.00    -0.304 C  
HETATM   11  H2  UNL     1      -8.846  11.640  64.426  1.00  0.00     0.000 HD 
HETATM   12  N   UNL     1     -10.363   9.455  68.371  1.00  0.00    -0.198 NA 
HETATM   13  N   UNL     1     -12.279  10.826  68.594  1.00  0.00    -0.827 NA 
HETATM   14  H1  UNL     1     -12.446  10.246  69.416  1.00  0.00     0.000 HD 
HETATM   15  H2  UNL     1     -12.910  11.570  68.298  1.00  0.00     0.000 HD 
ENDROOT
BRANCH  12  16
HETATM   16  C   UNL     1     -10.563   8.767  69.600  1.00  0.00    -0.219 A  
HETATM   17  C   UNL     1     -10.292   9.326  70.861  1.00  0.00    -0.367 A  
HETATM   18  C   UNL     1     -10.360   8.593  72.059  1.00  0.00    -0.416 A  
HETATM   19  C   UNL     1     -10.721   7.256  72.033  1.00  0.00    -0.211 A  
HETATM   20  C   UNL     1     -11.066   6.672  70.825  1.00  0.00    -0.336 A  
HETATM   21 CL   UNL     1     -10.728   6.339  73.483  1.00  0.00    -0.278 Cl 
HETATM   22  C   UNL     1     -11.007   7.427  69.638  1.00  0.00    -0.186 A  
ENDBRANCH  12  16
TORSDOF 1
ENDMDL
MODEL       67
REMARK 921   NORMALIZED FREE ENERGY PREDICTED BY IDOCK:   -4.51 KCAL/MOL
REMARK 922        TOTAL FREE ENERGY PREDICTED BY IDOCK:   -5.02 KCAL/MOL
REMARK 923 INTER-LIGAND FREE ENERGY PREDICTED BY IDOCK:   -4.84 KCAL/MOL
REMARK 924 INTRA-LIGAND FREE ENERGY PREDICTED BY IDOCK:   -0.17 KCAL/MOL
REMARK 927      BINDING AFFINITY PREDICTED BY RF-SCORE:    0.00 PKD
ROOT
HETATM    1  C   UNL     1      -8.292  14.326  67.223  1.00  0.00    -0.222 C  
HETATM    2  C   UNL     1      -9.338  15.442  67.007  1.00  0.00    -0.224 C  
HETATM    3  N   UNL     1     -10.530  14.645  66.688  1.00  0.00    -0.274 NA 
HETATM    4  C   UNL     1      -9.081  16.240  65.716  1.00  0.00    -0.110 C  
HETATM    5  C   UNL     1     -11.506  14.627  67.511  1.00  0.00    -0.361 C  
HETATM    6  H   UNL     1     -10.578  14.112  65.819  1.00  0.00     0.000 HD 
HETATM    7  N   UNL     1     -12.529  13.774  67.279  1.00  0.00    -0.396 NA 
HETATM    8  N   UNL     1     -11.600  15.406  68.608  1.00  0.00    -0.347 NA 
HETATM    9  H1  UNL     1     -13.308  13.761  67.937  1.00  0.00     0.000 HD 
HETATM   10  C   UNL     1     -10.623  16.213  68.882  1.00  0.00    -0.275 C  
HETATM   11  H2  UNL     1     -12.521  13.158  66.466  1.00  0.00     0.000 HD 
HETATM   12  N   UNL     1      -9.445  16.360  68.178  1.00  0.00    -0.210 NA 
HETATM   13  N   UNL     1     -10.810  16.932  70.023  1.00  0.00    -0.320 NA 
HETATM   14  H1  UNL     1     -10.041  17.567  70.238  1.00  0.00     0.000 HD 
HETATM   15  H2  UNL     1     -11.640  16.844  70.608  1.00  0.00     0.000 HD 
ENDROOT
BRANCH  12  16
HETATM   16  C   UNL     1      -8.464  17.357  68.438  1.00  0.00    -0.263 A  
HETATM   17  C   UNL     1      -7.185  17.079  68.950  1.00  0.00    -0.239 A  
HETATM   18  C   UNL     1      -6.275  18.079  69.334  1.00  0.00    -0.250 A  
HETATM   19  C   UNL     1      -6.618  19.414  69.203  1.00  0.00    -0.322 A  
HETATM   20  C   UNL     1      -7.839  19.746  68.639  1.00  0.00    -0.284 A  
HETATM   21 CL   UNL     1      -5.541  20.636  69.743  1.00  0.00    -0.381 Cl 
HETATM   22  C   UNL     1      -8.730  18.730  68.246  1.00  0.00    -0.363 A  
ENDBRANCH  12  16
TORSDOF 1
ENDMDL
MODEL       68
REMARK 921   NORMALIZED FREE ENERGY PREDICTED BY IDOCK:   -4.44 KCAL/MOL
REMARK 922        TOTAL FREE ENERGY PREDICTED BY IDOCK:   -4.94 KCAL/MOL
REMARK 923 INTER-LIGAND FREE ENERGY PREDICTED BY IDOCK:   -4.72 KCAL/MOL
REMARK 924 INTRA-LIGAND FREE ENERGY PREDICTED BY IDOCK:   -0.22 KCAL/MOL
REMARK 927      BINDING AFFINITY PREDICTED BY RF-SCORE:    0.00 PKD
ROOT
HETATM    1  C   UNL     1      -8.191  10.793  67.648  1.00  0.00    -0.115 C  
HETATM    2  C   UNL     1      -9.686  10.405  67.712  1.00  0.00    -0.160 C  
HETATM    3  N   UNL     1      -9.620   9.193  68.542  1.00  0.00    -0.147 NA 
HETATM    4  C   UNL     1     -10.213   9.888  66.361  1.00  0.00    -0.292 C  
HETATM    5  C   UNL     1     -10.126   9.214  69.714  1.00  0.00    -0.199 C  
HETATM    6  H   UNL     1      -9.176   8.347  68.186  1.00  0.00     0.000 HD 
HETATM    7  N   UNL     1      -9.926   8.147  70.520  1.00  0.00    -0.186 NA 
HETATM    8  N   UNL     1     -10.857  10.229  70.218  1.00  0.00    -0.298 NA 
HETATM    9  H1  UNL     1     -10.331   8.164  71.456  1.00  0.00     0.000 HD 
HETATM   10  C   UNL     1     -11.042  11.283  69.487  1.00  0.00    -0.238 C  
HETATM   11  H2  UNL     1      -9.383   7.345  70.200  1.00  0.00     0.000 HD 
HETATM   12  N   UNL     1     -10.543  11.514  68.220  1.00  0.00    -0.191 NA 
HETATM   13  N   UNL     1     -11.771  12.255  70.101  1.00  0.00    -0.529 NA 
HETATM   14  H1  UNL     1     -11.916  13.084  69.525  1.00  0.00     0.000 HD 
HETATM   15  H2  UNL     1     -12.137  12.163  71.048  1.00  0.00     0.000 HD 
ENDROOT
BRANCH  12  16
HETATM   16  C   UNL     1     -10.888  12.627  67.403  1.00  0.00    -0.243 A  
HETATM   17  C   UNL     1     -12.007  12.654  66.553  1.00  0.00    -0.401 A  
HETATM   18  C   UNL     1     -12.261  13.700  65.649  1.00  0.00    -0.490 A  
HETATM   19  C   UNL     1     -11.395  14.778  65.576  1.00  0.00    -0.343 A  
HETATM   20  C   UNL     1     -10.314  14.836  66.441  1.00  0.00    -0.297 A  
HETATM   21 CL   UNL     1     -11.659  16.017  64.419  1.00  0.00    -0.343 Cl 
HETATM   22  C   UNL     1     -10.085  13.787  67.350  1.00  0.00    -0.244 A  
ENDBRANCH  12  16
TORSDOF 1
ENDMDL
MODEL       69
REMARK 921   NORMALIZED FREE ENERGY PREDICTED BY IDOCK:   -4.43 KCAL/MOL
REMARK 922        TOTAL FREE ENERGY PREDICTED BY IDOCK:   -4.93 KCAL/MOL
REMARK 923 INTER-LIGAND FREE ENERGY PREDICTED BY IDOCK:   -4.79 KCAL/MOL
REMARK 924 INTRA-LIGAND FREE ENERGY PREDICTED BY IDOCK:   -0.14 KCAL/MOL
REMARK 927      BINDING AFFINITY PREDICTED BY RF-SCORE:    0.00 PKD
ROOT
HETATM    1  C   UNL     1     -11.219  11.368  67.834  1.00  0.00    -0.352 C  
HETATM    2  C   UNL     1     -10.452  12.699  67.667  1.00  0.00    -0.219 C  
HETATM    3  N   UNL     1      -9.967  12.566  66.286  1.00  0.00    -0.247 NA 
HETATM    4  C   UNL     1      -9.157  12.735  68.500  1.00  0.00    -0.049 C  
HETATM    5  C   UNL     1     -10.435  13.342  65.385  1.00  0.00    -0.297 C  
HETATM    6  H   UNL     1      -9.267  11.863  66.049  1.00  0.00     0.000 HD 
HETATM    7  N   UNL     1     -10.096  13.109  64.097  1.00  0.00    -0.721 NA 
HETATM    8  N   UNL     1     -11.249  14.390  65.620  1.00  0.00    -0.316 NA 
HETATM    9  H1  UNL     1     -10.469  13.730  63.378  1.00  0.00     0.000 HD 
HETATM   10  C   UNL     1     -11.622  14.624  66.840  1.00  0.00    -0.362 C  
HETATM   11  H2  UNL     1      -9.482  12.333  63.850  1.00  0.00     0.000 HD 
HETATM   12  N   UNL     1     -11.299  13.890  67.963  1.00  0.00    -0.273 NA 
HETATM   13  N   UNL     1     -12.462  15.689  66.961  1.00  0.00     0.818 NA 
HETATM   14  H1  UNL     1     -12.756  15.872  67.920  1.00  0.00     0.000 HD 
HETATM   15  H2  UNL     1     -12.769  16.250  66.167  1.00  0.00     0.000 HD 
ENDROOT
BRANCH  12  16
HETATM   16  C   UNL     1     -11.619  14.266  69.297  1.00  0.00    -0.306 A  
HETATM   17  C   UNL     1     -12.506  13.548  70.119  1.00  0.00    -0.276 A  
HETATM   18  C   UNL     1     -12.922  14.002  71.383  1.00  0.00    -0.427 A  
HETATM   19  C   UNL     1     -12.445  15.204  71.878  1.00  0.00    -0.348 A  
HETATM   20  C   UNL     1     -11.516  15.918  71.141  1.00  0.00    -0.471 A  
HETATM   21 CL   UNL     1     -13.012  15.798  73.385  1.00  0.00    -0.639 Cl 
HETATM   22  C   UNL     1     -11.099  15.439  69.885  1.00  0.00    -0.304 A  
ENDBRANCH  12  16
TORSDOF 1
ENDMDL
MODEL       70
REMARK 921   NORMALIZED FREE ENERGY PREDICTED BY IDOCK:   -4.40 KCAL/MOL
REMARK 922        TOTAL FREE ENERGY PREDICTED BY IDOCK:   -4.90 KCAL/MOL
REMARK 923 INTER-LIGAND FREE ENERGY PREDICTED BY IDOCK:   -4.66 KCAL/MOL
REMARK 924 INTRA-LIGAND FREE ENERGY PREDICTED BY IDOCK:   -0.23 KCAL/MOL
REMARK 927      BINDING AFFINITY PREDICTED BY RF-SCORE:    0.00 PKD
ROOT
HETATM    1  C   UNL     1     -10.411   8.009  72.481  1.00  0.00    -0.374 C  
HETATM    2  C   UNL     1     -11.539   8.054  71.427  1.00  0.00    -0.267 C  
HETATM    3  N   UNL     1     -12.443   9.042  72.033  1.00  0.00    -0.372 NA 
HETATM    4  C   UNL     1     -12.376   6.762  71.412  1.00  0.00    -0.403 C  
HETATM    5  C   UNL     1     -12.597  10.176  71.465  1.00  0.00    -0.434 C  
HETATM    6  H   UNL     1     -12.941   8.825  72.896  1.00  0.00     0.000 HD 
HETATM    7  N   UNL     1     -13.309  11.127  72.110  1.00  0.00    -0.577 NA 
HETATM    8  N   UNL     1     -12.100  10.503  70.255  1.00  0.00    -0.303 NA 
HETATM    9  H1  UNL     1     -13.432  12.032  71.655  1.00  0.00     0.000 HD 
HETATM   10  C   UNL     1     -11.384   9.627  69.621  1.00  0.00    -0.073 C  
HETATM   11  H2  UNL     1     -13.713  10.944  73.028  1.00  0.00     0.000 HD 
HETATM   12  N   UNL     1     -11.033   8.367  70.060  1.00  0.00    -0.228 NA 
HETATM   13  N   UNL     1     -10.912  10.070  68.422  1.00  0.00    -0.367 NA 
HETATM   14  H1  UNL     1     -10.349   9.381  67.924  1.00  0.00     0.000 HD 
HETATM   15  H2  UNL     1     -11.104  11.002  68.057  1.00  0.00     0.000 HD 
ENDROOT
BRANCH  12  16
HETATM   16  C   UNL     1     -10.361   7.391  69.270  1.00  0.00    -0.204 A  
HETATM   17  C   UNL     1      -8.993   7.093  69.395  1.00  0.00    -0.136 A  
HETATM   18  C   UNL     1      -8.311   6.231  68.519  1.00  0.00    -0.115 A  
HETATM   19  C   UNL     1      -8.992   5.618  67.481  1.00  0.00    -0.107 A  
HETATM   20  C   UNL     1     -10.356   5.821  67.353  1.00  0.00    -0.279 A  
HETATM   21 CL   UNL     1      -8.146   4.627  66.364  1.00  0.00    -0.103 Cl 
HETATM   22  C   UNL     1     -11.025   6.676  68.250  1.00  0.00    -0.321 A  
ENDBRANCH  12  16
TORSDOF 1
ENDMDL
MODEL       71
REMARK 921   NORMALIZED FREE ENERGY PREDICTED BY IDOCK:   -4.40 KCAL/MOL
REMARK 922        TOTAL FREE ENERGY PREDICTED BY IDOCK:   -4.89 KCAL/MOL
REMARK 923 INTER-LIGAND FREE ENERGY PREDICTED BY IDOCK:   -5.86 KCAL/MOL
REMARK 924 INTRA-LIGAND FREE ENERGY PREDICTED BY IDOCK:    0.97 KCAL/MOL
REMARK 927      BINDING AFFINITY PREDICTED BY RF-SCORE:    0.00 PKD
ROOT
HETATM    1  C   UNL     1      -9.717  13.877  66.537  1.00  0.00    -0.303 C  
HETATM    2  C   UNL     1     -10.971  12.984  66.393  1.00  0.00    -0.281 C  
HETATM    3  N   UNL     1     -10.761  12.430  65.048  1.00  0.00    -0.284 NA 
HETATM    4  C   UNL     1     -12.261  13.811  66.244  1.00  0.00    -0.489 C  
HETATM    5  C   UNL     1     -10.516  11.182  64.922  1.00  0.00    -0.308 C  
HETATM    6  H   UNL     1     -10.810  13.032  64.227  1.00  0.00     0.000 HD 
HETATM    7  N   UNL     1     -10.175  10.715  63.700  1.00  0.00    -0.483 NA 
HETATM    8  N   UNL     1     -10.573  10.282  65.924  1.00  0.00    -0.084 NA 
HETATM    9  H1  UNL     1      -9.980   9.719  63.598  1.00  0.00     0.000 HD 
HETATM   10  C   UNL     1     -10.864  10.699  67.116  1.00  0.00    -0.270 C  
HETATM   11  H2  UNL     1     -10.115  11.343  62.898  1.00  0.00     0.000 HD 
HETATM   12  N   UNL     1     -11.104  12.001  67.505  1.00  0.00    -0.258 NA 
HETATM   13  N   UNL     1     -10.869   9.712  68.055  1.00  0.00    -0.415 NA 
HETATM   14  H1  UNL     1     -11.097  10.041  68.993  1.00  0.00     0.000 HD 
HETATM   15  H2  UNL     1     -10.664   8.737  67.840  1.00  0.00     0.000 HD 
ENDROOT
BRANCH  12  16
HETATM   16  C   UNL     1     -11.555  12.391  68.798  1.00  0.00    -0.326 A  
HETATM   17  C   UNL     1     -12.153  11.509  69.715  1.00  0.00    -0.374 A  
HETATM   18  C   UNL     1     -12.720  11.931  70.930  1.00  0.00    -0.301 A  
HETATM   19  C   UNL     1     -12.692  13.271  71.279  1.00  0.00    -0.323 A  
HETATM   20  C   UNL     1     -12.052  14.173  70.445  1.00  0.00    -0.417 A  
HETATM   21 CL   UNL     1     -13.451  13.799  72.724  1.00  0.00    -0.604 Cl 
HETATM   22  C   UNL     1     -11.477  13.729  69.240  1.00  0.00    -0.344 A  
ENDBRANCH  12  16
TORSDOF 1
ENDMDL
MODEL       72
REMARK 921   NORMALIZED FREE ENERGY PREDICTED BY IDOCK:   -4.34 KCAL/MOL
REMARK 922        TOTAL FREE ENERGY PREDICTED BY IDOCK:   -4.83 KCAL/MOL
REMARK 923 INTER-LIGAND FREE ENERGY PREDICTED BY IDOCK:   -4.63 KCAL/MOL
REMARK 924 INTRA-LIGAND FREE ENERGY PREDICTED BY IDOCK:   -0.20 KCAL/MOL
REMARK 927      BINDING AFFINITY PREDICTED BY RF-SCORE:    0.00 PKD
ROOT
HETATM    1  C   UNL     1     -11.971  13.290  68.012  1.00  0.00    -0.351 C  
HETATM    2  C   UNL     1     -10.850  12.594  67.207  1.00  0.00    -0.248 C  
HETATM    3  N   UNL     1     -10.254  13.745  66.514  1.00  0.00    -0.278 NA 
HETATM    4  C   UNL     1     -11.406  11.731  66.060  1.00  0.00    -0.335 C  
HETATM    5  C   UNL     1      -9.070  14.112  66.822  1.00  0.00    -0.247 C  
HETATM    6  H   UNL     1     -10.779  14.244  65.796  1.00  0.00     0.000 HD 
HETATM    7  N   UNL     1      -8.593  15.259  66.288  1.00  0.00    -0.438 NA 
HETATM    8  N   UNL     1      -8.246  13.436  67.646  1.00  0.00    -0.163 NA 
HETATM    9  H1  UNL     1      -7.647  15.552  66.534  1.00  0.00     0.000 HD 
HETATM   10  C   UNL     1      -8.680  12.348  68.203  1.00  0.00    -0.190 C  
HETATM   11  H2  UNL     1      -9.165  15.818  65.655  1.00  0.00     0.000 HD 
HETATM   12  N   UNL     1      -9.937  11.793  68.071  1.00  0.00    -0.182 NA 
HETATM   13  N   UNL     1      -7.777  11.760  69.035  1.00  0.00    -0.329 NA 
HETATM   14  H1  UNL     1      -8.120  10.905  69.473  1.00  0.00     0.000 HD 
HETATM   15  H2  UNL     1      -6.846  12.139  69.205  1.00  0.00     0.000 HD 
ENDROOT
BRANCH  12  16
HETATM   16  C   UNL     1     -10.322  10.526  68.592  1.00  0.00    -0.185 A  
HETATM   17  C   UNL     1     -10.899  10.346  69.861  1.00  0.00    -0.353 A  
HETATM   18  C   UNL     1     -11.146   9.081  70.422  1.00  0.00    -0.279 A  
HETATM   19  C   UNL     1     -10.832   7.935  69.710  1.00  0.00    -0.202 A  
HETATM   20  C   UNL     1     -10.326   8.054  68.426  1.00  0.00    -0.236 A  
HETATM   21 CL   UNL     1     -11.060   6.390  70.422  1.00  0.00    -0.368 Cl 
HETATM   22  C   UNL     1     -10.100   9.329  67.877  1.00  0.00    -0.246 A  
ENDBRANCH  12  16
TORSDOF 1
ENDMDL
MODEL       73
REMARK 921   NORMALIZED FREE ENERGY PREDICTED BY IDOCK:   -4.33 KCAL/MOL
REMARK 922        TOTAL FREE ENERGY PREDICTED BY IDOCK:   -4.82 KCAL/MOL
REMARK 923 INTER-LIGAND FREE ENERGY PREDICTED BY IDOCK:   -4.59 KCAL/MOL
REMARK 924 INTRA-LIGAND FREE ENERGY PREDICTED BY IDOCK:   -0.23 KCAL/MOL
REMARK 927      BINDING AFFINITY PREDICTED BY RF-SCORE:    0.00 PKD
ROOT
HETATM    1  C   UNL     1      -6.403  18.254  65.631  1.00  0.00    -0.300 C  
HETATM    2  C   UNL     1      -6.474  18.059  67.162  1.00  0.00    -0.172 C  
HETATM    3  N   UNL     1      -5.559  19.115  67.617  1.00  0.00    -0.178 NA 
HETATM    4  C   UNL     1      -5.782  16.761  67.618  1.00  0.00    -0.166 C  
HETATM    5  C   UNL     1      -6.030  20.112  68.261  1.00  0.00    -0.254 C  
HETATM    6  H   UNL     1      -4.560  19.052  67.422  1.00  0.00     0.000 HD 
HETATM    7  N   UNL     1      -5.205  21.146  68.540  1.00  0.00    -0.422 NA 
HETATM    8  N   UNL     1      -7.304  20.217  68.692  1.00  0.00    -0.188 NA 
HETATM    9  H1  UNL     1      -5.582  21.943  69.054  1.00  0.00     0.000 HD 
HETATM   10  C   UNL     1      -8.133  19.259  68.414  1.00  0.00    -0.343 C  
HETATM   11  H2  UNL     1      -4.229  21.130  68.243  1.00  0.00     0.000 HD 
HETATM   12  N   UNL     1      -7.870  18.119  67.682  1.00  0.00    -0.223 NA 
HETATM   13  N   UNL     1      -9.396  19.478  68.874  1.00  0.00    -0.373 NA 
HETATM   14  H1  UNL     1     -10.048  18.725  68.655  1.00  0.00     0.000 HD 
HETATM   15  H2  UNL     1      -9.664  20.316  69.389  1.00  0.00     0.000 HD 
ENDROOT
BRANCH  12  16
HETATM   16  C   UNL     1      -8.775  17.032  67.522  1.00  0.00    -0.210 A  
HETATM   17  C   UNL     1      -9.523  16.806  66.354  1.00  0.00    -0.307 A  
HETATM   18  C   UNL     1     -10.515  15.814  66.255  1.00  0.00    -0.315 A  
HETATM   19  C   UNL     1     -10.783  14.994  67.338  1.00  0.00    -0.289 A  
HETATM   20  C   UNL     1     -10.027  15.127  68.491  1.00  0.00    -0.223 A  
HETATM   21 CL   UNL     1     -12.046  13.835  67.247  1.00  0.00    -0.420 Cl 
HETATM   22  C   UNL     1      -9.028  16.116  68.565  1.00  0.00    -0.204 A  
ENDBRANCH  12  16
TORSDOF 1
ENDMDL
MODEL       74
REMARK 921   NORMALIZED FREE ENERGY PREDICTED BY IDOCK:   -4.33 KCAL/MOL
REMARK 922        TOTAL FREE ENERGY PREDICTED BY IDOCK:   -4.82 KCAL/MOL
REMARK 923 INTER-LIGAND FREE ENERGY PREDICTED BY IDOCK:   -5.32 KCAL/MOL
REMARK 924 INTRA-LIGAND FREE ENERGY PREDICTED BY IDOCK:    0.50 KCAL/MOL
REMARK 927      BINDING AFFINITY PREDICTED BY RF-SCORE:    0.00 PKD
ROOT
HETATM    1  C   UNL     1     -10.763  11.246  65.966  1.00  0.00    -0.301 C  
HETATM    2  C   UNL     1      -9.796  11.840  67.014  1.00  0.00    -0.197 C  
HETATM    3  N   UNL     1      -9.229  12.966  66.259  1.00  0.00    -0.432 NA 
HETATM    4  C   UNL     1      -8.580  10.928  67.268  1.00  0.00    -0.128 C  
HETATM    5  C   UNL     1      -9.504  14.159  66.624  1.00  0.00    -0.289 C  
HETATM    6  H   UNL     1      -8.625  12.798  65.456  1.00  0.00     0.000 HD 
HETATM    7  N   UNL     1      -9.103  15.181  65.834  1.00  0.00    -0.460 NA 
HETATM    8  N   UNL     1     -10.169  14.485  67.750  1.00  0.00    -0.225 NA 
HETATM    9  H1  UNL     1      -9.322  16.134  66.126  1.00  0.00     0.000 HD 
HETATM   10  C   UNL     1     -10.599  13.531  68.515  1.00  0.00    -0.247 C  
HETATM   11  H2  UNL     1      -8.594  15.003  64.969  1.00  0.00     0.000 HD 
HETATM   12  N   UNL     1     -10.477  12.173  68.297  1.00  0.00    -0.207 NA 
HETATM   13  N   UNL     1     -11.278  13.971  69.611  1.00  0.00    -0.405 NA 
HETATM   14  H1  UNL     1     -11.616  13.219  70.212  1.00  0.00     0.000 HD 
HETATM   15  H2  UNL     1     -11.435  14.958  69.810  1.00  0.00     0.000 HD 
ENDROOT
BRANCH  12  16
HETATM   16  C   UNL     1     -10.842  11.166  69.234  1.00  0.00    -0.229 A  
HETATM   17  C   UNL     1     -12.146  11.000  69.733  1.00  0.00    -0.424 A  
HETATM   18  C   UNL     1     -12.468  10.095  70.759  1.00  0.00    -0.417 A  
HETATM   19  C   UNL     1     -11.479   9.303  71.319  1.00  0.00    -0.347 A  
HETATM   20  C   UNL     1     -10.190   9.376  70.817  1.00  0.00    -0.368 A  
HETATM   21 CL   UNL     1     -11.853   8.254  72.624  1.00  0.00    -0.444 Cl 
HETATM   22  C   UNL     1      -9.891  10.277  69.779  1.00  0.00    -0.201 A  
ENDBRANCH  12  16
TORSDOF 1
ENDMDL
MODEL       75
REMARK 921   NORMALIZED FREE ENERGY PREDICTED BY IDOCK:   -4.33 KCAL/MOL
REMARK 922        TOTAL FREE ENERGY PREDICTED BY IDOCK:   -4.82 KCAL/MOL
REMARK 923 INTER-LIGAND FREE ENERGY PREDICTED BY IDOCK:   -4.64 KCAL/MOL
REMARK 924 INTRA-LIGAND FREE ENERGY PREDICTED BY IDOCK:   -0.18 KCAL/MOL
REMARK 927      BINDING AFFINITY PREDICTED BY RF-SCORE:    0.00 PKD
ROOT
HETATM    1  C   UNL     1      -8.371  11.024  65.197  1.00  0.00     0.090 C  
HETATM    2  C   UNL     1      -9.835  10.910  65.679  1.00  0.00    -0.241 C  
HETATM    3  N   UNL     1     -10.034   9.455  65.613  1.00  0.00    -0.410 NA 
HETATM    4  C   UNL     1     -10.834  11.457  64.643  1.00  0.00    -0.359 C  
HETATM    5  C   UNL     1     -10.189   8.799  66.698  1.00  0.00    -0.270 C  
HETATM    6  H   UNL     1     -10.049   8.976  64.714  1.00  0.00     0.000 HD 
HETATM    7  N   UNL     1     -10.219   7.449  66.635  1.00  0.00    -0.450 NA 
HETATM    8  N   UNL     1     -10.329   9.354  67.919  1.00  0.00    -0.212 NA 
HETATM    9  H1  UNL     1     -10.343   6.925  67.502  1.00  0.00     0.000 HD 
HETATM   10  C   UNL     1     -10.273  10.646  68.024  1.00  0.00    -0.175 C  
HETATM   11  H2  UNL     1     -10.119   6.966  65.742  1.00  0.00     0.000 HD 
HETATM   12  N   UNL     1     -10.052  11.552  67.006  1.00  0.00    -0.206 NA 
HETATM   13  N   UNL     1     -10.401  11.098  69.302  1.00  0.00    -0.393 NA 
HETATM   14  H1  UNL     1     -10.356  12.113  69.383  1.00  0.00     0.000 HD 
HETATM   15  H2  UNL     1     -10.529  10.479  70.102  1.00  0.00     0.000 HD 
ENDROOT
BRANCH  12  16
HETATM   16  C   UNL     1     -10.136  12.966  67.148  1.00  0.00    -0.243 A  
HETATM   17  C   UNL     1     -11.336  13.656  67.390  1.00  0.00    -0.340 A  
HETATM   18  C   UNL     1     -11.431  15.058  67.390  1.00  0.00    -0.326 A  
HETATM   19  C   UNL     1     -10.304  15.828  67.157  1.00  0.00    -0.291 A  
HETATM   20  C   UNL     1      -9.081  15.202  66.982  1.00  0.00    -0.249 A  
HETATM   21 CL   UNL     1     -10.431  17.538  67.079  1.00  0.00    -0.319 Cl 
HETATM   22  C   UNL     1      -9.004  13.796  67.002  1.00  0.00    -0.247 A  
ENDBRANCH  12  16
TORSDOF 1
ENDMDL
MODEL       76
REMARK 921   NORMALIZED FREE ENERGY PREDICTED BY IDOCK:   -4.26 KCAL/MOL
REMARK 922        TOTAL FREE ENERGY PREDICTED BY IDOCK:   -4.75 KCAL/MOL
REMARK 923 INTER-LIGAND FREE ENERGY PREDICTED BY IDOCK:   -4.63 KCAL/MOL
REMARK 924 INTRA-LIGAND FREE ENERGY PREDICTED BY IDOCK:   -0.12 KCAL/MOL
REMARK 927      BINDING AFFINITY PREDICTED BY RF-SCORE:    0.00 PKD
ROOT
HETATM    1  C   UNL     1     -10.045   9.350  66.373  1.00  0.00    -0.332 C  
HETATM    2  C   UNL     1      -9.273  10.408  65.553  1.00  0.00    -0.184 C  
HETATM    3  N   UNL     1      -8.677   9.565  64.507  1.00  0.00    -0.193 NA 
HETATM    4  C   UNL     1      -8.051  10.957  66.312  1.00  0.00    -0.165 C  
HETATM    5  C   UNL     1      -9.074   9.698  63.300  1.00  0.00    -0.191 C  
HETATM    6  H   UNL     1      -7.957   8.882  64.741  1.00  0.00     0.000 HD 
HETATM    7  N   UNL     1      -8.630   8.816  62.376  1.00  0.00    -0.314 NA 
HETATM    8  N   UNL     1      -9.909  10.664  62.867  1.00  0.00    -0.292 NA 
HETATM    9  H1  UNL     1      -8.947   8.922  61.412  1.00  0.00     0.000 HD 
HETATM   10  C   UNL     1     -10.381  11.508  63.730  1.00  0.00    -0.399 C  
HETATM   11  H2  UNL     1      -7.995   8.062  62.637  1.00  0.00     0.000 HD 
HETATM   12  N   UNL     1     -10.146  11.524  65.090  1.00  0.00    -0.256 NA 
HETATM   13  N   UNL     1     -11.233  12.423  63.191  1.00  0.00    -0.709 NA 
HETATM   14  H1  UNL     1     -11.604  13.087  63.871  1.00  0.00     0.000 HD 
HETATM   15  H2  UNL     1     -11.477  12.443  62.202  1.00  0.00     0.000 HD 
ENDROOT
BRANCH  12  16
HETATM   16  C   UNL     1     -10.576  12.553  65.975  1.00  0.00    -0.263 A  
HETATM   17  C   UNL     1     -11.494  12.351  67.020  1.00  0.00    -0.423 A  
HETATM   18  C   UNL     1     -12.017  13.398  67.799  1.00  0.00    -0.363 A  
HETATM   19  C   UNL     1     -11.620  14.703  67.560  1.00  0.00    -0.375 A  
HETATM   20  C   UNL     1     -10.665  14.952  66.587  1.00  0.00    -0.312 A  
HETATM   21 CL   UNL     1     -12.315  15.991  68.455  1.00  0.00     0.475 Cl 
HETATM   22  C   UNL     1     -10.141  13.888  65.829  1.00  0.00    -0.336 A  
ENDBRANCH  12  16
TORSDOF 1
ENDMDL
MODEL       77
REMARK 921   NORMALIZED FREE ENERGY PREDICTED BY IDOCK:   -4.25 KCAL/MOL
REMARK 922        TOTAL FREE ENERGY PREDICTED BY IDOCK:   -4.74 KCAL/MOL
REMARK 923 INTER-LIGAND FREE ENERGY PREDICTED BY IDOCK:   -4.50 KCAL/MOL
REMARK 924 INTRA-LIGAND FREE ENERGY PREDICTED BY IDOCK:   -0.24 KCAL/MOL
REMARK 927      BINDING AFFINITY PREDICTED BY RF-SCORE:    0.00 PKD
ROOT
HETATM    1  C   UNL     1     -11.115  11.636  65.660  1.00  0.00    -0.308 C  
HETATM    2  C   UNL     1     -10.467  11.818  67.051  1.00  0.00    -0.220 C  
HETATM    3  N   UNL     1     -10.950  13.161  67.405  1.00  0.00    -0.259 NA 
HETATM    4  C   UNL     1      -8.940  11.995  66.964  1.00  0.00    -0.198 C  
HETATM    5  C   UNL     1     -11.780  13.289  68.367  1.00  0.00    -0.354 C  
HETATM    6  H   UNL     1     -10.626  13.979  66.890  1.00  0.00     0.000 HD 
HETATM    7  N   UNL     1     -12.330  14.505  68.584  1.00  0.00    -0.589 NA 
HETATM    8  N   UNL     1     -12.155  12.295  69.198  1.00  0.00    -0.225 NA 
HETATM    9  H1  UNL     1     -12.993  14.608  69.353  1.00  0.00     0.000 HD 
HETATM   10  C   UNL     1     -11.673  11.107  69.000  1.00  0.00    -0.339 C  
HETATM   11  H2  UNL     1     -12.088  15.300  67.993  1.00  0.00     0.000 HD 
HETATM   12  N   UNL     1     -10.815  10.716  67.993  1.00  0.00    -0.239 NA 
HETATM   13  N   UNL     1     -12.137  10.176  69.878  1.00  0.00    -0.481 NA 
HETATM   14  H1  UNL     1     -11.758   9.242  69.723  1.00  0.00     0.000 HD 
HETATM   15  H2  UNL     1     -12.800  10.391  70.622  1.00  0.00     0.000 HD 
ENDROOT
BRANCH  12  16
HETATM   16  C   UNL     1     -10.206   9.433  67.899  1.00  0.00    -0.211 A  
HETATM   17  C   UNL     1      -9.112   9.030  68.684  1.00  0.00    -0.137 A  
HETATM   18  C   UNL     1      -8.431   7.816  68.489  1.00  0.00    -0.129 A  
HETATM   19  C   UNL     1      -8.840   6.945  67.493  1.00  0.00    -0.118 A  
HETATM   20  C   UNL     1      -9.956   7.261  66.735  1.00  0.00    -0.287 A  
HETATM   21 CL   UNL     1      -7.963   5.499  67.200  1.00  0.00    -0.101 Cl 
HETATM   22  C   UNL     1     -10.633   8.474  66.957  1.00  0.00    -0.305 A  
ENDBRANCH  12  16
TORSDOF 1
ENDMDL
MODEL       78
REMARK 921   NORMALIZED FREE ENERGY PREDICTED BY IDOCK:   -4.23 KCAL/MOL
REMARK 922        TOTAL FREE ENERGY PREDICTED BY IDOCK:   -4.72 KCAL/MOL
REMARK 923 INTER-LIGAND FREE ENERGY PREDICTED BY IDOCK:   -4.48 KCAL/MOL
REMARK 924 INTRA-LIGAND FREE ENERGY PREDICTED BY IDOCK:   -0.24 KCAL/MOL
REMARK 927      BINDING AFFINITY PREDICTED BY RF-SCORE:    0.00 PKD
ROOT
HETATM    1  C   UNL     1     -10.875  17.176  68.308  1.00  0.00    -0.314 C  
HETATM    2  C   UNL     1      -9.544  16.696  67.686  1.00  0.00    -0.239 C  
HETATM    3  N   UNL     1      -8.734  17.918  67.792  1.00  0.00    -0.246 NA 
HETATM    4  C   UNL     1      -9.658  16.469  66.167  1.00  0.00    -0.344 C  
HETATM    5  C   UNL     1      -7.736  17.935  68.590  1.00  0.00    -0.289 C  
HETATM    6  H   UNL     1      -8.965  18.740  67.236  1.00  0.00     0.000 HD 
HETATM    7  N   UNL     1      -7.094  19.107  68.790  1.00  0.00    -0.317 NA 
HETATM    8  N   UNL     1      -7.265  16.861  69.254  1.00  0.00    -0.216 NA 
HETATM    9  H1  UNL     1      -6.297  19.121  69.427  1.00  0.00     0.000 HD 
HETATM   10  C   UNL     1      -7.876  15.726  69.113  1.00  0.00    -0.227 C  
HETATM   11  H2  UNL     1      -7.399  19.958  68.317  1.00  0.00     0.000 HD 
HETATM   12  N   UNL     1      -9.005  15.479  68.359  1.00  0.00    -0.184 NA 
HETATM   13  N   UNL     1      -7.332  14.716  69.847  1.00  0.00    -0.393 NA 
HETATM   14  H1  UNL     1      -7.813  13.824  69.735  1.00  0.00     0.000 HD 
HETATM   15  H2  UNL     1      -6.521  14.840  70.452  1.00  0.00     0.000 HD 
ENDROOT
BRANCH  12  16
HETATM   16  C   UNL     1      -9.558  14.189  68.124  1.00  0.00    -0.218 A  
HETATM   17  C   UNL     1     -10.665  13.675  68.822  1.00  0.00    -0.265 A  
HETATM   18  C   UNL     1     -11.115  12.351  68.682  1.00  0.00    -0.297 A  
HETATM   19  C   UNL     1     -10.469  11.488  67.813  1.00  0.00    -0.188 A  
HETATM   20  C   UNL     1      -9.415  11.962  67.048  1.00  0.00    -0.192 A  
HETATM   21 CL   UNL     1     -10.967   9.850  67.698  1.00  0.00    -0.323 Cl 
HETATM   22  C   UNL     1      -8.989  13.295  67.192  1.00  0.00    -0.229 A  
ENDBRANCH  12  16
TORSDOF 1
ENDMDL
MODEL       79
REMARK 921   NORMALIZED FREE ENERGY PREDICTED BY IDOCK:   -4.22 KCAL/MOL
REMARK 922        TOTAL FREE ENERGY PREDICTED BY IDOCK:   -4.71 KCAL/MOL
REMARK 923 INTER-LIGAND FREE ENERGY PREDICTED BY IDOCK:   -4.47 KCAL/MOL
REMARK 924 INTRA-LIGAND FREE ENERGY PREDICTED BY IDOCK:   -0.24 KCAL/MOL
REMARK 927      BINDING AFFINITY PREDICTED BY RF-SCORE:    0.00 PKD
ROOT
HETATM    1  C   UNL     1      -9.483  14.328  65.025  1.00  0.00     0.663 C  
HETATM    2  C   UNL     1     -10.790  15.043  65.435  1.00  0.00    -0.364 C  
HETATM    3  N   UNL     1     -11.790  14.177  64.794  1.00  0.00    -0.394 NA 
HETATM    4  C   UNL     1     -10.967  16.393  64.715  1.00  0.00    -0.246 C  
HETATM    5  C   UNL     1     -12.571  13.481  65.526  1.00  0.00    -0.481 C  
HETATM    6  H   UNL     1     -11.859  14.133  63.778  1.00  0.00     0.000 HD 
HETATM    7  N   UNL     1     -13.380  12.579  64.927  1.00  0.00    -0.499 NA 
HETATM    8  N   UNL     1     -12.657  13.578  66.869  1.00  0.00    -0.089 NA 
HETATM    9  H1  UNL     1     -14.005  12.023  65.512  1.00  0.00     0.000 HD 
HETATM   10  C   UNL     1     -11.873  14.409  67.481  1.00  0.00    -0.386 C  
HETATM   11  H2  UNL     1     -13.367  12.457  63.915  1.00  0.00     0.000 HD 
HETATM   12  N   UNL     1     -10.909  15.216  66.911  1.00  0.00    -0.313 NA 
HETATM   13  N   UNL     1     -12.024  14.408  68.835  1.00  0.00    -0.438 NA 
HETATM   14  H1  UNL     1     -11.407  15.062  69.316  1.00  0.00     0.000 HD 
HETATM   15  H2  UNL     1     -12.691  13.810  69.321  1.00  0.00     0.000 HD 
ENDROOT
BRANCH  12  16
HETATM   16  C   UNL     1     -10.169  16.212  67.609  1.00  0.00    -0.265 A  
HETATM   17  C   UNL     1     -10.668  17.493  67.903  1.00  0.00    -0.340 A  
HETATM   18  C   UNL     1      -9.884  18.514  68.467  1.00  0.00    -0.414 A  
HETATM   19  C   UNL     1      -8.555  18.276  68.774  1.00  0.00    -0.220 A  
HETATM   20  C   UNL     1      -8.029  17.011  68.569  1.00  0.00    -0.249 A  
HETATM   21 CL   UNL     1      -7.574  19.542  69.389  1.00  0.00    -0.255 Cl 
HETATM   22  C   UNL     1      -8.835  15.997  68.018  1.00  0.00    -0.175 A  
ENDBRANCH  12  16
TORSDOF 1
ENDMDL
MODEL       80
REMARK 921   NORMALIZED FREE ENERGY PREDICTED BY IDOCK:   -4.20 KCAL/MOL
REMARK 922        TOTAL FREE ENERGY PREDICTED BY IDOCK:   -4.68 KCAL/MOL
REMARK 923 INTER-LIGAND FREE ENERGY PREDICTED BY IDOCK:   -5.61 KCAL/MOL
REMARK 924 INTRA-LIGAND FREE ENERGY PREDICTED BY IDOCK:    0.93 KCAL/MOL
REMARK 927      BINDING AFFINITY PREDICTED BY RF-SCORE:    0.00 PKD
ROOT
HETATM    1  C   UNL     1     -12.174  13.193  66.575  1.00  0.00    -0.358 C  
HETATM    2  C   UNL     1     -10.948  13.407  65.659  1.00  0.00    -0.281 C  
HETATM    3  N   UNL     1     -11.514  14.308  64.646  1.00  0.00    -0.422 NA 
HETATM    4  C   UNL     1     -10.592  12.141  64.856  1.00  0.00    -0.332 C  
HETATM    5  C   UNL     1     -11.098  15.514  64.585  1.00  0.00    -0.359 C  
HETATM    6  H   UNL     1     -12.230  13.976  64.001  1.00  0.00     0.000 HD 
HETATM    7  N   UNL     1     -11.732  16.372  63.754  1.00  0.00    -1.498 NA 
HETATM    8  N   UNL     1     -10.060  16.006  65.291  1.00  0.00    -0.492 NA 
HETATM    9  H1  UNL     1     -11.399  17.335  63.705  1.00  0.00     0.000 HD 
HETATM   10  C   UNL     1      -9.449  15.222  66.123  1.00  0.00    -0.326 C  
HETATM   11  H2  UNL     1     -12.523  16.064  63.190  1.00  0.00     0.000 HD 
HETATM   12  N   UNL     1      -9.758  13.906  66.404  1.00  0.00    -0.291 NA 
HETATM   13  N   UNL     1      -8.435  15.827  66.802  1.00  0.00    -0.244 NA 
HETATM   14  H1  UNL     1      -7.954  15.209  67.456  1.00  0.00     0.000 HD 
HETATM   15  H2  UNL     1      -8.179  16.805  66.668  1.00  0.00     0.000 HD 
ENDROOT
BRANCH  12  16
HETATM   16  C   UNL     1      -8.972  13.046  67.222  1.00  0.00    -0.212 A  
HETATM   17  C   UNL     1      -9.466  11.876  67.825  1.00  0.00    -0.184 A  
HETATM   18  C   UNL     1      -8.724  11.110  68.740  1.00  0.00    -0.130 A  
HETATM   19  C   UNL     1      -7.436  11.490  69.078  1.00  0.00    -0.073 A  
HETATM   20  C   UNL     1      -6.874  12.596  68.461  1.00  0.00    -0.090 A  
HETATM   21 CL   UNL     1      -6.557  10.603  70.254  1.00  0.00    -0.152 Cl 
HETATM   22  C   UNL     1      -7.628  13.341  67.534  1.00  0.00    -0.169 A  
ENDBRANCH  12  16
TORSDOF 1
ENDMDL
MODEL       81
REMARK 921   NORMALIZED FREE ENERGY PREDICTED BY IDOCK:   -4.17 KCAL/MOL
REMARK 922        TOTAL FREE ENERGY PREDICTED BY IDOCK:   -4.65 KCAL/MOL
REMARK 923 INTER-LIGAND FREE ENERGY PREDICTED BY IDOCK:   -4.42 KCAL/MOL
REMARK 924 INTRA-LIGAND FREE ENERGY PREDICTED BY IDOCK:   -0.23 KCAL/MOL
REMARK 927      BINDING AFFINITY PREDICTED BY RF-SCORE:    0.00 PKD
ROOT
HETATM    1  C   UNL     1      -9.128   6.140  69.908  1.00  0.00    -0.146 C  
HETATM    2  C   UNL     1     -10.443   6.794  69.429  1.00  0.00    -0.217 C  
HETATM    3  N   UNL     1     -11.377   6.328  70.464  1.00  0.00    -0.358 NA 
HETATM    4  C   UNL     1     -10.981   6.145  68.140  1.00  0.00    -0.398 C  
HETATM    5  C   UNL     1     -11.878   7.176  71.277  1.00  0.00    -0.318 C  
HETATM    6  H   UNL     1     -11.621   5.340  70.532  1.00  0.00     0.000 HD 
HETATM    7  N   UNL     1     -12.612   6.716  72.314  1.00  0.00    -0.551 NA 
HETATM    8  N   UNL     1     -11.733   8.513  71.179  1.00  0.00    -0.279 NA 
HETATM    9  H1  UNL     1     -13.013   7.394  72.963  1.00  0.00     0.000 HD 
HETATM   10  C   UNL     1     -11.008   8.990  70.216  1.00  0.00    -0.244 C  
HETATM   11  H2  UNL     1     -12.762   5.716  72.445  1.00  0.00     0.000 HD 
HETATM   12  N   UNL     1     -10.320   8.270  69.260  1.00  0.00    -0.216 NA 
HETATM   13  N   UNL     1     -10.907  10.348  70.226  1.00  0.00    -0.411 NA 
HETATM   14  H1  UNL     1     -10.337  10.722  69.468  1.00  0.00     0.000 HD 
HETATM   15  H2  UNL     1     -11.360  10.935  70.926  1.00  0.00     0.000 HD 
ENDROOT
BRANCH  12  16
HETATM   16  C   UNL     1      -9.651   8.841  68.141  1.00  0.00    -0.146 A  
HETATM   17  C   UNL     1     -10.285   9.146  66.924  1.00  0.00    -0.336 A  
HETATM   18  C   UNL     1      -9.590   9.579  65.782  1.00  0.00    -0.337 A  
HETATM   19  C   UNL     1      -8.215   9.737  65.826  1.00  0.00    -0.122 A  
HETATM   20  C   UNL     1      -7.547   9.518  67.020  1.00  0.00    -0.091 A  
HETATM   21 CL   UNL     1      -7.355  10.189  64.412  1.00  0.00    -0.136 Cl 
HETATM   22  C   UNL     1      -8.263   9.100  68.157  1.00  0.00    -0.116 A  
ENDBRANCH  12  16
TORSDOF 1
ENDMDL
MODEL       82
REMARK 921   NORMALIZED FREE ENERGY PREDICTED BY IDOCK:   -4.16 KCAL/MOL
REMARK 922        TOTAL FREE ENERGY PREDICTED BY IDOCK:   -4.64 KCAL/MOL
REMARK 923 INTER-LIGAND FREE ENERGY PREDICTED BY IDOCK:   -4.42 KCAL/MOL
REMARK 924 INTRA-LIGAND FREE ENERGY PREDICTED BY IDOCK:   -0.22 KCAL/MOL
REMARK 927      BINDING AFFINITY PREDICTED BY RF-SCORE:    0.00 PKD
ROOT
HETATM    1  C   UNL     1     -10.298   5.817  69.172  1.00  0.00    -0.316 C  
HETATM    2  C   UNL     1     -10.641   6.679  70.409  1.00  0.00    -0.223 C  
HETATM    3  N   UNL     1     -10.171   5.804  71.492  1.00  0.00    -0.196 NA 
HETATM    4  C   UNL     1     -12.159   6.771  70.652  1.00  0.00    -0.371 C  
HETATM    5  C   UNL     1      -9.162   6.164  72.188  1.00  0.00    -0.141 C  
HETATM    6  H   UNL     1     -10.645   4.922  71.686  1.00  0.00     0.000 HD 
HETATM    7  N   UNL     1      -8.649   5.285  73.078  1.00  0.00    -0.118 NA 
HETATM    8  N   UNL     1      -8.562   7.368  72.107  1.00  0.00    -0.112 NA 
HETATM    9  H1  UNL     1      -7.844   5.572  73.635  1.00  0.00     0.000 HD 
HETATM   10  C   UNL     1      -9.006   8.225  71.241  1.00  0.00    -0.160 C  
HETATM   11  H2  UNL     1      -9.057   4.357  73.191  1.00  0.00     0.000 HD 
HETATM   12  N   UNL     1     -10.037   8.040  70.343  1.00  0.00    -0.193 NA 
HETATM   13  N   UNL     1      -8.312   9.397  71.225  1.00  0.00    -0.280 NA 
HETATM   14  H1  UNL     1      -8.662  10.071  70.544  1.00  0.00     0.000 HD 
HETATM   15  H2  UNL     1      -7.518   9.583  71.837  1.00  0.00     0.000 HD 
ENDROOT
BRANCH  12  16
HETATM   16  C   UNL     1     -10.578   9.058  69.508  1.00  0.00    -0.225 A  
HETATM   17  C   UNL     1     -10.348   9.137  68.124  1.00  0.00    -0.263 A  
HETATM   18  C   UNL     1     -10.770  10.220  67.334  1.00  0.00    -0.339 A  
HETATM   19  C   UNL     1     -11.460  11.272  67.913  1.00  0.00    -0.288 A  
HETATM   20  C   UNL     1     -11.775  11.213  69.260  1.00  0.00    -0.401 A  
HETATM   21 CL   UNL     1     -11.907  12.632  66.967  1.00  0.00    -0.446 Cl 
HETATM   22  C   UNL     1     -11.357  10.112  70.031  1.00  0.00    -0.351 A  
ENDBRANCH  12  16
TORSDOF 1
ENDMDL
MODEL       83
REMARK 921   NORMALIZED FREE ENERGY PREDICTED BY IDOCK:   -4.15 KCAL/MOL
REMARK 922        TOTAL FREE ENERGY PREDICTED BY IDOCK:   -4.63 KCAL/MOL
REMARK 923 INTER-LIGAND FREE ENERGY PREDICTED BY IDOCK:   -4.40 KCAL/MOL
REMARK 924 INTRA-LIGAND FREE ENERGY PREDICTED BY IDOCK:   -0.24 KCAL/MOL
REMARK 927      BINDING AFFINITY PREDICTED BY RF-SCORE:    0.00 PKD
ROOT
HETATM    1  C   UNL     1     -10.453  12.523  65.811  1.00  0.00    -0.296 C  
HETATM    2  C   UNL     1      -9.854  12.812  67.205  1.00  0.00    -0.207 C  
HETATM    3  N   UNL     1      -9.208  11.524  67.499  1.00  0.00    -0.164 NA 
HETATM    4  C   UNL     1     -10.937  12.928  68.293  1.00  0.00    -0.282 C  
HETATM    5  C   UNL     1      -7.934  11.466  67.554  1.00  0.00    -0.127 C  
HETATM    6  H   UNL     1      -9.771  10.689  67.657  1.00  0.00     0.000 HD 
HETATM    7  N   UNL     1      -7.350  10.252  67.673  1.00  0.00    -0.088 NA 
HETATM    8  N   UNL     1      -7.112  12.534  67.504  1.00  0.00    -0.138 NA 
HETATM    9  H1  UNL     1      -6.332  10.205  67.718  1.00  0.00     0.000 HD 
HETATM   10  C   UNL     1      -7.634  13.711  67.357  1.00  0.00    -0.130 C  
HETATM   11  H2  UNL     1      -7.914   9.404  67.718  1.00  0.00     0.000 HD 
HETATM   12  N   UNL     1      -8.973  14.014  67.212  1.00  0.00    -0.207 NA 
HETATM   13  N   UNL     1      -6.714  14.714  67.293  1.00  0.00    -0.357 NA 
HETATM   14  H1  UNL     1      -7.125  15.640  67.177  1.00  0.00     0.000 HD 
HETATM   15  H2  UNL     1      -5.710  14.554  67.356  1.00  0.00     0.000 HD 
ENDROOT
BRANCH  12  16
HETATM   16  C   UNL     1      -9.508  15.333  67.192  1.00  0.00    -0.214 A  
HETATM   17  C   UNL     1      -9.833  16.025  66.013  1.00  0.00    -0.365 A  
HETATM   18  C   UNL     1     -10.229  17.374  65.996  1.00  0.00    -0.308 A  
HETATM   19  C   UNL     1     -10.326  18.081  67.183  1.00  0.00    -0.374 A  
HETATM   20  C   UNL     1     -10.085  17.429  68.381  1.00  0.00    -0.347 A  
HETATM   21 CL   UNL     1     -10.733  19.748  67.160  1.00  0.00    -0.579 Cl 
HETATM   22  C   UNL     1      -9.705  16.073  68.377  1.00  0.00    -0.213 A  
ENDBRANCH  12  16
TORSDOF 1
ENDMDL
MODEL       84
REMARK 921   NORMALIZED FREE ENERGY PREDICTED BY IDOCK:   -4.15 KCAL/MOL
REMARK 922        TOTAL FREE ENERGY PREDICTED BY IDOCK:   -4.63 KCAL/MOL
REMARK 923 INTER-LIGAND FREE ENERGY PREDICTED BY IDOCK:   -4.58 KCAL/MOL
REMARK 924 INTRA-LIGAND FREE ENERGY PREDICTED BY IDOCK:   -0.05 KCAL/MOL
REMARK 927      BINDING AFFINITY PREDICTED BY RF-SCORE:    0.00 PKD
ROOT
HETATM    1  C   UNL     1      -9.196  11.565  68.375  1.00  0.00    -0.190 C  
HETATM    2  C   UNL     1     -10.335  11.506  67.332  1.00  0.00    -0.207 C  
HETATM    3  N   UNL     1     -11.333  12.379  67.965  1.00  0.00    -0.265 NA 
HETATM    4  C   UNL     1     -11.027  10.130  67.303  1.00  0.00    -0.250 C  
HETATM    5  C   UNL     1     -11.615  13.499  67.419  1.00  0.00    -0.356 C  
HETATM    6  H   UNL     1     -11.795  12.095  68.829  1.00  0.00     0.000 HD 
HETATM    7  N   UNL     1     -12.418  14.356  68.088  1.00  0.00    -0.525 NA 
HETATM    8  N   UNL     1     -11.171  13.898  66.210  1.00  0.00    -0.305 NA 
HETATM    9  H1  UNL     1     -12.644  15.251  67.651  1.00  0.00     0.000 HD 
HETATM   10  C   UNL     1     -10.373  13.116  65.553  1.00  0.00    -0.290 C  
HETATM   11  H2  UNL     1     -12.789  14.116  69.007  1.00  0.00     0.000 HD 
HETATM   12  N   UNL     1      -9.882  11.894  65.966  1.00  0.00    -0.230 NA 
HETATM   13  N   UNL     1      -9.966  13.627  64.358  1.00  0.00    -0.738 NA 
HETATM   14  H1  UNL     1      -9.337  13.012  63.842  1.00  0.00     0.000 HD 
HETATM   15  H2  UNL     1     -10.262  14.539  64.012  1.00  0.00     0.000 HD 
ENDROOT
BRANCH  12  16
HETATM   16  C   UNL     1      -9.119  11.010  65.153  1.00  0.00    -0.181 A  
HETATM   17  C   UNL     1      -9.582  10.467  63.942  1.00  0.00    -0.370 A  
HETATM   18  C   UNL     1      -8.879   9.489  63.218  1.00  0.00    -0.233 A  
HETATM   19  C   UNL     1      -7.659   9.026  63.683  1.00  0.00    -0.115 A  
HETATM   20  C   UNL     1      -7.122   9.578  64.835  1.00  0.00    -0.107 A  
HETATM   21 CL   UNL     1      -6.835   7.777  62.843  1.00  0.00    -0.078 Cl 
HETATM   22  C   UNL     1      -7.835  10.567  65.538  1.00  0.00    -0.138 A  
ENDBRANCH  12  16
TORSDOF 1
ENDMDL
MODEL       85
REMARK 921   NORMALIZED FREE ENERGY PREDICTED BY IDOCK:   -4.11 KCAL/MOL
REMARK 922        TOTAL FREE ENERGY PREDICTED BY IDOCK:   -4.58 KCAL/MOL
REMARK 923 INTER-LIGAND FREE ENERGY PREDICTED BY IDOCK:   -5.31 KCAL/MOL
REMARK 924 INTRA-LIGAND FREE ENERGY PREDICTED BY IDOCK:    0.72 KCAL/MOL
REMARK 927      BINDING AFFINITY PREDICTED BY RF-SCORE:    0.00 PKD
ROOT
HETATM    1  C   UNL     1     -10.425  12.674  65.692  1.00  0.00    -0.298 C  
HETATM    2  C   UNL     1      -9.899  13.420  66.939  1.00  0.00    -0.256 C  
HETATM    3  N   UNL     1      -9.255  14.583  66.313  1.00  0.00    -0.468 NA 
HETATM    4  C   UNL     1      -8.728  12.679  67.611  1.00  0.00    -0.179 C  
HETATM    5  C   UNL     1      -9.759  15.743  66.492  1.00  0.00    -0.265 C  
HETATM    6  H   UNL     1      -8.418  14.466  65.743  1.00  0.00     0.000 HD 
HETATM    7  N   UNL     1      -9.249  16.781  65.790  1.00  0.00    -0.518 NA 
HETATM    8  N   UNL     1     -10.770  16.020  67.339  1.00  0.00    -0.316 NA 
HETATM    9  H1  UNL     1      -9.651  17.707  65.934  1.00  0.00     0.000 HD 
HETATM   10  C   UNL     1     -11.306  15.045  68.005  1.00  0.00    -0.327 C  
HETATM   11  H2  UNL     1      -8.482  16.640  65.133  1.00  0.00     0.000 HD 
HETATM   12  N   UNL     1     -10.975  13.707  67.930  1.00  0.00    -0.254 NA 
HETATM   13  N   UNL     1     -12.334  15.432  68.810  1.00  0.00    -0.577 NA 
HETATM   14  H1  UNL     1     -12.756  14.664  69.333  1.00  0.00     0.000 HD 
HETATM   15  H2  UNL     1     -12.653  16.397  68.883  1.00  0.00     0.000 HD 
ENDROOT
BRANCH  12  16
HETATM   16  C   UNL     1     -11.497  12.694  68.781  1.00  0.00    -0.306 A  
HETATM   17  C   UNL     1     -11.640  11.349  68.398  1.00  0.00    -0.385 A  
HETATM   18  C   UNL     1     -12.284  10.386  69.194  1.00  0.00     0.173 A  
HETATM   19  C   UNL     1     -12.803  10.742  70.428  1.00  0.00    -0.213 A  
HETATM   20  C   UNL     1     -12.630  12.038  70.886  1.00  0.00    -0.347 A  
HETATM   21 CL   UNL     1     -13.658   9.589  71.367  1.00  0.00    -0.400 Cl 
HETATM   22  C   UNL     1     -11.968  12.984  70.080  1.00  0.00    -0.374 A  
ENDBRANCH  12  16
TORSDOF 1
ENDMDL
MODEL       86
REMARK 921   NORMALIZED FREE ENERGY PREDICTED BY IDOCK:   -4.10 KCAL/MOL
REMARK 922        TOTAL FREE ENERGY PREDICTED BY IDOCK:   -4.58 KCAL/MOL
REMARK 923 INTER-LIGAND FREE ENERGY PREDICTED BY IDOCK:   -4.35 KCAL/MOL
REMARK 924 INTRA-LIGAND FREE ENERGY PREDICTED BY IDOCK:   -0.23 KCAL/MOL
REMARK 927      BINDING AFFINITY PREDICTED BY RF-SCORE:    0.00 PKD
ROOT
HETATM    1  C   UNL     1     -11.512  10.908  68.581  1.00  0.00    -0.380 C  
HETATM    2  C   UNL     1     -10.261  10.083  68.203  1.00  0.00    -0.175 C  
HETATM    3  N   UNL     1      -9.666  10.942  67.170  1.00  0.00    -0.172 NA 
HETATM    4  C   UNL     1     -10.620   8.796  67.439  1.00  0.00    -0.304 C  
HETATM    5  C   UNL     1      -8.553  11.522  67.407  1.00  0.00    -0.145 C  
HETATM    6  H   UNL     1     -10.136  11.073  66.274  1.00  0.00     0.000 HD 
HETATM    7  N   UNL     1      -8.095  12.425  66.512  1.00  0.00    -0.391 NA 
HETATM    8  N   UNL     1      -7.787  11.300  68.494  1.00  0.00    -0.131 NA 
HETATM    9  H1  UNL     1      -7.205  12.888  66.701  1.00  0.00     0.000 HD 
HETATM   10  C   UNL     1      -8.211  10.465  69.391  1.00  0.00    -0.151 C  
HETATM   11  H2  UNL     1      -8.625  12.639  65.667  1.00  0.00     0.000 HD 
HETATM   12  N   UNL     1      -9.404   9.771  69.383  1.00  0.00    -0.189 NA 
HETATM   13  N   UNL     1      -7.373  10.335  70.457  1.00  0.00    -0.445 NA 
HETATM   14  H1  UNL     1      -7.707   9.678  71.162  1.00  0.00     0.000 HD 
HETATM   15  H2  UNL     1      -6.495  10.846  70.542  1.00  0.00     0.000 HD 
ENDROOT
BRANCH  12  16
HETATM   16  C   UNL     1      -9.761   8.762  70.320  1.00  0.00    -0.176 A  
HETATM   17  C   UNL     1      -9.233   7.459  70.305  1.00  0.00    -0.154 A  
HETATM   18  C   UNL     1      -9.694   6.432  71.147  1.00  0.00    -0.191 A  
HETATM   19  C   UNL     1     -10.708   6.684  72.056  1.00  0.00    -0.219 A  
HETATM   20  C   UNL     1     -11.217   7.968  72.161  1.00  0.00    -0.380 A  
HETATM   21 CL   UNL     1     -11.326   5.413  73.029  1.00  0.00    -0.363 Cl 
HETATM   22  C   UNL     1     -10.731   8.987  71.321  1.00  0.00    -0.379 A  
ENDBRANCH  12  16
TORSDOF 1
ENDMDL
MODEL       87
REMARK 921   NORMALIZED FREE ENERGY PREDICTED BY IDOCK:   -4.02 KCAL/MOL
REMARK 922        TOTAL FREE ENERGY PREDICTED BY IDOCK:   -4.50 KCAL/MOL
REMARK 923 INTER-LIGAND FREE ENERGY PREDICTED BY IDOCK:   -4.97 KCAL/MOL
REMARK 924 INTRA-LIGAND FREE ENERGY PREDICTED BY IDOCK:    0.47 KCAL/MOL
REMARK 927      BINDING AFFINITY PREDICTED BY RF-SCORE:    0.00 PKD
ROOT
HETATM    1  C   UNL     1      -7.942  16.355  69.325  1.00  0.00    -0.136 C  
HETATM    2  C   UNL     1      -9.130  17.004  68.580  1.00  0.00    -0.259 C  
HETATM    3  N   UNL     1      -8.419  17.818  67.584  1.00  0.00    -0.227 NA 
HETATM    4  C   UNL     1      -9.860  18.049  69.445  1.00  0.00     0.081 C  
HETATM    5  C   UNL     1      -8.508  17.507  66.348  1.00  0.00    -0.252 C  
HETATM    6  H   UNL     1      -7.862  18.621  67.876  1.00  0.00     0.000 HD 
HETATM    7  N   UNL     1      -7.731  18.169  65.461  1.00  0.00    -0.364 NA 
HETATM    8  N   UNL     1      -9.329  16.560  65.851  1.00  0.00    -0.489 NA 
HETATM    9  H1  UNL     1      -7.803  17.920  64.474  1.00  0.00     0.000 HD 
HETATM   10  C   UNL     1     -10.065  15.882  66.676  1.00  0.00    -0.279 C  
HETATM   11  H2  UNL     1      -7.089  18.898  65.771  1.00  0.00     0.000 HD 
HETATM   12  N   UNL     1     -10.093  15.997  68.051  1.00  0.00    -0.236 NA 
HETATM   13  N   UNL     1     -10.836  14.937  66.071  1.00  0.00    -0.320 NA 
HETATM   14  H1  UNL     1     -11.415  14.404  66.720  1.00  0.00     0.000 HD 
HETATM   15  H2  UNL     1     -10.835  14.776  65.064  1.00  0.00     0.000 HD 
ENDROOT
BRANCH  12  16
HETATM   16  C   UNL     1     -11.017  15.328  68.901  1.00  0.00    -0.261 A  
HETATM   17  C   UNL     1     -11.912  15.992  69.759  1.00  0.00    -0.188 A  
HETATM   18  C   UNL     1     -12.721  15.324  70.694  1.00  0.00    -0.470 A  
HETATM   19  C   UNL     1     -12.671  13.944  70.792  1.00  0.00    -0.313 A  
HETATM   20  C   UNL     1     -11.859  13.233  69.923  1.00  0.00    -0.380 A  
HETATM   21 CL   UNL     1     -13.599  13.132  71.985  1.00  0.00    -0.572 Cl 
HETATM   22  C   UNL     1     -11.067  13.919  68.983  1.00  0.00    -0.302 A  
ENDBRANCH  12  16
TORSDOF 1
ENDMDL
MODEL       88
REMARK 921   NORMALIZED FREE ENERGY PREDICTED BY IDOCK:   -4.01 KCAL/MOL
REMARK 922        TOTAL FREE ENERGY PREDICTED BY IDOCK:   -4.48 KCAL/MOL
REMARK 923 INTER-LIGAND FREE ENERGY PREDICTED BY IDOCK:   -5.50 KCAL/MOL
REMARK 924 INTRA-LIGAND FREE ENERGY PREDICTED BY IDOCK:    1.01 KCAL/MOL
REMARK 927      BINDING AFFINITY PREDICTED BY RF-SCORE:    0.00 PKD
ROOT
HETATM    1  C   UNL     1     -11.810  12.003  67.272  1.00  0.00    -0.257 C  
HETATM    2  C   UNL     1     -11.039  12.502  68.515  1.00  0.00    -0.262 C  
HETATM    3  N   UNL     1     -10.790  13.901  68.141  1.00  0.00    -0.243 NA 
HETATM    4  C   UNL     1      -9.626  11.897  68.607  1.00  0.00    -0.101 C  
HETATM    5  C   UNL     1     -11.374  14.832  68.792  1.00  0.00    -0.282 C  
HETATM    6  H   UNL     1     -10.160  14.126  67.372  1.00  0.00     0.000 HD 
HETATM    7  N   UNL     1     -11.256  16.102  68.343  1.00  0.00    -0.360 NA 
HETATM    8  N   UNL     1     -12.106  14.647  69.909  1.00  0.00    -0.319 NA 
HETATM    9  H1  UNL     1     -11.722  16.846  68.863  1.00  0.00     0.000 HD 
HETATM   10  C   UNL     1     -12.269  13.439  70.351  1.00  0.00    -0.345 C  
HETATM   11  H2  UNL     1     -10.715  16.311  67.504  1.00  0.00     0.000 HD 
HETATM   12  N   UNL     1     -11.790  12.276  69.783  1.00  0.00    -0.329 NA 
HETATM   13  N   UNL     1     -13.045  13.365  71.467  1.00  0.00    -0.361 NA 
HETATM   14  H1  UNL     1     -13.173  12.414  71.814  1.00  0.00     0.000 HD 
HETATM   15  H2  UNL     1     -13.459  14.182  71.914  1.00  0.00     0.000 HD 
ENDROOT
BRANCH  12  16
HETATM   16  C   UNL     1     -11.878  10.987  70.380  1.00  0.00    -0.367 A  
HETATM   17  C   UNL     1     -10.874  10.008  70.277  1.00  0.00    -0.370 A  
HETATM   18  C   UNL     1     -11.028   8.694  70.750  1.00  0.00    -0.286 A  
HETATM   19  C   UNL     1     -12.209   8.315  71.366  1.00  0.00    -0.299 A  
HETATM   20  C   UNL     1     -13.205   9.258  71.558  1.00  0.00    -0.433 A  
HETATM   21 CL   UNL     1     -12.431   6.691  71.875  1.00  0.00    -0.376 Cl 
HETATM   22  C   UNL     1     -13.025  10.573  71.090  1.00  0.00    -0.506 A  
ENDBRANCH  12  16
TORSDOF 1
ENDMDL
MODEL       89
REMARK 921   NORMALIZED FREE ENERGY PREDICTED BY IDOCK:   -4.00 KCAL/MOL
REMARK 922        TOTAL FREE ENERGY PREDICTED BY IDOCK:   -4.47 KCAL/MOL
REMARK 923 INTER-LIGAND FREE ENERGY PREDICTED BY IDOCK:   -4.23 KCAL/MOL
REMARK 924 INTRA-LIGAND FREE ENERGY PREDICTED BY IDOCK:   -0.24 KCAL/MOL
REMARK 927      BINDING AFFINITY PREDICTED BY RF-SCORE:    0.00 PKD
ROOT
HETATM    1  C   UNL     1     -10.129   8.512  68.417  1.00  0.00    -0.221 C  
HETATM    2  C   UNL     1      -9.786   9.925  68.941  1.00  0.00    -0.176 C  
HETATM    3  N   UNL     1      -9.077   9.593  70.185  1.00  0.00    -0.237 NA 
HETATM    4  C   UNL     1     -11.034  10.684  69.429  1.00  0.00    -0.304 C  
HETATM    5  C   UNL     1      -7.827   9.841  70.274  1.00  0.00    -0.171 C  
HETATM    6  H   UNL     1      -9.577   9.171  70.967  1.00  0.00     0.000 HD 
HETATM    7  N   UNL     1      -7.159   9.394  71.360  1.00  0.00    -0.326 NA 
HETATM    8  N   UNL     1      -7.112  10.524  69.357  1.00  0.00    -0.095 NA 
HETATM    9  H1  UNL     1      -6.161   9.592  71.431  1.00  0.00     0.000 HD 
HETATM   10  C   UNL     1      -7.712  10.940  68.286  1.00  0.00    -0.111 C  
HETATM   11  H2  UNL     1      -7.641   8.871  72.091  1.00  0.00     0.000 HD 
HETATM   12  N   UNL     1      -9.034  10.739  67.943  1.00  0.00    -0.137 NA 
HETATM   13  N   UNL     1      -6.893  11.595  67.418  1.00  0.00    -0.103 NA 
HETATM   14  H1  UNL     1      -7.365  11.922  66.576  1.00  0.00     0.000 HD 
HETATM   15  H2  UNL     1      -5.900  11.745  67.594  1.00  0.00     0.000 HD 
ENDROOT
BRANCH  12  16
HETATM   16  C   UNL     1      -9.681  11.332  66.823  1.00  0.00    -0.193 A  
HETATM   17  C   UNL     1     -10.184  12.645  66.818  1.00  0.00    -0.246 A  
HETATM   18  C   UNL     1     -10.942  13.174  65.759  1.00  0.00    -0.295 A  
HETATM   19  C   UNL     1     -11.213  12.396  64.645  1.00  0.00    -0.312 A  
HETATM   20  C   UNL     1     -10.682  11.119  64.567  1.00  0.00    -0.368 A  
HETATM   21 CL   UNL     1     -12.203  13.012  63.386  1.00  0.00    -0.607 Cl 
HETATM   22  C   UNL     1      -9.913  10.613  65.631  1.00  0.00    -0.327 A  
ENDBRANCH  12  16
TORSDOF 1
ENDMDL
MODEL       90
REMARK 921   NORMALIZED FREE ENERGY PREDICTED BY IDOCK:   -3.95 KCAL/MOL
REMARK 922        TOTAL FREE ENERGY PREDICTED BY IDOCK:   -4.42 KCAL/MOL
REMARK 923 INTER-LIGAND FREE ENERGY PREDICTED BY IDOCK:   -4.20 KCAL/MOL
REMARK 924 INTRA-LIGAND FREE ENERGY PREDICTED BY IDOCK:   -0.22 KCAL/MOL
REMARK 927      BINDING AFFINITY PREDICTED BY RF-SCORE:    0.00 PKD
ROOT
HETATM    1  C   UNL     1      -9.598  11.007  65.993  1.00  0.00    -0.249 C  
HETATM    2  C   UNL     1      -9.394   9.836  66.980  1.00  0.00    -0.147 C  
HETATM    3  N   UNL     1      -8.246   9.154  66.366  1.00  0.00    -0.113 NA 
HETATM    4  C   UNL     1     -10.524   8.793  66.888  1.00  0.00    -0.319 C  
HETATM    5  C   UNL     1      -7.123   9.158  66.974  1.00  0.00    -0.086 C  
HETATM    6  H   UNL     1      -8.345   8.684  65.466  1.00  0.00     0.000 HD 
HETATM    7  N   UNL     1      -6.042   8.661  66.331  1.00  0.00    -0.055 NA 
HETATM    8  N   UNL     1      -6.927   9.622  68.225  1.00  0.00    -0.073 NA 
HETATM    9  H1  UNL     1      -5.145   8.664  66.817  1.00  0.00     0.000 HD 
HETATM   10  C   UNL     1      -7.933  10.136  68.860  1.00  0.00    -0.110 C  
HETATM   11  H2  UNL     1      -6.122   8.293  65.383  1.00  0.00     0.000 HD 
HETATM   12  N   UNL     1      -9.220  10.297  68.387  1.00  0.00    -0.132 NA 
HETATM   13  N   UNL     1      -7.619  10.595  70.103  1.00  0.00    -0.430 NA 
HETATM   14  H1  UNL     1      -8.411  11.000  70.602  1.00  0.00     0.000 HD 
HETATM   15  H2  UNL     1      -6.681  10.541  70.497  1.00  0.00     0.000 HD 
ENDROOT
BRANCH  12  16
HETATM   16  C   UNL     1     -10.322  10.739  69.171  1.00  0.00    -0.217 A  
HETATM   17  C   UNL     1     -10.894  12.019  69.062  1.00  0.00    -0.223 A  
HETATM   18  C   UNL     1     -11.888  12.494  69.934  1.00  0.00    -0.373 A  
HETATM   19  C   UNL     1     -12.362  11.684  70.952  1.00  0.00    -0.336 A  
HETATM   20  C   UNL     1     -11.884  10.388  71.062  1.00  0.00    -0.458 A  
HETATM   21 CL   UNL     1     -13.519  12.288  72.066  1.00  0.00    -0.521 Cl 
HETATM   22  C   UNL     1     -10.899   9.925  70.170  1.00  0.00    -0.356 A  
ENDBRANCH  12  16
TORSDOF 1
ENDMDL
MODEL       91
REMARK 921   NORMALIZED FREE ENERGY PREDICTED BY IDOCK:   -3.92 KCAL/MOL
REMARK 922        TOTAL FREE ENERGY PREDICTED BY IDOCK:   -4.38 KCAL/MOL
REMARK 923 INTER-LIGAND FREE ENERGY PREDICTED BY IDOCK:   -4.23 KCAL/MOL
REMARK 924 INTRA-LIGAND FREE ENERGY PREDICTED BY IDOCK:   -0.16 KCAL/MOL
REMARK 927      BINDING AFFINITY PREDICTED BY RF-SCORE:    0.00 PKD
ROOT
HETATM    1  C   UNL     1     -11.021  17.388  68.536  1.00  0.00    -0.072 C  
HETATM    2  C   UNL     1      -9.916  16.393  68.119  1.00  0.00    -0.242 C  
HETATM    3  N   UNL     1     -10.647  15.557  67.156  1.00  0.00    -0.296 NA 
HETATM    4  C   UNL     1      -9.558  15.410  69.250  1.00  0.00    -0.268 C  
HETATM    5  C   UNL     1     -10.325  15.605  65.921  1.00  0.00    -0.350 C  
HETATM    6  H   UNL     1     -11.402  14.947  67.470  1.00  0.00     0.000 HD 
HETATM    7  N   UNL     1     -11.102  14.950  65.029  1.00  0.00    -0.391 NA 
HETATM    8  N   UNL     1      -9.256  16.263  65.430  1.00  0.00    -0.199 NA 
HETATM    9  H1  UNL     1     -10.844  14.988  64.042  1.00  0.00     0.000 HD 
HETATM   10  C   UNL     1      -8.507  16.930  66.251  1.00  0.00    -0.287 C  
HETATM   11  H2  UNL     1     -11.925  14.431  65.334  1.00  0.00     0.000 HD 
HETATM   12  N   UNL     1      -8.692  17.076  67.612  1.00  0.00    -0.213 NA 
HETATM   13  N   UNL     1      -7.473  17.577  65.647  1.00  0.00    -0.381 NA 
HETATM   14  H1  UNL     1      -6.884  18.102  66.294  1.00  0.00     0.000 HD 
HETATM   15  H2  UNL     1      -7.302  17.541  64.643  1.00  0.00     0.000 HD 
ENDROOT
BRANCH  12  16
HETATM   16  C   UNL     1      -7.766  17.703  68.492  1.00  0.00    -0.281 A  
HETATM   17  C   UNL     1      -6.764  17.010  69.194  1.00  0.00    -0.241 A  
HETATM   18  C   UNL     1      -5.946  17.614  70.165  1.00  0.00    -0.121 A  
HETATM   19  C   UNL     1      -6.100  18.958  70.460  1.00  0.00     0.043 A  
HETATM   20  C   UNL     1      -7.025  19.705  69.749  1.00  0.00    -0.193 A  
HETATM   21 CL   UNL     1      -5.158  19.680  71.699  1.00  0.00    -0.358 Cl 
HETATM   22  C   UNL     1      -7.824  19.086  68.770  1.00  0.00    -0.378 A  
ENDBRANCH  12  16
TORSDOF 1
ENDMDL
MODEL       92
REMARK 921   NORMALIZED FREE ENERGY PREDICTED BY IDOCK:   -3.89 KCAL/MOL
REMARK 922        TOTAL FREE ENERGY PREDICTED BY IDOCK:   -4.36 KCAL/MOL
REMARK 923 INTER-LIGAND FREE ENERGY PREDICTED BY IDOCK:   -4.20 KCAL/MOL
REMARK 924 INTRA-LIGAND FREE ENERGY PREDICTED BY IDOCK:   -0.15 KCAL/MOL
REMARK 927      BINDING AFFINITY PREDICTED BY RF-SCORE:    0.00 PKD
ROOT
HETATM    1  C   UNL     1     -10.258  13.443  67.438  1.00  0.00    -0.237 C  
HETATM    2  C   UNL     1     -10.873  12.085  67.033  1.00  0.00    -0.253 C  
HETATM    3  N   UNL     1     -11.960  12.527  66.148  1.00  0.00    -0.569 NA 
HETATM    4  C   UNL     1     -11.613  11.408  68.201  1.00  0.00    -0.364 C  
HETATM    5  C   UNL     1     -11.893  12.262  64.900  1.00  0.00    -0.358 C  
HETATM    6  H   UNL     1     -12.757  13.039  66.525  1.00  0.00     0.000 HD 
HETATM    7  N   UNL     1     -12.819  12.804  64.077  1.00  0.00    -0.710 NA 
HETATM    8  N   UNL     1     -10.961  11.472  64.331  1.00  0.00    -0.336 NA 
HETATM    9  H1  UNL     1     -12.766  12.592  63.081  1.00  0.00     0.000 HD 
HETATM   10  C   UNL     1     -10.037  10.961  65.084  1.00  0.00    -0.292 C  
HETATM   11  H2  UNL     1     -13.553  13.410  64.444  1.00  0.00     0.000 HD 
HETATM   12  N   UNL     1      -9.869  11.156  66.440  1.00  0.00    -0.205 NA 
HETATM   13  N   UNL     1      -9.134  10.202  64.404  1.00  0.00    -0.223 NA 
HETATM   14  H1  UNL     1      -8.408   9.800  64.997  1.00  0.00     0.000 HD 
HETATM   15  H2  UNL     1      -9.180  10.048  63.397  1.00  0.00     0.000 HD 
ENDROOT
BRANCH  12  16
HETATM   16  C   UNL     1      -8.923  10.464  67.247  1.00  0.00    -0.135 A  
HETATM   17  C   UNL     1      -7.824  11.084  67.867  1.00  0.00    -0.110 A  
HETATM   18  C   UNL     1      -6.820  10.371  68.545  1.00  0.00    -0.061 A  
HETATM   19  C   UNL     1      -6.893   8.991  68.638  1.00  0.00    -0.063 A  
HETATM   20  C   UNL     1      -7.991   8.335  68.106  1.00  0.00    -0.123 A  
HETATM   21 CL   UNL     1      -5.630   8.112  69.396  1.00  0.00    -0.030 Cl 
HETATM   22  C   UNL     1      -8.994   9.068  67.444  1.00  0.00    -0.135 A  
ENDBRANCH  12  16
TORSDOF 1
ENDMDL
MODEL       93
REMARK 921   NORMALIZED FREE ENERGY PREDICTED BY IDOCK:   -3.88 KCAL/MOL
REMARK 922        TOTAL FREE ENERGY PREDICTED BY IDOCK:   -4.35 KCAL/MOL
REMARK 923 INTER-LIGAND FREE ENERGY PREDICTED BY IDOCK:   -4.14 KCAL/MOL
REMARK 924 INTRA-LIGAND FREE ENERGY PREDICTED BY IDOCK:   -0.21 KCAL/MOL
REMARK 927      BINDING AFFINITY PREDICTED BY RF-SCORE:    0.00 PKD
ROOT
HETATM    1  C   UNL     1      -9.258   4.125  69.300  1.00  0.00    -0.213 C  
HETATM    2  C   UNL     1      -8.738   5.526  68.906  1.00  0.00    -0.102 C  
HETATM    3  N   UNL     1      -7.836   5.182  67.797  1.00  0.00    -0.091 NA 
HETATM    4  C   UNL     1      -7.793   6.117  69.968  1.00  0.00    -0.106 C  
HETATM    5  C   UNL     1      -8.140   5.550  66.612  1.00  0.00    -0.105 C  
HETATM    6  H   UNL     1      -6.980   4.658  67.971  1.00  0.00     0.000 HD 
HETATM    7  N   UNL     1      -7.385   5.099  65.585  1.00  0.00    -0.072 NA 
HETATM    8  N   UNL     1      -9.168   6.366  66.300  1.00  0.00    -0.157 NA 
HETATM    9  H1  UNL     1      -7.628   5.394  64.639  1.00  0.00     0.000 HD 
HETATM   10  C   UNL     1      -9.934   6.791  67.255  1.00  0.00    -0.157 C  
HETATM   11  H2  UNL     1      -6.592   4.480  65.753  1.00  0.00     0.000 HD 
HETATM   12  N   UNL     1      -9.841   6.480  68.596  1.00  0.00    -0.137 NA 
HETATM   13  N   UNL     1     -10.954   7.586  66.826  1.00  0.00    -0.475 NA 
HETATM   14  H1  UNL     1     -11.556   7.920  67.578  1.00  0.00     0.000 HD 
HETATM   15  H2  UNL     1     -11.100   7.824  65.846  1.00  0.00     0.000 HD 
ENDROOT
BRANCH  12  16
HETATM   16  C   UNL     1     -10.620   7.081  69.624  1.00  0.00    -0.234 A  
HETATM   17  C   UNL     1     -11.657   6.420  70.305  1.00  0.00    -0.451 A  
HETATM   18  C   UNL     1     -12.510   7.063  71.219  1.00  0.00    -0.430 A  
HETATM   19  C   UNL     1     -12.340   8.409  71.495  1.00  0.00    -0.309 A  
HETATM   20  C   UNL     1     -11.290   9.093  70.905  1.00  0.00    -0.359 A  
HETATM   21 CL   UNL     1     -13.428   9.215  72.549  1.00  0.00    -0.520 Cl 
HETATM   22  C   UNL     1     -10.437   8.428  70.005  1.00  0.00    -0.224 A  
ENDBRANCH  12  16
TORSDOF 1
ENDMDL
MODEL       94
REMARK 921   NORMALIZED FREE ENERGY PREDICTED BY IDOCK:   -3.85 KCAL/MOL
REMARK 922        TOTAL FREE ENERGY PREDICTED BY IDOCK:   -4.31 KCAL/MOL
REMARK 923 INTER-LIGAND FREE ENERGY PREDICTED BY IDOCK:   -4.17 KCAL/MOL
REMARK 924 INTRA-LIGAND FREE ENERGY PREDICTED BY IDOCK:   -0.14 KCAL/MOL
REMARK 927      BINDING AFFINITY PREDICTED BY RF-SCORE:    0.00 PKD
ROOT
HETATM    1  C   UNL     1     -10.542  11.992  65.595  1.00  0.00    -0.303 C  
HETATM    2  C   UNL     1      -9.832  12.401  66.905  1.00  0.00    -0.215 C  
HETATM    3  N   UNL     1      -9.960  13.864  66.843  1.00  0.00    -0.258 NA 
HETATM    4  C   UNL     1      -8.311  12.169  66.841  1.00  0.00    -0.151 C  
HETATM    5  C   UNL     1     -10.707  14.459  67.691  1.00  0.00    -0.263 C  
HETATM    6  H   UNL     1      -9.459  14.396  66.132  1.00  0.00     0.000 HD 
HETATM    7  N   UNL     1     -10.935  15.782  67.529  1.00  0.00    -0.315 NA 
HETATM    8  N   UNL     1     -11.292  13.866  68.751  1.00  0.00    -0.259 NA 
HETATM    9  H1  UNL     1     -11.531  16.258  68.207  1.00  0.00     0.000 HD 
HETATM   10  C   UNL     1     -11.122  12.591  68.920  1.00  0.00    -0.260 C  
HETATM   11  H2  UNL     1     -10.522  16.292  66.749  1.00  0.00     0.000 HD 
HETATM   12  N   UNL     1     -10.414  11.732  68.104  1.00  0.00    -0.194 NA 
HETATM   13  N   UNL     1     -11.776  12.091  70.004  1.00  0.00    -0.477 NA 
HETATM   14  H1  UNL     1     -11.643  11.089  70.136  1.00  0.00     0.000 HD 
HETATM   15  H2  UNL     1     -12.346  12.664  70.625  1.00  0.00     0.000 HD 
ENDROOT
BRANCH  12  16
HETATM   16  C   UNL     1     -10.141  10.369  68.405  1.00  0.00    -0.163 A  
HETATM   17  C   UNL     1     -10.658   9.288  67.669  1.00  0.00    -0.324 A  
HETATM   18  C   UNL     1     -10.497   7.946  68.056  1.00  0.00    -0.245 A  
HETATM   19  C   UNL     1      -9.789   7.638  69.206  1.00  0.00    -0.168 A  
HETATM   20  C   UNL     1      -9.199   8.659  69.932  1.00  0.00    -0.155 A  
HETATM   21 CL   UNL     1      -9.658   6.007  69.724  1.00  0.00    -0.171 Cl 
HETATM   22  C   UNL     1      -9.358   9.995  69.519  1.00  0.00    -0.247 A  
ENDBRANCH  12  16
TORSDOF 1
ENDMDL
MODEL       95
REMARK 921   NORMALIZED FREE ENERGY PREDICTED BY IDOCK:   -3.78 KCAL/MOL
REMARK 922        TOTAL FREE ENERGY PREDICTED BY IDOCK:   -4.24 KCAL/MOL
REMARK 923 INTER-LIGAND FREE ENERGY PREDICTED BY IDOCK:   -4.00 KCAL/MOL
REMARK 924 INTRA-LIGAND FREE ENERGY PREDICTED BY IDOCK:   -0.24 KCAL/MOL
REMARK 927      BINDING AFFINITY PREDICTED BY RF-SCORE:    0.00 PKD
ROOT
HETATM    1  C   UNL     1      -8.564  10.390  69.330  1.00  0.00    -0.159 C  
HETATM    2  C   UNL     1      -9.948   9.939  68.812  1.00  0.00    -0.173 C  
HETATM    3  N   UNL     1     -10.256  11.023  67.869  1.00  0.00    -0.178 NA 
HETATM    4  C   UNL     1     -11.044  10.072  69.885  1.00  0.00    -0.336 C  
HETATM    5  C   UNL     1     -10.300  10.766  66.618  1.00  0.00    -0.241 C  
HETATM    6  H   UNL     1     -10.433  11.968  68.208  1.00  0.00     0.000 HD 
HETATM    7  N   UNL     1     -10.433  11.798  65.754  1.00  0.00    -0.251 NA 
HETATM    8  N   UNL     1     -10.225   9.530  66.084  1.00  0.00    -0.247 NA 
HETATM    9  H1  UNL     1     -10.469  11.592  64.755  1.00  0.00     0.000 HD 
HETATM   10  C   UNL     1     -10.063   8.520  66.880  1.00  0.00    -0.294 C  
HETATM   11  H2  UNL     1     -10.497  12.757  66.093  1.00  0.00     0.000 HD 
HETATM   12  N   UNL     1      -9.927   8.557  68.253  1.00  0.00    -0.177 NA 
HETATM   13  N   UNL     1      -9.975   7.324  66.235  1.00  0.00    -0.450 NA 
HETATM   14  H1  UNL     1      -9.848   6.529  66.861  1.00  0.00     0.000 HD 
HETATM   15  H2  UNL     1     -10.031   7.231  65.221  1.00  0.00     0.000 HD 
ENDROOT
BRANCH  12  16
HETATM   16  C   UNL     1      -9.891   7.411  69.095  1.00  0.00    -0.168 A  
HETATM   17  C   UNL     1     -11.036   6.708  69.508  1.00  0.00    -0.378 A  
HETATM   18  C   UNL     1     -11.002   5.665  70.449  1.00  0.00    -0.278 A  
HETATM   19  C   UNL     1      -9.795   5.275  71.006  1.00  0.00    -0.191 A  
HETATM   20  C   UNL     1      -8.626   5.885  70.583  1.00  0.00    -0.133 A  
HETATM   21 CL   UNL     1      -9.759   4.055  72.212  1.00  0.00    -0.206 Cl 
HETATM   22  C   UNL     1      -8.680   6.918  69.628  1.00  0.00    -0.141 A  
ENDBRANCH  12  16
TORSDOF 1
ENDMDL
MODEL       96
REMARK 921   NORMALIZED FREE ENERGY PREDICTED BY IDOCK:   -3.77 KCAL/MOL
REMARK 922        TOTAL FREE ENERGY PREDICTED BY IDOCK:   -4.23 KCAL/MOL
REMARK 923 INTER-LIGAND FREE ENERGY PREDICTED BY IDOCK:   -4.00 KCAL/MOL
REMARK 924 INTRA-LIGAND FREE ENERGY PREDICTED BY IDOCK:   -0.24 KCAL/MOL
REMARK 927      BINDING AFFINITY PREDICTED BY RF-SCORE:    0.00 PKD
ROOT
HETATM    1  C   UNL     1     -10.361   9.827  67.580  1.00  0.00    -0.291 C  
HETATM    2  C   UNL     1      -9.828  11.005  68.427  1.00  0.00    -0.182 C  
HETATM    3  N   UNL     1      -9.020  10.285  69.421  1.00  0.00    -0.253 NA 
HETATM    4  C   UNL     1     -10.935  11.664  69.270  1.00  0.00    -0.246 C  
HETATM    5  C   UNL     1      -7.750  10.421  69.407  1.00  0.00    -0.158 C  
HETATM    6  H   UNL     1      -9.467   9.686  70.114  1.00  0.00     0.000 HD 
HETATM    7  N   UNL     1      -7.010   9.640  70.225  1.00  0.00    -0.103 NA 
HETATM    8  N   UNL     1      -7.079  11.297  68.631  1.00  0.00    -0.085 NA 
HETATM    9  H1  UNL     1      -5.996   9.749  70.214  1.00  0.00     0.000 HD 
HETATM   10  C   UNL     1      -7.753  12.040  67.809  1.00  0.00    -0.139 C  
HETATM   11  H2  UNL     1      -7.456   8.958  70.839  1.00  0.00     0.000 HD 
HETATM   12  N   UNL     1      -9.118  12.026  67.605  1.00  0.00    -0.173 NA 
HETATM   13  N   UNL     1      -6.976  12.868  67.057  1.00  0.00    -0.390 NA 
HETATM   14  H1  UNL     1      -7.506  13.452  66.411  1.00  0.00     0.000 HD 
HETATM   15  H2  UNL     1      -5.960  12.901  67.133  1.00  0.00     0.000 HD 
ENDROOT
BRANCH  12  16
HETATM   16  C   UNL     1      -9.825  12.956  66.793  1.00  0.00    -0.241 A  
HETATM   17  C   UNL     1     -10.213  12.698  65.466  1.00  0.00    -0.298 A  
HETATM   18  C   UNL     1     -10.787  13.670  64.629  1.00  0.00    -0.416 A  
HETATM   19  C   UNL     1     -11.007  14.951  65.106  1.00  0.00    -0.399 A  
HETATM   20  C   UNL     1     -10.709  15.242  66.427  1.00  0.00    -0.318 A  
HETATM   21 CL   UNL     1     -11.634  16.161  64.063  1.00  0.00    -0.051 Cl 
HETATM   22  C   UNL     1     -10.149  14.250  67.254  1.00  0.00    -0.252 A  
ENDBRANCH  12  16
TORSDOF 1
ENDMDL
MODEL       97
REMARK 921   NORMALIZED FREE ENERGY PREDICTED BY IDOCK:   -3.70 KCAL/MOL
REMARK 922        TOTAL FREE ENERGY PREDICTED BY IDOCK:   -4.15 KCAL/MOL
REMARK 923 INTER-LIGAND FREE ENERGY PREDICTED BY IDOCK:   -3.91 KCAL/MOL
REMARK 924 INTRA-LIGAND FREE ENERGY PREDICTED BY IDOCK:   -0.24 KCAL/MOL
REMARK 927      BINDING AFFINITY PREDICTED BY RF-SCORE:    0.00 PKD
ROOT
HETATM    1  C   UNL     1     -10.504   7.999  68.020  1.00  0.00    -0.243 C  
HETATM    2  C   UNL     1      -9.844   8.526  69.314  1.00  0.00    -0.185 C  
HETATM    3  N   UNL     1     -10.242   9.940  69.271  1.00  0.00    -0.195 NA 
HETATM    4  C   UNL     1      -8.309   8.580  69.206  1.00  0.00    -0.120 C  
HETATM    5  C   UNL     1     -11.061  10.383  70.145  1.00  0.00    -0.314 C  
HETATM    6  H   UNL     1      -9.869  10.559  68.552  1.00  0.00     0.000 HD 
HETATM    7  N   UNL     1     -11.534  11.641  70.003  1.00  0.00    -0.484 NA 
HETATM    8  N   UNL     1     -11.495   9.686  71.215  1.00  0.00    -0.369 NA 
HETATM    9  H1  UNL     1     -12.188  11.995  70.702  1.00  0.00     0.000 HD 
HETATM   10  C   UNL     1     -11.088   8.464  71.366  1.00  0.00    -0.255 C  
HETATM   11  H2  UNL     1     -11.245  12.222  69.217  1.00  0.00     0.000 HD 
HETATM   12  N   UNL     1     -10.257   7.755  70.522  1.00  0.00    -0.200 NA 
HETATM   13  N   UNL     1     -11.606   7.846  72.463  1.00  0.00    -0.403 NA 
HETATM   14  H1  UNL     1     -11.286   6.885  72.581  1.00  0.00     0.000 HD 
HETATM   15  H2  UNL     1     -12.254   8.301  73.106  1.00  0.00     0.000 HD 
ENDROOT
BRANCH  12  16
HETATM   16  C   UNL     1      -9.728   6.464  70.802  1.00  0.00    -0.180 A  
HETATM   17  C   UNL     1      -8.597   6.241  71.605  1.00  0.00    -0.133 A  
HETATM   18  C   UNL     1      -8.001   4.977  71.762  1.00  0.00    -0.110 A  
HETATM   19  C   UNL     1      -8.538   3.874  71.119  1.00  0.00    -0.076 A  
HETATM   20  C   UNL     1      -9.694   4.024  70.371  1.00  0.00    -0.263 A  
HETATM   21 CL   UNL     1      -7.769   2.346  71.246  1.00  0.00    -0.040 Cl 
HETATM   22  C   UNL     1     -10.285   5.295  70.239  1.00  0.00    -0.345 A  
ENDBRANCH  12  16
TORSDOF 1
ENDMDL
MODEL       98
REMARK 921   NORMALIZED FREE ENERGY PREDICTED BY IDOCK:   -3.69 KCAL/MOL
REMARK 922        TOTAL FREE ENERGY PREDICTED BY IDOCK:   -4.15 KCAL/MOL
REMARK 923 INTER-LIGAND FREE ENERGY PREDICTED BY IDOCK:   -3.99 KCAL/MOL
REMARK 924 INTRA-LIGAND FREE ENERGY PREDICTED BY IDOCK:   -0.16 KCAL/MOL
REMARK 927      BINDING AFFINITY PREDICTED BY RF-SCORE:    0.00 PKD
ROOT
HETATM    1  C   UNL     1      -8.069   7.235  66.956  1.00  0.00    -0.117 C  
HETATM    2  C   UNL     1      -9.428   6.502  66.899  1.00  0.00    -0.152 C  
HETATM    3  N   UNL     1      -9.454   6.079  65.492  1.00  0.00    -0.359 NA 
HETATM    4  C   UNL     1     -10.619   7.472  67.007  1.00  0.00    -0.409 C  
HETATM    5  C   UNL     1      -9.378   4.835  65.214  1.00  0.00    -0.143 C  
HETATM    6  H   UNL     1      -9.533   6.771  64.746  1.00  0.00     0.000 HD 
HETATM    7  N   UNL     1      -9.250   4.472  63.918  1.00  0.00    -0.258 NA 
HETATM    8  N   UNL     1      -9.417   3.840  66.124  1.00  0.00    -0.178 NA 
HETATM    9  H1  UNL     1      -9.190   3.477  63.697  1.00  0.00     0.000 HD 
HETATM   10  C   UNL     1      -9.506   4.152  67.380  1.00  0.00    -0.187 C  
HETATM   11  H2  UNL     1      -9.216   5.174  63.180  1.00  0.00     0.000 HD 
HETATM   12  N   UNL     1      -9.539   5.421  67.920  1.00  0.00    -0.124 NA 
HETATM   13  N   UNL     1      -9.512   3.074  68.212  1.00  0.00    -0.188 NA 
HETATM   14  H1  UNL     1      -9.582   3.319  69.199  1.00  0.00     0.000 HD 
HETATM   15  H2  UNL     1      -9.454   2.112  67.879  1.00  0.00     0.000 HD 
ENDROOT
BRANCH  12  16
HETATM   16  C   UNL     1      -9.775   5.712  69.293  1.00  0.00    -0.156 A  
HETATM   17  C   UNL     1     -11.049   5.976  69.827  1.00  0.00    -0.476 A  
HETATM   18  C   UNL     1     -11.255   6.398  71.152  1.00  0.00    -0.357 A  
HETATM   19  C   UNL     1     -10.175   6.556  72.004  1.00  0.00    -0.193 A  
HETATM   20  C   UNL     1      -8.904   6.242  71.551  1.00  0.00    -0.138 A  
HETATM   21 CL   UNL     1     -10.416   7.145  73.598  1.00  0.00    -0.417 Cl 
HETATM   22  C   UNL     1      -8.720   5.807  70.226  1.00  0.00    -0.137 A  
ENDBRANCH  12  16
TORSDOF 1
ENDMDL
MODEL       99
REMARK 921   NORMALIZED FREE ENERGY PREDICTED BY IDOCK:   -3.67 KCAL/MOL
REMARK 922        TOTAL FREE ENERGY PREDICTED BY IDOCK:   -4.12 KCAL/MOL
REMARK 923 INTER-LIGAND FREE ENERGY PREDICTED BY IDOCK:   -3.90 KCAL/MOL
REMARK 924 INTRA-LIGAND FREE ENERGY PREDICTED BY IDOCK:   -0.22 KCAL/MOL
REMARK 927      BINDING AFFINITY PREDICTED BY RF-SCORE:    0.00 PKD
ROOT
HETATM    1  C   UNL     1     -10.153   8.265  66.977  1.00  0.00    -0.353 C  
HETATM    2  C   UNL     1      -9.068   9.327  67.269  1.00  0.00    -0.126 C  
HETATM    3  N   UNL     1      -7.955   8.471  67.702  1.00  0.00    -0.106 NA 
HETATM    4  C   UNL     1      -9.391  10.161  68.522  1.00  0.00    -0.151 C  
HETATM    5  C   UNL     1      -6.914   8.386  66.967  1.00  0.00    -0.074 C  
HETATM    6  H   UNL     1      -8.012   7.952  68.578  1.00  0.00     0.000 HD 
HETATM    7  N   UNL     1      -5.964   7.482  67.299  1.00  0.00    -0.045 NA 
HETATM    8  N   UNL     1      -6.682   9.138  65.872  1.00  0.00    -0.078 NA 
HETATM    9  H1  UNL     1      -5.133   7.414  66.712  1.00  0.00     0.000 HD 
HETATM   10  C   UNL     1      -7.585   9.992  65.504  1.00  0.00    -0.136 C  
HETATM   11  H2  UNL     1      -6.077   6.883  68.116  1.00  0.00     0.000 HD 
HETATM   12  N   UNL     1      -8.809  10.216  66.100  1.00  0.00    -0.143 NA 
HETATM   13  N   UNL     1      -7.260  10.679  64.374  1.00  0.00    -0.352 NA 
HETATM   14  H1  UNL     1      -7.971  11.351  64.084  1.00  0.00     0.000 HD 
HETATM   15  H2  UNL     1      -6.389  10.535  63.865  1.00  0.00     0.000 HD 
ENDROOT
BRANCH  12  16
HETATM   16  C   UNL     1      -9.707  11.260  65.742  1.00  0.00    -0.227 A  
HETATM   17  C   UNL     1     -10.771  11.099  64.837  1.00  0.00    -0.318 A  
HETATM   18  C   UNL     1     -11.564  12.167  64.384  1.00  0.00    -0.422 A  
HETATM   19  C   UNL     1     -11.322  13.452  64.842  1.00  0.00    -0.328 A  
HETATM   20  C   UNL     1     -10.331  13.657  65.787  1.00  0.00    -0.304 A  
HETATM   21 CL   UNL     1     -12.237  14.769  64.231  1.00  0.00    -0.489 Cl 
HETATM   22  C   UNL     1      -9.558  12.572  66.240  1.00  0.00    -0.246 A  
ENDBRANCH  12  16
TORSDOF 1
ENDMDL
MODEL      100
REMARK 921   NORMALIZED FREE ENERGY PREDICTED BY IDOCK:   -3.66 KCAL/MOL
REMARK 922        TOTAL FREE ENERGY PREDICTED BY IDOCK:   -4.11 KCAL/MOL
REMARK 923 INTER-LIGAND FREE ENERGY PREDICTED BY IDOCK:   -3.90 KCAL/MOL
REMARK 924 INTRA-LIGAND FREE ENERGY PREDICTED BY IDOCK:   -0.21 KCAL/MOL
REMARK 927      BINDING AFFINITY PREDICTED BY RF-SCORE:    0.00 PKD
ROOT
HETATM    1  C   UNL     1      -8.811   3.266  69.121  1.00  0.00    -0.160 C  
HETATM    2  C   UNL     1      -8.510   4.269  67.984  1.00  0.00    -0.094 C  
HETATM    3  N   UNL     1      -7.897   3.379  66.987  1.00  0.00    -0.079 NA 
HETATM    4  C   UNL     1      -7.372   5.240  68.348  1.00  0.00    -0.071 C  
HETATM    5  C   UNL     1      -8.518   3.149  65.895  1.00  0.00    -0.109 C  
HETATM    6  H   UNL     1      -6.989   2.952  67.166  1.00  0.00     0.000 HD 
HETATM    7  N   UNL     1      -8.017   2.214  65.056  1.00  0.00    -0.077 NA 
HETATM    8  N   UNL     1      -9.647   3.774  65.505  1.00  0.00    -0.175 NA 
HETATM    9  H1  UNL     1      -8.512   2.030  64.183  1.00  0.00     0.000 HD 
HETATM   10  C   UNL     1     -10.175   4.653  66.298  1.00  0.00    -0.275 C  
HETATM   11  H2  UNL     1      -7.165   1.705  65.290  1.00  0.00     0.000 HD 
HETATM   12  N   UNL     1      -9.722   5.021  67.549  1.00  0.00    -0.149 NA 
HETATM   13  N   UNL     1     -11.324   5.203  65.818  1.00  0.00    -0.746 NA 
HETATM   14  H1  UNL     1     -11.739   5.895  66.443  1.00  0.00     0.000 HD 
HETATM   15  H2  UNL     1     -11.732   4.948  64.920  1.00  0.00     0.000 HD 
ENDROOT
BRANCH  12  16
HETATM   16  C   UNL     1     -10.256   6.089  68.323  1.00  0.00    -0.181 A  
HETATM   17  C   UNL     1     -10.069   7.447  68.013  1.00  0.00    -0.216 A  
HETATM   18  C   UNL     1     -10.482   8.493  68.857  1.00  0.00    -0.207 A  
HETATM   19  C   UNL     1     -11.118   8.208  70.053  1.00  0.00    -0.146 A  
HETATM   20  C   UNL     1     -11.391   6.888  70.375  1.00  0.00    -0.376 A  
HETATM   21 CL   UNL     1     -11.552   9.478  71.121  1.00  0.00    -0.406 Cl 
HETATM   22  C   UNL     1     -10.984   5.856  69.510  1.00  0.00    -0.438 A  
ENDBRANCH  12  16
TORSDOF 1
ENDMDL
MODEL      101
REMARK 921   NORMALIZED FREE ENERGY PREDICTED BY IDOCK:   -3.66 KCAL/MOL
REMARK 922        TOTAL FREE ENERGY PREDICTED BY IDOCK:   -4.11 KCAL/MOL
REMARK 923 INTER-LIGAND FREE ENERGY PREDICTED BY IDOCK:   -3.92 KCAL/MOL
REMARK 924 INTRA-LIGAND FREE ENERGY PREDICTED BY IDOCK:   -0.19 KCAL/MOL
REMARK 927      BINDING AFFINITY PREDICTED BY RF-SCORE:    0.00 PKD
ROOT
HETATM    1  C   UNL     1     -10.407   7.893  67.394  1.00  0.00    -0.349 C  
HETATM    2  C   UNL     1     -10.400   6.427  67.882  1.00  0.00    -0.190 C  
HETATM    3  N   UNL     1     -11.183   5.779  66.820  1.00  0.00    -0.541 NA 
HETATM    4  C   UNL     1     -11.265   6.227  69.140  1.00  0.00    -0.439 C  
HETATM    5  C   UNL     1     -10.602   4.957  66.033  1.00  0.00    -0.261 C  
HETATM    6  H   UNL     1     -12.176   5.983  66.713  1.00  0.00     0.000 HD 
HETATM    7  N   UNL     1     -11.294   4.486  64.971  1.00  0.00    -1.108 NA 
HETATM    8  N   UNL     1      -9.338   4.514  66.181  1.00  0.00    -0.143 NA 
HETATM    9  H1  UNL     1     -10.831   3.830  64.343  1.00  0.00     0.000 HD 
HETATM   10  C   UNL     1      -8.632   4.968  67.169  1.00  0.00    -0.104 C  
HETATM   11  H2  UNL     1     -12.256   4.781  64.802  1.00  0.00     0.000 HD 
HETATM   12  N   UNL     1      -9.022   5.904  68.106  1.00  0.00    -0.116 NA 
HETATM   13  N   UNL     1      -7.364   4.475  67.209  1.00  0.00    -0.073 NA 
HETATM   14  H1  UNL     1      -6.809   4.833  67.987  1.00  0.00     0.000 HD 
HETATM   15  H2  UNL     1      -7.002   3.810  66.527  1.00  0.00     0.000 HD 
ENDROOT
BRANCH  12  16
HETATM   16  C   UNL     1      -8.261   6.269  69.252  1.00  0.00    -0.114 A  
HETATM   17  C   UNL     1      -8.050   5.419  70.352  1.00  0.00    -0.101 A  
HETATM   18  C   UNL     1      -7.417   5.835  71.536  1.00  0.00    -0.093 A  
HETATM   19  C   UNL     1      -6.954   7.134  71.654  1.00  0.00    -0.067 A  
HETATM   20  C   UNL     1      -7.073   7.995  70.575  1.00  0.00    -0.045 A  
HETATM   21 CL   UNL     1      -6.252   7.667  73.126  1.00  0.00    -0.059 Cl 
HETATM   22  C   UNL     1      -7.696   7.555  69.392  1.00  0.00    -0.111 A  
ENDBRANCH  12  16
TORSDOF 1
ENDMDL
MODEL      102
REMARK 921   NORMALIZED FREE ENERGY PREDICTED BY IDOCK:   -3.60 KCAL/MOL
REMARK 922        TOTAL FREE ENERGY PREDICTED BY IDOCK:   -4.05 KCAL/MOL
REMARK 923 INTER-LIGAND FREE ENERGY PREDICTED BY IDOCK:   -3.96 KCAL/MOL
REMARK 924 INTRA-LIGAND FREE ENERGY PREDICTED BY IDOCK:   -0.10 KCAL/MOL
REMARK 927      BINDING AFFINITY PREDICTED BY RF-SCORE:    0.00 PKD
ROOT
HETATM    1  C   UNL     1     -12.002  11.658  69.209  1.00  0.00    -0.382 C  
HETATM    2  C   UNL     1     -11.341  12.597  68.174  1.00  0.00    -0.290 C  
HETATM    3  N   UNL     1     -12.091  13.839  68.411  1.00  0.00    -0.436 NA 
HETATM    4  C   UNL     1     -11.712  12.223  66.727  1.00  0.00    -0.411 C  
HETATM    5  C   UNL     1     -11.485  14.845  68.914  1.00  0.00    -0.299 C  
HETATM    6  H   UNL     1     -13.081  13.897  68.177  1.00  0.00     0.000 HD 
HETATM    7  N   UNL     1     -12.216  15.925  69.267  1.00  0.00    -0.468 NA 
HETATM    8  N   UNL     1     -10.154  14.916  69.122  1.00  0.00    -0.233 NA 
HETATM    9  H1  UNL     1     -11.732  16.729  69.668  1.00  0.00     0.000 HD 
HETATM   10  C   UNL     1      -9.424  13.885  68.827  1.00  0.00    -0.043 C  
HETATM   11  H2  UNL     1     -13.227  15.937  69.135  1.00  0.00     0.000 HD 
HETATM   12  N   UNL     1      -9.861  12.672  68.333  1.00  0.00    -0.222 NA 
HETATM   13  N   UNL     1      -8.101  14.056  69.100  1.00  0.00    -0.340 NA 
HETATM   14  H1  UNL     1      -7.528  13.245  68.868  1.00  0.00     0.000 HD 
HETATM   15  H2  UNL     1      -7.720  14.912  69.499  1.00  0.00     0.000 HD 
ENDROOT
BRANCH  12  16
HETATM   16  C   UNL     1      -9.007  11.622  67.895  1.00  0.00    -0.170 A  
HETATM   17  C   UNL     1      -8.968  10.348  68.489  1.00  0.00    -0.139 A  
HETATM   18  C   UNL     1      -8.026   9.365  68.140  1.00  0.00    -0.091 A  
HETATM   19  C   UNL     1      -7.086   9.625  67.158  1.00  0.00    -0.086 A  
HETATM   20  C   UNL     1      -7.123  10.838  66.490  1.00  0.00    -0.138 A  
HETATM   21 CL   UNL     1      -5.886   8.456  66.785  1.00  0.00    -0.047 Cl 
HETATM   22  C   UNL     1      -8.083  11.804  66.844  1.00  0.00    -0.160 A  
ENDBRANCH  12  16
TORSDOF 1
ENDMDL
MODEL      103
REMARK 921   NORMALIZED FREE ENERGY PREDICTED BY IDOCK:   -3.58 KCAL/MOL
REMARK 922        TOTAL FREE ENERGY PREDICTED BY IDOCK:   -4.03 KCAL/MOL
REMARK 923 INTER-LIGAND FREE ENERGY PREDICTED BY IDOCK:   -3.81 KCAL/MOL
REMARK 924 INTRA-LIGAND FREE ENERGY PREDICTED BY IDOCK:   -0.22 KCAL/MOL
REMARK 927      BINDING AFFINITY PREDICTED BY RF-SCORE:    0.00 PKD
ROOT
HETATM    1  C   UNL     1     -12.967   7.067  70.800  1.00  0.00     0.001 C  
HETATM    2  C   UNL     1     -11.491   7.378  70.463  1.00  0.00    -0.255 C  
HETATM    3  N   UNL     1     -11.612   8.741  69.928  1.00  0.00    -0.433 NA 
HETATM    4  C   UNL     1     -10.983   6.562  69.260  1.00  0.00    -0.389 C  
HETATM    5  C   UNL     1     -11.108   9.714  70.585  1.00  0.00    -0.319 C  
HETATM    6  H   UNL     1     -12.091   8.908  69.043  1.00  0.00     0.000 HD 
HETATM    7  N   UNL     1     -11.357  10.973  70.161  1.00  0.00    -0.426 NA 
HETATM    8  N   UNL     1     -10.336   9.583  71.682  1.00  0.00    -0.101 NA 
HETATM    9  H1  UNL     1     -10.955  11.750  70.685  1.00  0.00     0.000 HD 
HETATM   10  C   UNL     1     -10.103   8.392  72.138  1.00  0.00    -0.306 C  
HETATM   11  H2  UNL     1     -11.933  11.143  69.336  1.00  0.00     0.000 HD 
HETATM   12  N   UNL     1     -10.588   7.201  71.636  1.00  0.00    -0.207 NA 
HETATM   13  N   UNL     1      -9.334   8.376  73.262  1.00  0.00    -0.165 NA 
HETATM   14  H1  UNL     1      -9.151   7.439  73.620  1.00  0.00     0.000 HD 
HETATM   15  H2  UNL     1      -8.975   9.222  73.704  1.00  0.00     0.000 HD 
ENDROOT
BRANCH  12  16
HETATM   16  C   UNL     1     -10.192   5.910  72.087  1.00  0.00    -0.195 A  
HETATM   17  C   UNL     1      -8.944   5.331  71.800  1.00  0.00    -0.147 A  
HETATM   18  C   UNL     1      -8.616   4.005  72.131  1.00  0.00    -0.114 A  
HETATM   19  C   UNL     1      -9.540   3.206  72.784  1.00  0.00    -0.112 A  
HETATM   20  C   UNL     1     -10.761   3.747  73.153  1.00  0.00    -0.267 A  
HETATM   21 CL   UNL     1      -9.172   1.564  73.119  1.00  0.00    -0.068 Cl 
HETATM   22  C   UNL     1     -11.064   5.082  72.826  1.00  0.00    -0.310 A  
ENDBRANCH  12  16
TORSDOF 1
ENDMDL
MODEL      104
REMARK 921   NORMALIZED FREE ENERGY PREDICTED BY IDOCK:   -3.58 KCAL/MOL
REMARK 922        TOTAL FREE ENERGY PREDICTED BY IDOCK:   -4.03 KCAL/MOL
REMARK 923 INTER-LIGAND FREE ENERGY PREDICTED BY IDOCK:   -4.08 KCAL/MOL
REMARK 924 INTRA-LIGAND FREE ENERGY PREDICTED BY IDOCK:    0.05 KCAL/MOL
REMARK 927      BINDING AFFINITY PREDICTED BY RF-SCORE:    0.00 PKD
ROOT
HETATM    1  C   UNL     1     -10.395  16.948  69.276  1.00  0.00    -0.298 C  
HETATM    2  C   UNL     1     -10.242  16.560  67.788  1.00  0.00    -0.278 C  
HETATM    3  N   UNL     1     -10.837  17.735  67.135  1.00  0.00    -0.202 NA 
HETATM    4  C   UNL     1     -11.183  15.409  67.385  1.00  0.00    -0.287 C  
HETATM    5  C   UNL     1     -10.088  18.514  66.455  1.00  0.00    -0.405 C  
HETATM    6  H   UNL     1     -11.835  17.925  67.223  1.00  0.00     0.000 HD 
HETATM    7  N   UNL     1     -10.616  19.668  65.988  1.00  0.00    -0.503 NA 
HETATM    8  N   UNL     1      -8.794  18.273  66.159  1.00  0.00    -0.494 NA 
HETATM    9  H1  UNL     1     -10.017  20.290  65.444  1.00  0.00     0.000 HD 
HETATM   10  C   UNL     1      -8.244  17.192  66.618  1.00  0.00    -0.256 C  
HETATM   11  H2  UNL     1     -11.588  19.910  66.175  1.00  0.00     0.000 HD 
HETATM   12  N   UNL     1      -8.833  16.238  67.422  1.00  0.00    -0.185 NA 
HETATM   13  N   UNL     1      -6.931  17.061  66.282  1.00  0.00    -0.228 NA 
HETATM   14  H1  UNL     1      -6.499  16.211  66.643  1.00  0.00     0.000 HD 
HETATM   15  H2  UNL     1      -6.428  17.748  65.722  1.00  0.00     0.000 HD 
ENDROOT
BRANCH  12  16
HETATM   16  C   UNL     1      -8.231  15.001  67.786  1.00  0.00    -0.153 A  
HETATM   17  C   UNL     1      -8.576  13.765  67.210  1.00  0.00    -0.221 A  
HETATM   18  C   UNL     1      -8.077  12.535  67.672  1.00  0.00    -0.171 A  
HETATM   19  C   UNL     1      -7.190  12.503  68.735  1.00  0.00    -0.089 A  
HETATM   20  C   UNL     1      -6.762  13.695  69.295  1.00  0.00    -0.094 A  
HETATM   21 CL   UNL     1      -6.640  10.999  69.351  1.00  0.00    -0.090 Cl 
HETATM   22  C   UNL     1      -7.261  14.918  68.808  1.00  0.00    -0.123 A  
ENDBRANCH  12  16
TORSDOF 1
ENDMDL
MODEL      105
REMARK 921   NORMALIZED FREE ENERGY PREDICTED BY IDOCK:   -3.58 KCAL/MOL
REMARK 922        TOTAL FREE ENERGY PREDICTED BY IDOCK:   -4.03 KCAL/MOL
REMARK 923 INTER-LIGAND FREE ENERGY PREDICTED BY IDOCK:   -3.80 KCAL/MOL
REMARK 924 INTRA-LIGAND FREE ENERGY PREDICTED BY IDOCK:   -0.23 KCAL/MOL
REMARK 927      BINDING AFFINITY PREDICTED BY RF-SCORE:    0.00 PKD
ROOT
HETATM    1  C   UNL     1      -9.476   2.583  68.585  1.00  0.00    -0.196 C  
HETATM    2  C   UNL     1      -8.996   3.880  67.896  1.00  0.00    -0.125 C  
HETATM    3  N   UNL     1      -9.044   3.476  66.484  1.00  0.00    -0.152 NA 
HETATM    4  C   UNL     1      -7.501   4.152  68.143  1.00  0.00    -0.067 C  
HETATM    5  C   UNL     1      -9.903   4.019  65.711  1.00  0.00    -0.176 C  
HETATM    6  H   UNL     1      -8.399   2.772  66.126  1.00  0.00     0.000 HD 
HETATM    7  N   UNL     1     -10.038   3.532  64.457  1.00  0.00    -0.288 NA 
HETATM    8  N   UNL     1     -10.696   5.056  66.050  1.00  0.00    -0.265 NA 
HETATM    9  H1  UNL     1     -10.724   3.966  63.839  1.00  0.00     0.000 HD 
HETATM   10  C   UNL     1     -10.619   5.528  67.255  1.00  0.00    -0.219 C  
HETATM   11  H2  UNL     1      -9.468   2.750  64.136  1.00  0.00     0.000 HD 
HETATM   12  N   UNL     1      -9.815   5.066  68.277  1.00  0.00    -0.155 NA 
HETATM   13  N   UNL     1     -11.480   6.554  67.497  1.00  0.00    -0.714 NA 
HETATM   14  H1  UNL     1     -11.419   6.925  68.445  1.00  0.00     0.000 HD 
HETATM   15  H2  UNL     1     -12.125   6.918  66.797  1.00  0.00     0.000 HD 
ENDROOT
BRANCH  12  16
HETATM   16  C   UNL     1      -9.664   5.704  69.540  1.00  0.00    -0.154 A  
HETATM   17  C   UNL     1     -10.258   5.239  70.726  1.00  0.00    -0.317 A  
HETATM   18  C   UNL     1     -10.218   5.950  71.938  1.00  0.00    -0.246 A  
HETATM   19  C   UNL     1      -9.558   7.166  72.005  1.00  0.00    -0.143 A  
HETATM   20  C   UNL     1      -8.896   7.639  70.885  1.00  0.00    -0.146 A  
HETATM   21 CL   UNL     1      -9.575   8.074  73.461  1.00  0.00    -0.293 Cl 
HETATM   22  C   UNL     1      -8.934   6.904  69.685  1.00  0.00    -0.144 A  
ENDBRANCH  12  16
TORSDOF 1
ENDMDL
MODEL      106
REMARK 921   NORMALIZED FREE ENERGY PREDICTED BY IDOCK:   -3.53 KCAL/MOL
REMARK 922        TOTAL FREE ENERGY PREDICTED BY IDOCK:   -3.98 KCAL/MOL
REMARK 923 INTER-LIGAND FREE ENERGY PREDICTED BY IDOCK:   -3.74 KCAL/MOL
REMARK 924 INTRA-LIGAND FREE ENERGY PREDICTED BY IDOCK:   -0.24 KCAL/MOL
REMARK 927      BINDING AFFINITY PREDICTED BY RF-SCORE:    0.00 PKD
ROOT
HETATM    1  C   UNL     1      -9.809  10.494  63.985  1.00  0.00    -0.387 C  
HETATM    2  C   UNL     1      -9.261  10.136  65.385  1.00  0.00    -0.202 C  
HETATM    3  N   UNL     1      -8.302   9.076  65.043  1.00  0.00    -0.156 NA 
HETATM    4  C   UNL     1     -10.306   9.411  66.252  1.00  0.00    -0.211 C  
HETATM    5  C   UNL     1      -7.053   9.293  65.198  1.00  0.00    -0.090 C  
HETATM    6  H   UNL     1      -8.630   8.179  64.686  1.00  0.00     0.000 HD 
HETATM    7  N   UNL     1      -6.178   8.371  64.739  1.00  0.00    -0.063 NA 
HETATM    8  N   UNL     1      -6.531  10.384  65.794  1.00  0.00    -0.115 NA 
HETATM    9  H1  UNL     1      -5.180   8.544  64.864  1.00  0.00     0.000 HD 
HETATM   10  C   UNL     1      -7.338  11.306  66.218  1.00  0.00     0.000 C  
HETATM   11  H2  UNL     1      -6.507   7.522  64.279  1.00  0.00     0.000 HD 
HETATM   12  N   UNL     1      -8.714  11.321  66.105  1.00  0.00    -0.187 NA 
HETATM   13  N   UNL     1      -6.705  12.373  66.779  1.00  0.00    -0.421 NA 
HETATM   14  H1  UNL     1      -7.340  13.098  67.112  1.00  0.00     0.000 HD 
HETATM   15  H2  UNL     1      -5.691  12.441  66.860  1.00  0.00     0.000 HD 
ENDROOT
BRANCH  12  16
HETATM   16  C   UNL     1      -9.566  12.289  66.708  1.00  0.00    -0.218 A  
HETATM   17  C   UNL     1     -10.153  13.357  66.007  1.00  0.00    -0.308 A  
HETATM   18  C   UNL     1     -10.877  14.384  66.636  1.00  0.00    -0.304 A  
HETATM   19  C   UNL     1     -11.053  14.367  68.009  1.00  0.00    -0.272 A  
HETATM   20  C   UNL     1     -10.556  13.301  68.741  1.00  0.00    -0.224 A  
HETATM   21 CL   UNL     1     -11.869  15.659  68.788  1.00  0.00    -0.374 Cl 
HETATM   22  C   UNL     1      -9.846  12.274  68.091  1.00  0.00    -0.212 A  
ENDBRANCH  12  16
TORSDOF 1
ENDMDL
MODEL      107
REMARK 921   NORMALIZED FREE ENERGY PREDICTED BY IDOCK:   -3.51 KCAL/MOL
REMARK 922        TOTAL FREE ENERGY PREDICTED BY IDOCK:   -3.95 KCAL/MOL
REMARK 923 INTER-LIGAND FREE ENERGY PREDICTED BY IDOCK:   -3.74 KCAL/MOL
REMARK 924 INTRA-LIGAND FREE ENERGY PREDICTED BY IDOCK:   -0.21 KCAL/MOL
REMARK 927      BINDING AFFINITY PREDICTED BY RF-SCORE:    0.00 PKD
ROOT
HETATM    1  C   UNL     1     -11.308  10.364  70.180  1.00  0.00    -0.397 C  
HETATM    2  C   UNL     1     -10.121   9.958  69.277  1.00  0.00    -0.203 C  
HETATM    3  N   UNL     1     -10.407   8.531  69.072  1.00  0.00    -0.215 NA 
HETATM    4  C   UNL     1      -8.783   9.952  70.040  1.00  0.00    -0.188 C  
HETATM    5  C   UNL     1     -10.738   8.124  67.907  1.00  0.00    -0.070 C  
HETATM    6  H   UNL     1     -10.341   7.874  69.849  1.00  0.00     0.000 HD 
HETATM    7  N   UNL     1     -11.144   6.843  67.765  1.00  0.00    -0.541 NA 
HETATM    8  N   UNL     1     -10.712   8.882  66.792  1.00  0.00    -0.136 NA 
HETATM    9  H1  UNL     1     -11.408   6.518  66.834  1.00  0.00     0.000 HD 
HETATM   10  C   UNL     1     -10.359  10.125  66.895  1.00  0.00    -0.236 C  
HETATM   11  H2  UNL     1     -11.186   6.216  68.568  1.00  0.00     0.000 HD 
HETATM   12  N   UNL     1     -10.021  10.800  68.051  1.00  0.00    -0.161 NA 
HETATM   13  N   UNL     1     -10.392  10.803  65.714  1.00  0.00    -0.248 NA 
HETATM   14  H1  UNL     1     -10.115  11.781  65.796  1.00  0.00     0.000 HD 
HETATM   15  H2  UNL     1     -10.668  10.374  64.832  1.00  0.00     0.000 HD 
ENDROOT
BRANCH  12  16
HETATM   16  C   UNL     1      -9.508  12.127  68.094  1.00  0.00    -0.205 A  
HETATM   17  C   UNL     1      -8.142  12.439  67.991  1.00  0.00    -0.162 A  
HETATM   18  C   UNL     1      -7.633  13.737  68.174  1.00  0.00    -0.128 A  
HETATM   19  C   UNL     1      -8.493  14.784  68.458  1.00  0.00    -0.159 A  
HETATM   20  C   UNL     1      -9.857  14.545  68.503  1.00  0.00    -0.231 A  
HETATM   21 CL   UNL     1      -7.868  16.353  68.759  1.00  0.00    -0.208 Cl 
HETATM   22  C   UNL     1     -10.348  13.242  68.301  1.00  0.00    -0.252 A  
ENDBRANCH  12  16
TORSDOF 1
ENDMDL
MODEL      108
REMARK 921   NORMALIZED FREE ENERGY PREDICTED BY IDOCK:   -3.51 KCAL/MOL
REMARK 922        TOTAL FREE ENERGY PREDICTED BY IDOCK:   -3.95 KCAL/MOL
REMARK 923 INTER-LIGAND FREE ENERGY PREDICTED BY IDOCK:   -3.73 KCAL/MOL
REMARK 924 INTRA-LIGAND FREE ENERGY PREDICTED BY IDOCK:   -0.22 KCAL/MOL
REMARK 927      BINDING AFFINITY PREDICTED BY RF-SCORE:    0.00 PKD
ROOT
HETATM    1  C   UNL     1      -9.101   5.350  67.234  1.00  0.00    -0.111 C  
HETATM    2  C   UNL     1      -8.559   6.778  67.466  1.00  0.00    -0.120 C  
HETATM    3  N   UNL     1      -8.106   7.124  66.111  1.00  0.00    -0.115 NA 
HETATM    4  C   UNL     1      -7.260   6.782  68.292  1.00  0.00    -0.088 C  
HETATM    5  C   UNL     1      -8.720   8.038  65.464  1.00  0.00    -0.102 C  
HETATM    6  H   UNL     1      -7.312   6.640  65.693  1.00  0.00     0.000 HD 
HETATM    7  N   UNL     1      -8.392   8.241  64.169  1.00  0.00    -0.352 NA 
HETATM    8  N   UNL     1      -9.681   8.831  65.980  1.00  0.00    -0.242 NA 
HETATM    9  H1  UNL     1      -8.882   8.972  63.652  1.00  0.00     0.000 HD 
HETATM   10  C   UNL     1     -10.046   8.645  67.210  1.00  0.00    -0.244 C  
HETATM   11  H2  UNL     1      -7.672   7.676  63.718  1.00  0.00     0.000 HD 
HETATM   12  N   UNL     1      -9.573   7.682  68.079  1.00  0.00    -0.143 NA 
HETATM   13  N   UNL     1     -11.039   9.481  67.619  1.00  0.00    -0.462 NA 
HETATM   14  H1  UNL     1     -11.326   9.334  68.587  1.00  0.00     0.000 HD 
HETATM   15  H2  UNL     1     -11.457  10.188  67.016  1.00  0.00     0.000 HD 
ENDROOT
BRANCH  12  16
HETATM   16  C   UNL     1      -9.905   7.606  69.461  1.00  0.00    -0.178 A  
HETATM   17  C   UNL     1      -9.226   8.315  70.467  1.00  0.00    -0.160 A  
HETATM   18  C   UNL     1      -9.469   8.126  71.839  1.00  0.00    -0.260 A  
HETATM   19  C   UNL     1     -10.426   7.216  72.254  1.00  0.00    -0.209 A  
HETATM   20  C   UNL     1     -11.174   6.540  71.303  1.00  0.00    -0.338 A  
HETATM   21 CL   UNL     1     -10.671   6.927  73.927  1.00  0.00    -0.265 Cl 
HETATM   22  C   UNL     1     -10.927   6.754  69.934  1.00  0.00    -0.340 A  
ENDBRANCH  12  16
TORSDOF 1
ENDMDL
MODEL      109
REMARK 921   NORMALIZED FREE ENERGY PREDICTED BY IDOCK:   -3.47 KCAL/MOL
REMARK 922        TOTAL FREE ENERGY PREDICTED BY IDOCK:   -3.91 KCAL/MOL
REMARK 923 INTER-LIGAND FREE ENERGY PREDICTED BY IDOCK:   -3.72 KCAL/MOL
REMARK 924 INTRA-LIGAND FREE ENERGY PREDICTED BY IDOCK:   -0.20 KCAL/MOL
REMARK 927      BINDING AFFINITY PREDICTED BY RF-SCORE:    0.00 PKD
ROOT
HETATM    1  C   UNL     1     -10.893   7.710  69.849  1.00  0.00    -0.241 C  
HETATM    2  C   UNL     1      -9.625   8.221  69.127  1.00  0.00    -0.160 C  
HETATM    3  N   UNL     1      -8.964   6.950  68.799  1.00  0.00    -0.131 NA 
HETATM    4  C   UNL     1      -8.638   8.901  70.093  1.00  0.00    -0.161 C  
HETATM    5  C   UNL     1      -8.868   6.596  67.575  1.00  0.00    -0.116 C  
HETATM    6  H   UNL     1      -8.587   6.358  69.538  1.00  0.00     0.000 HD 
HETATM    7  N   UNL     1      -8.396   5.360  67.298  1.00  0.00    -0.108 NA 
HETATM    8  N   UNL     1      -9.203   7.371  66.523  1.00  0.00    -0.161 NA 
HETATM    9  H1  UNL     1      -8.320   5.078  66.320  1.00  0.00     0.000 HD 
HETATM   10  C   UNL     1      -9.690   8.550  66.751  1.00  0.00    -0.236 C  
HETATM   11  H2  UNL     1      -8.124   4.725  68.047  1.00  0.00     0.000 HD 
HETATM   12  N   UNL     1      -9.943   9.121  67.982  1.00  0.00    -0.169 NA 
HETATM   13  N   UNL     1     -10.017   9.235  65.620  1.00  0.00    -0.427 NA 
HETATM   14  H1  UNL     1     -10.401  10.163  65.800  1.00  0.00     0.000 HD 
HETATM   15  H2  UNL     1      -9.891   8.857  64.682  1.00  0.00     0.000 HD 
ENDROOT
BRANCH  12  16
HETATM   16  C   UNL     1     -10.349  10.470  68.182  1.00  0.00    -0.172 A  
HETATM   17  C   UNL     1      -9.508  11.577  67.975  1.00  0.00    -0.181 A  
HETATM   18  C   UNL     1      -9.872  12.893  68.307  1.00  0.00    -0.228 A  
HETATM   19  C   UNL     1     -11.118  13.149  68.854  1.00  0.00    -0.266 A  
HETATM   20  C   UNL     1     -12.013  12.105  69.015  1.00  0.00    -0.302 A  
HETATM   21 CL   UNL     1     -11.536  14.743  69.334  1.00  0.00    -0.317 Cl 
HETATM   22  C   UNL     1     -11.635  10.796  68.662  1.00  0.00    -0.342 A  
ENDBRANCH  12  16
TORSDOF 1
ENDMDL
MODEL      110
REMARK 921   NORMALIZED FREE ENERGY PREDICTED BY IDOCK:   -3.45 KCAL/MOL
REMARK 922        TOTAL FREE ENERGY PREDICTED BY IDOCK:   -3.89 KCAL/MOL
REMARK 923 INTER-LIGAND FREE ENERGY PREDICTED BY IDOCK:   -3.71 KCAL/MOL
REMARK 924 INTRA-LIGAND FREE ENERGY PREDICTED BY IDOCK:   -0.17 KCAL/MOL
REMARK 927      BINDING AFFINITY PREDICTED BY RF-SCORE:    0.00 PKD
ROOT
HETATM    1  C   UNL     1      -8.384   7.575  67.093  1.00  0.00    -0.121 C  
HETATM    2  C   UNL     1      -9.753   7.195  67.701  1.00  0.00    -0.143 C  
HETATM    3  N   UNL     1     -10.410   6.583  66.537  1.00  0.00    -0.437 NA 
HETATM    4  C   UNL     1     -10.623   8.430  67.997  1.00  0.00    -0.191 C  
HETATM    5  C   UNL     1     -10.658   5.330  66.550  1.00  0.00    -0.285 C  
HETATM    6  H   UNL     1     -10.665   7.151  65.730  1.00  0.00     0.000 HD 
HETATM    7  N   UNL     1     -11.122   4.754  65.418  1.00  0.00    -0.926 NA 
HETATM    8  N   UNL     1     -10.494   4.525  67.619  1.00  0.00     0.168 NA 
HETATM    9  H1  UNL     1     -11.321   3.753  65.429  1.00  0.00     0.000 HD 
HETATM   10  C   UNL     1     -10.019   5.035  68.713  1.00  0.00    -0.155 C  
HETATM   11  H2  UNL     1     -11.270   5.307  64.574  1.00  0.00     0.000 HD 
HETATM   12  N   UNL     1      -9.623   6.341  68.916  1.00  0.00    -0.126 NA 
HETATM   13  N   UNL     1      -9.870   4.130  69.719  1.00  0.00    -0.206 NA 
HETATM   14  H1  UNL     1      -9.497   4.532  70.579  1.00  0.00     0.000 HD 
HETATM   15  H2  UNL     1     -10.110   3.144  69.623  1.00  0.00     0.000 HD 
ENDROOT
BRANCH  12  16
HETATM   16  C   UNL     1      -9.238   6.885  70.173  1.00  0.00    -0.155 A  
HETATM   17  C   UNL     1      -7.919   6.875  70.658  1.00  0.00    -0.109 A  
HETATM   18  C   UNL     1      -7.573   7.288  71.957  1.00  0.00    -0.088 A  
HETATM   19  C   UNL     1      -8.552   7.745  72.822  1.00  0.00    -0.153 A  
HETATM   20  C   UNL     1      -9.859   7.843  72.373  1.00  0.00    -0.287 A  
HETATM   21 CL   UNL     1      -8.145   8.176  74.432  1.00  0.00    -0.306 Cl 
HETATM   22  C   UNL     1     -10.183   7.439  71.064  1.00  0.00    -0.194 A  
ENDBRANCH  12  16
TORSDOF 1
ENDMDL
MODEL      111
REMARK 921   NORMALIZED FREE ENERGY PREDICTED BY IDOCK:   -3.42 KCAL/MOL
REMARK 922        TOTAL FREE ENERGY PREDICTED BY IDOCK:   -3.86 KCAL/MOL
REMARK 923 INTER-LIGAND FREE ENERGY PREDICTED BY IDOCK:   -3.62 KCAL/MOL
REMARK 924 INTRA-LIGAND FREE ENERGY PREDICTED BY IDOCK:   -0.23 KCAL/MOL
REMARK 927      BINDING AFFINITY PREDICTED BY RF-SCORE:    0.00 PKD
ROOT
HETATM    1  C   UNL     1     -10.179  10.756  69.570  1.00  0.00    -0.146 C  
HETATM    2  C   UNL     1     -10.825  11.806  68.638  1.00  0.00    -0.220 C  
HETATM    3  N   UNL     1     -11.304  12.789  69.620  1.00  0.00    -0.478 NA 
HETATM    4  C   UNL     1     -12.120  11.288  67.985  1.00  0.00     0.053 C  
HETATM    5  C   UNL     1     -10.760  13.944  69.659  1.00  0.00     0.166 C  
HETATM    6  H   UNL     1     -12.060  12.552  70.261  1.00  0.00     0.000 HD 
HETATM    7  N   UNL     1     -11.104  14.783  70.662  1.00  0.00    -0.497 NA 
HETATM    8  N   UNL     1      -9.859  14.401  68.766  1.00  0.00    -0.232 NA 
HETATM    9  H1  UNL     1     -10.669  15.705  70.693  1.00  0.00     0.000 HD 
HETATM   10  C   UNL     1      -9.480  13.612  67.809  1.00  0.00    -0.221 C  
HETATM   11  H2  UNL     1     -11.780  14.500  71.371  1.00  0.00     0.000 HD 
HETATM   12  N   UNL     1      -9.880  12.308  67.600  1.00  0.00    -0.193 NA 
HETATM   13  N   UNL     1      -8.551  14.164  66.980  1.00  0.00    -0.318 NA 
HETATM   14  H1  UNL     1      -8.253  13.544  66.228  1.00  0.00     0.000 HD 
HETATM   15  H2  UNL     1      -8.187  15.109  67.101  1.00  0.00     0.000 HD 
ENDROOT
BRANCH  12  16
HETATM   16  C   UNL     1      -9.542  11.530  66.457  1.00  0.00    -0.205 A  
HETATM   17  C   UNL     1      -8.486  10.602  66.428  1.00  0.00    -0.152 A  
HETATM   18  C   UNL     1      -8.073   9.942  65.258  1.00  0.00    -0.139 A  
HETATM   19  C   UNL     1      -8.725  10.184  64.061  1.00  0.00    -0.212 A  
HETATM   20  C   UNL     1      -9.817  11.036  64.045  1.00  0.00    -0.365 A  
HETATM   21 CL   UNL     1      -8.174   9.440  62.616  1.00  0.00    -0.148 Cl 
HETATM   22  C   UNL     1     -10.225  11.675  65.230  1.00  0.00    -0.316 A  
ENDBRANCH  12  16
TORSDOF 1
ENDMDL
MODEL      112
REMARK 921   NORMALIZED FREE ENERGY PREDICTED BY IDOCK:   -3.40 KCAL/MOL
REMARK 922        TOTAL FREE ENERGY PREDICTED BY IDOCK:   -3.84 KCAL/MOL
REMARK 923 INTER-LIGAND FREE ENERGY PREDICTED BY IDOCK:   -3.60 KCAL/MOL
REMARK 924 INTRA-LIGAND FREE ENERGY PREDICTED BY IDOCK:   -0.24 KCAL/MOL
REMARK 927      BINDING AFFINITY PREDICTED BY RF-SCORE:    0.00 PKD
ROOT
HETATM    1  C   UNL     1     -10.815   9.613  67.044  1.00  0.00    -0.148 C  
HETATM    2  C   UNL     1      -9.949   8.334  67.015  1.00  0.00    -0.255 C  
HETATM    3  N   UNL     1      -9.471   8.357  65.625  1.00  0.00    -0.438 NA 
HETATM    4  C   UNL     1     -10.800   7.052  67.082  1.00  0.00    -0.427 C  
HETATM    5  C   UNL     1      -8.230   8.558  65.398  1.00  0.00    -0.145 C  
HETATM    6  H   UNL     1     -10.121   8.214  64.853  1.00  0.00     0.000 HD 
HETATM    7  N   UNL     1      -7.830   8.728  64.118  1.00  0.00    -0.131 NA 
HETATM    8  N   UNL     1      -7.273   8.613  66.347  1.00  0.00    -0.079 NA 
HETATM    9  H1  UNL     1      -6.839   8.888  63.936  1.00  0.00     0.000 HD 
HETATM   10  C   UNL     1      -7.624   8.487  67.589  1.00  0.00    -0.098 C  
HETATM   11  H2  UNL     1      -8.503   8.697  63.352  1.00  0.00     0.000 HD 
HETATM   12  N   UNL     1      -8.904   8.325  68.078  1.00  0.00    -0.135 NA 
HETATM   13  N   UNL     1      -6.584   8.583  68.463  1.00  0.00    -0.058 NA 
HETATM   14  H1  UNL     1      -6.861   8.484  69.440  1.00  0.00     0.000 HD 
HETATM   15  H2  UNL     1      -5.621   8.739  68.169  1.00  0.00     0.000 HD 
ENDROOT
BRANCH  12  16
HETATM   16  C   UNL     1      -9.224   8.054  69.438  1.00  0.00    -0.152 A  
HETATM   17  C   UNL     1      -9.194   6.768  70.005  1.00  0.00    -0.158 A  
HETATM   18  C   UNL     1      -9.644   6.491  71.308  1.00  0.00    -0.175 A  
HETATM   19  C   UNL     1     -10.134   7.513  72.103  1.00  0.00    -0.194 A  
HETATM   20  C   UNL     1     -10.122   8.811  71.620  1.00  0.00    -0.390 A  
HETATM   21 CL   UNL     1     -10.756   7.165  73.664  1.00  0.00    -0.385 Cl 
HETATM   22  C   UNL     1      -9.652   9.071  70.318  1.00  0.00    -0.230 A  
ENDBRANCH  12  16
TORSDOF 1
ENDMDL
MODEL      113
REMARK 921   NORMALIZED FREE ENERGY PREDICTED BY IDOCK:   -3.39 KCAL/MOL
REMARK 922        TOTAL FREE ENERGY PREDICTED BY IDOCK:   -3.82 KCAL/MOL
REMARK 923 INTER-LIGAND FREE ENERGY PREDICTED BY IDOCK:   -3.65 KCAL/MOL
REMARK 924 INTRA-LIGAND FREE ENERGY PREDICTED BY IDOCK:   -0.17 KCAL/MOL
REMARK 927      BINDING AFFINITY PREDICTED BY RF-SCORE:    0.00 PKD
ROOT
HETATM    1  C   UNL     1     -11.864  10.572  68.683  1.00  0.00    -0.047 C  
HETATM    2  C   UNL     1     -10.949  11.154  67.582  1.00  0.00    -0.269 C  
HETATM    3  N   UNL     1     -11.883  12.059  66.898  1.00  0.00    -0.616 NA 
HETATM    4  C   UNL     1     -10.600  10.114  66.503  1.00  0.00    -0.179 C  
HETATM    5  C   UNL     1     -11.695  13.321  66.974  1.00  0.00    -0.389 C  
HETATM    6  H   UNL     1     -12.671  11.686  66.370  1.00  0.00     0.000 HD 
HETATM    7  N   UNL     1     -12.642  14.143  66.470  1.00  0.00    -0.519 NA 
HETATM    8  N   UNL     1     -10.610  13.905  67.521  1.00  0.00    -0.255 NA 
HETATM    9  H1  UNL     1     -12.491  15.151  66.530  1.00  0.00     0.000 HD 
HETATM   10  C   UNL     1      -9.695  13.148  68.044  1.00  0.00    -0.224 C  
HETATM   11  H2  UNL     1     -13.487  13.766  66.041  1.00  0.00     0.000 HD 
HETATM   12  N   UNL     1      -9.710  11.771  68.136  1.00  0.00    -0.186 NA 
HETATM   13  N   UNL     1      -8.658  13.841  68.590  1.00  0.00    -0.329 NA 
HETATM   14  H1  UNL     1      -7.939  13.246  69.001  1.00  0.00     0.000 HD 
HETATM   15  H2  UNL     1      -8.605  14.859  68.588  1.00  0.00     0.000 HD 
ENDROOT
BRANCH  12  16
HETATM   16  C   UNL     1      -8.620  10.978  68.594  1.00  0.00    -0.157 A  
HETATM   17  C   UNL     1      -7.407  10.841  67.897  1.00  0.00    -0.088 A  
HETATM   18  C   UNL     1      -6.393   9.949  68.286  1.00  0.00    -0.054 A  
HETATM   19  C   UNL     1      -6.558   9.162  69.413  1.00  0.00    -0.044 A  
HETATM   20  C   UNL     1      -7.705   9.307  70.177  1.00  0.00    -0.122 A  
HETATM   21 CL   UNL     1      -5.356   8.016  69.846  1.00  0.00    -0.023 Cl 
HETATM   22  C   UNL     1      -8.702  10.217  69.780  1.00  0.00    -0.148 A  
ENDBRANCH  12  16
TORSDOF 1
ENDMDL
MODEL      114
REMARK 921   NORMALIZED FREE ENERGY PREDICTED BY IDOCK:   -3.38 KCAL/MOL
REMARK 922        TOTAL FREE ENERGY PREDICTED BY IDOCK:   -3.81 KCAL/MOL
REMARK 923 INTER-LIGAND FREE ENERGY PREDICTED BY IDOCK:   -3.64 KCAL/MOL
REMARK 924 INTRA-LIGAND FREE ENERGY PREDICTED BY IDOCK:   -0.17 KCAL/MOL
REMARK 927      BINDING AFFINITY PREDICTED BY RF-SCORE:    0.00 PKD
ROOT
HETATM    1  C   UNL     1     -11.056  11.311  68.971  1.00  0.00    -0.301 C  
HETATM    2  C   UNL     1     -10.837  12.295  67.800  1.00  0.00    -0.221 C  
HETATM    3  N   UNL     1     -11.231  13.563  68.429  1.00  0.00    -0.261 NA 
HETATM    4  C   UNL     1     -11.879  12.110  66.680  1.00  0.00    -0.314 C  
HETATM    5  C   UNL     1     -10.340  14.455  68.641  1.00  0.00    -0.245 C  
HETATM    6  H   UNL     1     -12.201  13.730  68.693  1.00  0.00     0.000 HD 
HETATM    7  N   UNL     1     -10.684  15.550  69.355  1.00  0.00    -0.232 NA 
HETATM    8  N   UNL     1      -9.068  14.390  68.200  1.00  0.00    -0.187 NA 
HETATM    9  H1  UNL     1      -9.973  16.262  69.523  1.00  0.00     0.000 HD 
HETATM   10  C   UNL     1      -8.692  13.339  67.540  1.00  0.00    -0.202 C  
HETATM   11  H2  UNL     1     -11.631  15.662  69.716  1.00  0.00     0.000 HD 
HETATM   12  N   UNL     1      -9.455  12.227  67.246  1.00  0.00    -0.182 NA 
HETATM   13  N   UNL     1      -7.383  13.366  67.166  1.00  0.00    -0.358 NA 
HETATM   14  H1  UNL     1      -7.089  12.539  66.647  1.00  0.00     0.000 HD 
HETATM   15  H2  UNL     1      -6.757  14.141  67.384  1.00  0.00     0.000 HD 
ENDROOT
BRANCH  12  16
HETATM   16  C   UNL     1      -9.040  11.160  66.401  1.00  0.00    -0.187 A  
HETATM   17  C   UNL     1      -9.286  11.119  65.018  1.00  0.00    -0.190 A  
HETATM   18  C   UNL     1      -8.996  10.000  64.217  1.00  0.00    -0.269 A  
HETATM   19  C   UNL     1      -8.427   8.872  64.784  1.00  0.00    -0.176 A  
HETATM   20  C   UNL     1      -8.099   8.884  66.130  1.00  0.00    -0.114 A  
HETATM   21 CL   UNL     1      -8.144   7.477  63.826  1.00  0.00    -0.077 Cl 
HETATM   22  C   UNL     1      -8.383  10.020  66.911  1.00  0.00    -0.125 A  
ENDBRANCH  12  16
TORSDOF 1
ENDMDL
MODEL      115
REMARK 921   NORMALIZED FREE ENERGY PREDICTED BY IDOCK:   -3.35 KCAL/MOL
REMARK 922        TOTAL FREE ENERGY PREDICTED BY IDOCK:   -3.78 KCAL/MOL
REMARK 923 INTER-LIGAND FREE ENERGY PREDICTED BY IDOCK:   -3.54 KCAL/MOL
REMARK 924 INTRA-LIGAND FREE ENERGY PREDICTED BY IDOCK:   -0.24 KCAL/MOL
REMARK 927      BINDING AFFINITY PREDICTED BY RF-SCORE:    0.00 PKD
ROOT
HETATM    1  C   UNL     1      -7.216  11.926  66.916  1.00  0.00    -0.074 C  
HETATM    2  C   UNL     1      -7.969  11.975  68.265  1.00  0.00    -0.149 C  
HETATM    3  N   UNL     1      -7.650  13.339  68.710  1.00  0.00    -0.261 NA 
HETATM    4  C   UNL     1      -7.309  11.084  69.334  1.00  0.00    -0.092 C  
HETATM    5  C   UNL     1      -8.583  14.208  68.768  1.00  0.00    -0.067 C  
HETATM    6  H   UNL     1      -6.695  13.587  68.968  1.00  0.00     0.000 HD 
HETATM    7  N   UNL     1      -8.251  15.492  69.031  1.00  0.00    -0.207 NA 
HETATM    8  N   UNL     1      -9.893  13.943  68.589  1.00  0.00    -0.209 NA 
HETATM    9  H1  UNL     1      -8.997  16.186  69.078  1.00  0.00     0.000 HD 
HETATM   10  C   UNL     1     -10.247  12.729  68.302  1.00  0.00    -0.244 C  
HETATM   11  H2  UNL     1      -7.278  15.760  69.178  1.00  0.00     0.000 HD 
HETATM   12  N   UNL     1      -9.415  11.642  68.126  1.00  0.00    -0.185 NA 
HETATM   13  N   UNL     1     -11.588  12.579  68.117  1.00  0.00    -0.319 NA 
HETATM   14  H1  UNL     1     -11.865  11.624  67.891  1.00  0.00     0.000 HD 
HETATM   15  H2  UNL     1     -12.251  13.349  68.196  1.00  0.00     0.000 HD 
ENDROOT
BRANCH  12  16
HETATM   16  C   UNL     1      -9.861  10.302  67.949  1.00  0.00    -0.157 A  
HETATM   17  C   UNL     1     -10.311   9.483  68.999  1.00  0.00    -0.219 A  
HETATM   18  C   UNL     1     -10.615   8.121  68.837  1.00  0.00    -0.161 A  
HETATM   19  C   UNL     1     -10.491   7.527  67.592  1.00  0.00    -0.250 A  
HETATM   20  C   UNL     1     -10.119   8.303  66.507  1.00  0.00    -0.303 A  
HETATM   21 CL   UNL     1     -10.787   5.847  67.406  1.00  0.00    -0.361 Cl 
HETATM   22  C   UNL     1      -9.833   9.670  66.687  1.00  0.00    -0.285 A  
ENDBRANCH  12  16
TORSDOF 1
ENDMDL
MODEL      116
REMARK 921   NORMALIZED FREE ENERGY PREDICTED BY IDOCK:   -3.33 KCAL/MOL
REMARK 922        TOTAL FREE ENERGY PREDICTED BY IDOCK:   -3.76 KCAL/MOL
REMARK 923 INTER-LIGAND FREE ENERGY PREDICTED BY IDOCK:   -3.53 KCAL/MOL
REMARK 924 INTRA-LIGAND FREE ENERGY PREDICTED BY IDOCK:   -0.23 KCAL/MOL
REMARK 927      BINDING AFFINITY PREDICTED BY RF-SCORE:    0.00 PKD
ROOT
HETATM    1  C   UNL     1      -8.019  11.227  66.764  1.00  0.00    -0.159 C  
HETATM    2  C   UNL     1      -8.601  10.278  65.692  1.00  0.00    -0.161 C  
HETATM    3  N   UNL     1      -7.997  10.836  64.474  1.00  0.00    -0.358 NA 
HETATM    4  C   UNL     1     -10.110  10.495  65.479  1.00  0.00    -0.349 C  
HETATM    5  C   UNL     1      -7.126  10.150  63.841  1.00  0.00    -0.104 C  
HETATM    6  H   UNL     1      -8.271  11.760  64.139  1.00  0.00     0.000 HD 
HETATM    7  N   UNL     1      -6.471  10.733  62.813  1.00  0.00    -0.347 NA 
HETATM    8  N   UNL     1      -6.806   8.870  64.118  1.00  0.00    -0.082 NA 
HETATM    9  H1  UNL     1      -5.775  10.185  62.306  1.00  0.00     0.000 HD 
HETATM   10  C   UNL     1      -7.390   8.287  65.119  1.00  0.00    -0.081 C  
HETATM   11  H2  UNL     1      -6.667  11.699  62.549  1.00  0.00     0.000 HD 
HETATM   12  N   UNL     1      -8.313   8.844  65.981  1.00  0.00    -0.119 NA 
HETATM   13  N   UNL     1      -6.975   7.007  65.325  1.00  0.00    -0.054 NA 
HETATM   14  H1  UNL     1      -7.435   6.549  66.112  1.00  0.00     0.000 HD 
HETATM   15  H2  UNL     1      -6.271   6.549  64.748  1.00  0.00     0.000 HD 
ENDROOT
BRANCH  12  16
HETATM   16  C   UNL     1      -9.028   8.124  66.978  1.00  0.00    -0.141 A  
HETATM   17  C   UNL     1     -10.223   7.425  66.731  1.00  0.00    -0.313 A  
HETATM   18  C   UNL     1     -10.994   6.835  67.747  1.00  0.00    -0.321 A  
HETATM   19  C   UNL     1     -10.579   6.915  69.066  1.00  0.00    -0.217 A  
HETATM   20  C   UNL     1      -9.373   7.531  69.359  1.00  0.00    -0.152 A  
HETATM   21 CL   UNL     1     -11.557   6.264  70.316  1.00  0.00    -0.442 Cl 
HETATM   22  C   UNL     1      -8.608   8.103  68.325  1.00  0.00    -0.130 A  
ENDBRANCH  12  16
TORSDOF 1
ENDMDL
MODEL      117
REMARK 921   NORMALIZED FREE ENERGY PREDICTED BY IDOCK:   -3.25 KCAL/MOL
REMARK 922        TOTAL FREE ENERGY PREDICTED BY IDOCK:   -3.68 KCAL/MOL
REMARK 923 INTER-LIGAND FREE ENERGY PREDICTED BY IDOCK:   -3.44 KCAL/MOL
REMARK 924 INTRA-LIGAND FREE ENERGY PREDICTED BY IDOCK:   -0.24 KCAL/MOL
REMARK 927      BINDING AFFINITY PREDICTED BY RF-SCORE:    0.00 PKD
ROOT
HETATM    1  C   UNL     1     -12.158   6.874  70.918  1.00  0.00    -0.424 C  
HETATM    2  C   UNL     1     -10.692   7.188  71.290  1.00  0.00    -0.226 C  
HETATM    3  N   UNL     1     -10.550   6.413  72.531  1.00  0.00    -0.206 NA 
HETATM    4  C   UNL     1     -10.508   8.645  71.753  1.00  0.00    -0.394 C  
HETATM    5  C   UNL     1      -9.774   5.398  72.545  1.00  0.00    -0.152 C  
HETATM    6  H   UNL     1     -11.064   6.681  73.369  1.00  0.00     0.000 HD 
HETATM    7  N   UNL     1      -9.769   4.608  73.641  1.00  0.00    -0.133 NA 
HETATM    8  N   UNL     1      -8.945   5.050  71.539  1.00  0.00    -0.134 NA 
HETATM    9  H1  UNL     1      -9.148   3.798  73.652  1.00  0.00     0.000 HD 
HETATM   10  C   UNL     1      -8.947   5.766  70.458  1.00  0.00    -0.143 C  
HETATM   11  H2  UNL     1     -10.371   4.816  74.438  1.00  0.00     0.000 HD 
HETATM   12  N   UNL     1      -9.740   6.864  70.190  1.00  0.00    -0.171 NA 
HETATM   13  N   UNL     1      -8.093   5.312  69.500  1.00  0.00    -0.093 NA 
HETATM   14  H1  UNL     1      -8.095   5.875  68.649  1.00  0.00     0.000 HD 
HETATM   15  H2  UNL     1      -7.508   4.486  69.620  1.00  0.00     0.000 HD 
ENDROOT
BRANCH  12  16
HETATM   16  C   UNL     1      -9.607   7.699  69.045  1.00  0.00    -0.151 A  
HETATM   17  C   UNL     1     -10.403   7.576  67.893  1.00  0.00    -0.266 A  
HETATM   18  C   UNL     1     -10.173   8.311  66.717  1.00  0.00    -0.375 A  
HETATM   19  C   UNL     1      -9.130   9.220  66.662  1.00  0.00    -0.143 A  
HETATM   20  C   UNL     1      -8.357   9.432  67.791  1.00  0.00    -0.115 A  
HETATM   21 CL   UNL     1      -8.798  10.061  65.203  1.00  0.00    -0.186 Cl 
HETATM   22  C   UNL     1      -8.612   8.697  68.964  1.00  0.00    -0.129 A  
ENDBRANCH  12  16
TORSDOF 1
ENDMDL
MODEL      118
REMARK 921   NORMALIZED FREE ENERGY PREDICTED BY IDOCK:   -3.19 KCAL/MOL
REMARK 922        TOTAL FREE ENERGY PREDICTED BY IDOCK:   -3.61 KCAL/MOL
REMARK 923 INTER-LIGAND FREE ENERGY PREDICTED BY IDOCK:   -3.38 KCAL/MOL
REMARK 924 INTRA-LIGAND FREE ENERGY PREDICTED BY IDOCK:   -0.23 KCAL/MOL
REMARK 927      BINDING AFFINITY PREDICTED BY RF-SCORE:    0.00 PKD
ROOT
HETATM    1  C   UNL     1     -10.449   9.869  70.286  1.00  0.00    -0.348 C  
HETATM    2  C   UNL     1      -9.625   8.605  70.619  1.00  0.00    -0.186 C  
HETATM    3  N   UNL     1     -10.194   8.240  71.923  1.00  0.00    -0.222 NA 
HETATM    4  C   UNL     1      -8.157   8.935  70.945  1.00  0.00    -0.196 C  
HETATM    5  C   UNL     1     -10.880   7.167  72.025  1.00  0.00    -0.222 C  
HETATM    6  H   UNL     1     -10.043   8.835  72.737  1.00  0.00     0.000 HD 
HETATM    7  N   UNL     1     -11.522   6.922  73.189  1.00  0.00    -0.509 NA 
HETATM    8  N   UNL     1     -11.014   6.245  71.050  1.00  0.00    -0.269 NA 
HETATM    9  H1  UNL     1     -12.070   6.065  73.270  1.00  0.00     0.000 HD 
HETATM   10  C   UNL     1     -10.439   6.462  69.908  1.00  0.00    -0.213 C  
HETATM   11  H2  UNL     1     -11.461   7.579  73.967  1.00  0.00     0.000 HD 
HETATM   12  N   UNL     1      -9.703   7.572  69.546  1.00  0.00    -0.163 NA 
HETATM   13  N   UNL     1     -10.660   5.481  68.989  1.00  0.00    -0.228 NA 
HETATM   14  H1  UNL     1     -10.208   5.652  68.091  1.00  0.00     0.000 HD 
HETATM   15  H2  UNL     1     -11.224   4.654  69.181  1.00  0.00     0.000 HD 
ENDROOT
BRANCH  12  16
HETATM   16  C   UNL     1      -8.977   7.701  68.329  1.00  0.00    -0.127 A  
HETATM   17  C   UNL     1      -9.401   8.491  67.247  1.00  0.00    -0.184 A  
HETATM   18  C   UNL     1      -8.751   8.503  66.001  1.00  0.00    -0.188 A  
HETATM   19  C   UNL     1      -7.626   7.721  65.800  1.00  0.00    -0.084 A  
HETATM   20  C   UNL     1      -7.123   6.977  66.854  1.00  0.00    -0.075 A  
HETATM   21 CL   UNL     1      -6.876   7.673  64.257  1.00  0.00    -0.055 Cl 
HETATM   22  C   UNL     1      -7.780   6.990  68.099  1.00  0.00    -0.113 A  
ENDBRANCH  12  16
TORSDOF 1
ENDMDL
MODEL      119
REMARK 921   NORMALIZED FREE ENERGY PREDICTED BY IDOCK:   -3.17 KCAL/MOL
REMARK 922        TOTAL FREE ENERGY PREDICTED BY IDOCK:   -3.59 KCAL/MOL
REMARK 923 INTER-LIGAND FREE ENERGY PREDICTED BY IDOCK:   -3.37 KCAL/MOL
REMARK 924 INTRA-LIGAND FREE ENERGY PREDICTED BY IDOCK:   -0.22 KCAL/MOL
REMARK 927      BINDING AFFINITY PREDICTED BY RF-SCORE:    0.00 PKD
ROOT
HETATM    1  C   UNL     1     -11.271   6.675  70.615  1.00  0.00    -0.370 C  
HETATM    2  C   UNL     1      -9.904   6.745  69.898  1.00  0.00    -0.164 C  
HETATM    3  N   UNL     1      -9.616   5.316  69.714  1.00  0.00    -0.154 NA 
HETATM    4  C   UNL     1      -8.779   7.222  70.835  1.00  0.00    -0.148 C  
HETATM    5  C   UNL     1      -9.607   4.831  68.532  1.00  0.00    -0.156 C  
HETATM    6  H   UNL     1      -9.425   4.720  70.519  1.00  0.00     0.000 HD 
HETATM    7  N   UNL     1      -9.491   3.492  68.388  1.00  0.00    -0.168 NA 
HETATM    8  N   UNL     1      -9.702   5.559  67.401  1.00  0.00    -0.128 NA 
HETATM    9  H1  UNL     1      -9.484   3.104  67.444  1.00  0.00     0.000 HD 
HETATM   10  C   UNL     1      -9.848   6.843  67.501  1.00  0.00    -0.138 C  
HETATM   11  H2  UNL     1      -9.413   2.883  69.203  1.00  0.00     0.000 HD 
HETATM   12  N   UNL     1      -9.947   7.580  68.664  1.00  0.00    -0.167 NA 
HETATM   13  N   UNL     1      -9.959   7.476  66.301  1.00  0.00    -0.459 NA 
HETATM   14  H1  UNL     1     -10.074   8.487  66.380  1.00  0.00     0.000 HD 
HETATM   15  H2  UNL     1      -9.931   6.987  65.407  1.00  0.00     0.000 HD 
ENDROOT
BRANCH  12  16
HETATM   16  C   UNL     1      -9.967   9.002  68.723  1.00  0.00    -0.182 A  
HETATM   17  C   UNL     1     -11.146   9.765  68.766  1.00  0.00    -0.140 A  
HETATM   18  C   UNL     1     -11.158  11.168  68.684  1.00  0.00    -0.293 A  
HETATM   19  C   UNL     1      -9.967  11.865  68.569  1.00  0.00    -0.192 A  
HETATM   20  C   UNL     1      -8.771  11.168  68.593  1.00  0.00    -0.153 A  
HETATM   21 CL   UNL     1      -9.983  13.572  68.390  1.00  0.00    -0.236 Cl 
HETATM   22  C   UNL     1      -8.779   9.764  68.692  1.00  0.00    -0.122 A  
ENDBRANCH  12  16
TORSDOF 1
ENDMDL
MODEL      120
REMARK 921   NORMALIZED FREE ENERGY PREDICTED BY IDOCK:   -3.12 KCAL/MOL
REMARK 922        TOTAL FREE ENERGY PREDICTED BY IDOCK:   -3.54 KCAL/MOL
REMARK 923 INTER-LIGAND FREE ENERGY PREDICTED BY IDOCK:   -3.31 KCAL/MOL
REMARK 924 INTRA-LIGAND FREE ENERGY PREDICTED BY IDOCK:   -0.23 KCAL/MOL
REMARK 927      BINDING AFFINITY PREDICTED BY RF-SCORE:    0.00 PKD
ROOT
HETATM    1  C   UNL     1      -7.804   4.133  68.484  1.00  0.00    -0.073 C  
HETATM    2  C   UNL     1      -8.274   5.539  68.049  1.00  0.00    -0.100 C  
HETATM    3  N   UNL     1      -8.714   5.269  66.673  1.00  0.00    -0.113 NA 
HETATM    4  C   UNL     1      -7.098   6.516  67.865  1.00  0.00    -0.085 C  
HETATM    5  C   UNL     1      -9.957   5.352  66.390  1.00  0.00    -0.191 C  
HETATM    6  H   UNL     1      -8.036   5.018  65.954  1.00  0.00     0.000 HD 
HETATM    7  N   UNL     1     -10.365   4.955  65.164  1.00  0.00    -0.423 NA 
HETATM    8  N   UNL     1     -10.907   5.814  67.228  1.00  0.00    -0.255 NA 
HETATM    9  H1  UNL     1     -11.358   5.022  64.938  1.00  0.00     0.000 HD 
HETATM   10  C   UNL     1     -10.558   6.173  68.424  1.00  0.00    -0.265 C  
HETATM   11  H2  UNL     1      -9.698   4.596  64.482  1.00  0.00     0.000 HD 
HETATM   12  N   UNL     1      -9.293   6.114  68.973  1.00  0.00    -0.128 NA 
HETATM   13  N   UNL     1     -11.598   6.598  69.193  1.00  0.00    -0.628 NA 
HETATM   14  H1  UNL     1     -11.322   6.881  70.134  1.00  0.00     0.000 HD 
HETATM   15  H2  UNL     1     -12.561   6.632  68.861  1.00  0.00     0.000 HD 
ENDROOT
BRANCH  12  16
HETATM   16  C   UNL     1      -8.934   6.648  70.242  1.00  0.00    -0.152 A  
HETATM   17  C   UNL     1      -8.765   8.021  70.491  1.00  0.00    -0.135 A  
HETATM   18  C   UNL     1      -8.277   8.528  71.708  1.00  0.00    -0.209 A  
HETATM   19  C   UNL     1      -7.949   7.662  72.737  1.00  0.00    -0.111 A  
HETATM   20  C   UNL     1      -8.162   6.303  72.571  1.00  0.00    -0.106 A  
HETATM   21 CL   UNL     1      -7.279   8.271  74.195  1.00  0.00    -0.205 Cl 
HETATM   22  C   UNL     1      -8.667   5.816  71.351  1.00  0.00    -0.133 A  
ENDBRANCH  12  16
TORSDOF 1
ENDMDL
MODEL      121
REMARK 921   NORMALIZED FREE ENERGY PREDICTED BY IDOCK:   -3.10 KCAL/MOL
REMARK 922        TOTAL FREE ENERGY PREDICTED BY IDOCK:   -3.52 KCAL/MOL
REMARK 923 INTER-LIGAND FREE ENERGY PREDICTED BY IDOCK:   -3.28 KCAL/MOL
REMARK 924 INTRA-LIGAND FREE ENERGY PREDICTED BY IDOCK:   -0.24 KCAL/MOL
REMARK 927      BINDING AFFINITY PREDICTED BY RF-SCORE:    0.00 PKD
ROOT
HETATM    1  C   UNL     1      -8.857   6.411  72.261  1.00  0.00    -0.135 C  
HETATM    2  C   UNL     1     -10.018   6.420  71.241  1.00  0.00    -0.182 C  
HETATM    3  N   UNL     1     -11.146   6.782  72.112  1.00  0.00    -0.241 NA 
HETATM    4  C   UNL     1     -10.379   5.004  70.755  1.00  0.00    -0.265 C  
HETATM    5  C   UNL     1     -11.711   7.917  71.958  1.00  0.00    -0.311 C  
HETATM    6  H   UNL     1     -11.473   6.136  72.829  1.00  0.00     0.000 HD 
HETATM    7  N   UNL     1     -12.643   8.299  72.860  1.00  0.00    -0.659 NA 
HETATM    8  N   UNL     1     -11.450   8.776  70.951  1.00  0.00    -0.280 NA 
HETATM    9  H1  UNL     1     -13.095   9.206  72.736  1.00  0.00     0.000 HD 
HETATM   10  C   UNL     1     -10.539   8.458  70.086  1.00  0.00    -0.233 C  
HETATM   11  H2  UNL     1     -12.889   7.696  73.644  1.00  0.00     0.000 HD 
HETATM   12  N   UNL     1      -9.756   7.321  70.083  1.00  0.00    -0.172 NA 
HETATM   13  N   UNL     1     -10.338   9.406  69.129  1.00  0.00    -0.205 NA 
HETATM   14  H1  UNL     1      -9.621   9.156  68.448  1.00  0.00     0.000 HD 
HETATM   15  H2  UNL     1     -10.857  10.283  69.096  1.00  0.00     0.000 HD 
ENDROOT
BRANCH  12  16
HETATM   16  C   UNL     1      -8.866   6.953  69.036  1.00  0.00    -0.130 A  
HETATM   17  C   UNL     1      -9.283   6.377  67.823  1.00  0.00    -0.112 A  
HETATM   18  C   UNL     1      -8.389   5.889  66.855  1.00  0.00    -0.108 A  
HETATM   19  C   UNL     1      -7.023   5.977  67.067  1.00  0.00    -0.068 A  
HETATM   20  C   UNL     1      -6.556   6.599  68.213  1.00  0.00    -0.059 A  
HETATM   21 CL   UNL     1      -5.930   5.313  65.923  1.00  0.00    -0.025 Cl 
HETATM   22  C   UNL     1      -7.467   7.094  69.164  1.00  0.00    -0.094 A  
ENDBRANCH  12  16
TORSDOF 1
ENDMDL
MODEL      122
REMARK 921   NORMALIZED FREE ENERGY PREDICTED BY IDOCK:   -3.07 KCAL/MOL
REMARK 922        TOTAL FREE ENERGY PREDICTED BY IDOCK:   -3.48 KCAL/MOL
REMARK 923 INTER-LIGAND FREE ENERGY PREDICTED BY IDOCK:   -3.33 KCAL/MOL
REMARK 924 INTRA-LIGAND FREE ENERGY PREDICTED BY IDOCK:   -0.15 KCAL/MOL
REMARK 927      BINDING AFFINITY PREDICTED BY RF-SCORE:    0.00 PKD
ROOT
HETATM    1  C   UNL     1      -9.285  13.124  66.807  1.00  0.00    -0.232 C  
HETATM    2  C   UNL     1      -8.749  13.711  68.132  1.00  0.00    -0.177 C  
HETATM    3  N   UNL     1      -8.153  12.513  68.742  1.00  0.00    -0.335 NA 
HETATM    4  C   UNL     1      -9.882  14.085  69.105  1.00  0.00     0.107 C  
HETATM    5  C   UNL     1      -6.884  12.451  68.878  1.00  0.00    -0.099 C  
HETATM    6  H   UNL     1      -8.745  11.743  69.052  1.00  0.00     0.000 HD 
HETATM    7  N   UNL     1      -6.340  11.287  69.299  1.00  0.00    -0.071 NA 
HETATM    8  N   UNL     1      -6.034  13.468  68.635  1.00  0.00    -0.081 NA 
HETATM    9  H1  UNL     1      -5.327  11.237  69.408  1.00  0.00     0.000 HD 
HETATM   10  C   UNL     1      -6.516  14.590  68.199  1.00  0.00    -0.139 C  
HETATM   11  H2  UNL     1      -6.928  10.479  69.501  1.00  0.00     0.000 HD 
HETATM   12  N   UNL     1      -7.838  14.871  67.917  1.00  0.00    -0.126 NA 
HETATM   13  N   UNL     1      -5.569  15.539  67.963  1.00  0.00    -0.124 NA 
HETATM   14  H1  UNL     1      -5.949  16.420  67.619  1.00  0.00     0.000 HD 
HETATM   15  H2  UNL     1      -4.573  15.382  68.115  1.00  0.00     0.000 HD 
ENDROOT
BRANCH  12  16
HETATM   16  C   UNL     1      -8.336  16.159  67.572  1.00  0.00    -0.159 A  
HETATM   17  C   UNL     1      -8.342  17.255  68.452  1.00  0.00    -0.261 A  
HETATM   18  C   UNL     1      -8.961  18.481  68.151  1.00  0.00    -0.326 A  
HETATM   19  C   UNL     1      -9.594  18.655  66.931  1.00  0.00    -0.310 A  
HETATM   20  C   UNL     1      -9.559  17.631  65.999  1.00  0.00    -0.123 A  
HETATM   21 CL   UNL     1     -10.418  20.122  66.592  1.00  0.00    -0.509 Cl 
HETATM   22  C   UNL     1      -8.920  16.417  66.313  1.00  0.00    -0.368 A  
ENDBRANCH  12  16
TORSDOF 1
ENDMDL
MODEL      123
REMARK 921   NORMALIZED FREE ENERGY PREDICTED BY IDOCK:   -3.02 KCAL/MOL
REMARK 922        TOTAL FREE ENERGY PREDICTED BY IDOCK:   -3.43 KCAL/MOL
REMARK 923 INTER-LIGAND FREE ENERGY PREDICTED BY IDOCK:   -3.20 KCAL/MOL
REMARK 924 INTRA-LIGAND FREE ENERGY PREDICTED BY IDOCK:   -0.23 KCAL/MOL
REMARK 927      BINDING AFFINITY PREDICTED BY RF-SCORE:    0.00 PKD
ROOT
HETATM    1  C   UNL     1      -9.545  10.163  69.626  1.00  0.00    -0.237 C  
HETATM    2  C   UNL     1      -9.750  10.866  68.265  1.00  0.00    -0.165 C  
HETATM    3  N   UNL     1     -10.112  12.220  68.707  1.00  0.00    -0.401 NA 
HETATM    4  C   UNL     1     -11.016  10.373  67.539  1.00  0.00    -0.358 C  
HETATM    5  C   UNL     1      -9.306  13.184  68.477  1.00  0.00    -0.085 C  
HETATM    6  H   UNL     1     -10.994  12.387  69.189  1.00  0.00     0.000 HD 
HETATM    7  N   UNL     1      -9.579  14.392  69.020  1.00  0.00    -0.383 NA 
HETATM    8  N   UNL     1      -8.191  13.093  67.725  1.00  0.00    -0.154 NA 
HETATM    9  H1  UNL     1      -8.936  15.163  68.836  1.00  0.00     0.000 HD 
HETATM   10  C   UNL     1      -7.880  11.942  67.215  1.00  0.00    -0.168 C  
HETATM   11  H2  UNL     1     -10.407  14.530  69.598  1.00  0.00     0.000 HD 
HETATM   12  N   UNL     1      -8.559  10.751  67.376  1.00  0.00    -0.126 NA 
HETATM   13  N   UNL     1      -6.723  11.957  66.496  1.00  0.00    -0.366 NA 
HETATM   14  H1  UNL     1      -6.479  11.051  66.095  1.00  0.00     0.000 HD 
HETATM   15  H2  UNL     1      -6.156  12.794  66.369  1.00  0.00     0.000 HD 
ENDROOT
BRANCH  12  16
HETATM   16  C   UNL     1      -8.255   9.545  66.685  1.00  0.00    -0.116 A  
HETATM   17  C   UNL     1      -7.579   8.459  67.269  1.00  0.00    -0.097 A  
HETATM   18  C   UNL     1      -7.161   7.332  66.541  1.00  0.00    -0.079 A  
HETATM   19  C   UNL     1      -7.424   7.247  65.184  1.00  0.00    -0.087 A  
HETATM   20  C   UNL     1      -8.148   8.256  64.571  1.00  0.00    -0.146 A  
HETATM   21 CL   UNL     1      -6.847   5.909  64.278  1.00  0.00    -0.048 Cl 
HETATM   22  C   UNL     1      -8.571   9.370  65.320  1.00  0.00    -0.182 A  
ENDBRANCH  12  16
TORSDOF 1
ENDMDL
MODEL      124
REMARK 921   NORMALIZED FREE ENERGY PREDICTED BY IDOCK:   -2.98 KCAL/MOL
REMARK 922        TOTAL FREE ENERGY PREDICTED BY IDOCK:   -3.39 KCAL/MOL
REMARK 923 INTER-LIGAND FREE ENERGY PREDICTED BY IDOCK:   -3.92 KCAL/MOL
REMARK 924 INTRA-LIGAND FREE ENERGY PREDICTED BY IDOCK:    0.53 KCAL/MOL
REMARK 927      BINDING AFFINITY PREDICTED BY RF-SCORE:    0.00 PKD
ROOT
HETATM    1  C   UNL     1     -10.481  10.417  65.501  1.00  0.00    -0.192 C  
HETATM    2  C   UNL     1     -10.080  10.961  66.891  1.00  0.00    -0.212 C  
HETATM    3  N   UNL     1      -9.722   9.714  67.582  1.00  0.00    -0.146 NA 
HETATM    4  C   UNL     1     -11.293  11.478  67.687  1.00  0.00    -0.358 C  
HETATM    5  C   UNL     1      -8.503   9.510  67.904  1.00  0.00    -0.119 C  
HETATM    6  H   UNL     1     -10.437   9.022  67.802  1.00  0.00     0.000 HD 
HETATM    7  N   UNL     1      -8.163   8.299  68.400  1.00  0.00    -0.130 NA 
HETATM    8  N   UNL     1      -7.514  10.420  67.789  1.00  0.00    -0.088 NA 
HETATM    9  H1  UNL     1      -7.189   8.136  68.657  1.00  0.00     0.000 HD 
HETATM   10  C   UNL     1      -7.796  11.581  67.286  1.00  0.00    -0.153 C  
HETATM   11  H2  UNL     1      -8.863   7.566  68.514  1.00  0.00     0.000 HD 
HETATM   12  N   UNL     1      -9.021  12.007  66.813  1.00  0.00    -0.195 NA 
HETATM   13  N   UNL     1      -6.721  12.412  67.193  1.00  0.00    -0.307 NA 
HETATM   14  H1  UNL     1      -6.943  13.326  66.797  1.00  0.00     0.000 HD 
HETATM   15  H2  UNL     1      -5.783  12.146  67.490  1.00  0.00     0.000 HD 
ENDROOT
BRANCH  12  16
HETATM   16  C   UNL     1      -9.312  13.337  66.399  1.00  0.00    -0.174 A  
HETATM   17  C   UNL     1      -8.769  14.481  67.008  1.00  0.00    -0.256 A  
HETATM   18  C   UNL     1      -9.169  15.789  66.684  1.00  0.00    -0.283 A  
HETATM   19  C   UNL     1     -10.132  15.997  65.711  1.00  0.00    -0.366 A  
HETATM   20  C   UNL     1     -10.650  14.909  65.028  1.00  0.00    -0.446 A  
HETATM   21 CL   UNL     1     -10.679  17.587  65.368  1.00  0.00    -0.170 Cl 
HETATM   22  C   UNL     1     -10.226  13.608  65.357  1.00  0.00    -0.330 A  
ENDBRANCH  12  16
TORSDOF 1
ENDMDL
MODEL      125
REMARK 921   NORMALIZED FREE ENERGY PREDICTED BY IDOCK:   -2.98 KCAL/MOL
REMARK 922        TOTAL FREE ENERGY PREDICTED BY IDOCK:   -3.39 KCAL/MOL
REMARK 923 INTER-LIGAND FREE ENERGY PREDICTED BY IDOCK:   -3.15 KCAL/MOL
REMARK 924 INTRA-LIGAND FREE ENERGY PREDICTED BY IDOCK:   -0.24 KCAL/MOL
REMARK 927      BINDING AFFINITY PREDICTED BY RF-SCORE:    0.00 PKD
ROOT
HETATM    1  C   UNL     1     -10.506   7.249  66.753  1.00  0.00    -0.311 C  
HETATM    2  C   UNL     1      -9.243   8.137  66.807  1.00  0.00    -0.164 C  
HETATM    3  N   UNL     1      -9.430   8.956  65.601  1.00  0.00    -0.422 NA 
HETATM    4  C   UNL     1      -7.958   7.343  66.508  1.00  0.00    -0.111 C  
HETATM    5  C   UNL     1      -9.662  10.205  65.727  1.00  0.00    -0.245 C  
HETATM    6  H   UNL     1      -9.375   8.531  64.675  1.00  0.00     0.000 HD 
HETATM    7  N   UNL     1      -9.981  10.915  64.621  1.00  0.00    -0.283 NA 
HETATM    8  N   UNL     1      -9.610  10.883  66.891  1.00  0.00    -0.176 NA 
HETATM    9  H1  UNL     1     -10.166  11.913  64.722  1.00  0.00     0.000 HD 
HETATM   10  C   UNL     1      -9.339  10.230  67.978  1.00  0.00    -0.138 C  
HETATM   11  H2  UNL     1     -10.036  10.463  63.708  1.00  0.00     0.000 HD 
HETATM   12  N   UNL     1      -9.116   8.873  68.097  1.00  0.00    -0.140 NA 
HETATM   13  N   UNL     1      -9.338  11.006  69.097  1.00  0.00    -0.394 NA 
HETATM   14  H1  UNL     1      -9.125  10.491  69.951  1.00  0.00     0.000 HD 
HETATM   15  H2  UNL     1      -9.531  12.007  69.082  1.00  0.00     0.000 HD 
ENDROOT
BRANCH  12  16
HETATM   16  C   UNL     1      -8.687   8.224  69.289  1.00  0.00    -0.139 A  
HETATM   17  C   UNL     1      -7.360   8.243  69.753  1.00  0.00    -0.065 A  
HETATM   18  C   UNL     1      -6.919   7.486  70.852  1.00  0.00    -0.054 A  
HETATM   19  C   UNL     1      -7.811   6.683  71.543  1.00  0.00    -0.099 A  
HETATM   20  C   UNL     1      -9.146   6.681  71.172  1.00  0.00    -0.152 A  
HETATM   21 CL   UNL     1      -7.260   5.698  72.835  1.00  0.00    -0.089 Cl 
HETATM   22  C   UNL     1      -9.571   7.458  70.078  1.00  0.00    -0.168 A  
ENDBRANCH  12  16
TORSDOF 1
ENDMDL
MODEL      126
REMARK 921   NORMALIZED FREE ENERGY PREDICTED BY IDOCK:   -2.91 KCAL/MOL
REMARK 922        TOTAL FREE ENERGY PREDICTED BY IDOCK:   -3.31 KCAL/MOL
REMARK 923 INTER-LIGAND FREE ENERGY PREDICTED BY IDOCK:   -3.07 KCAL/MOL
REMARK 924 INTRA-LIGAND FREE ENERGY PREDICTED BY IDOCK:   -0.24 KCAL/MOL
REMARK 927      BINDING AFFINITY PREDICTED BY RF-SCORE:    0.00 PKD
ROOT
HETATM    1  C   UNL     1     -12.102   6.562  70.359  1.00  0.00    -0.172 C  
HETATM    2  C   UNL     1     -11.224   6.861  71.595  1.00  0.00    -0.247 C  
HETATM    3  N   UNL     1     -11.874   6.015  72.606  1.00  0.00    -0.520 NA 
HETATM    4  C   UNL     1     -11.436   8.289  72.129  1.00  0.00    -0.427 C  
HETATM    5  C   UNL     1     -11.244   5.005  73.070  1.00  0.00    -0.310 C  
HETATM    6  H   UNL     1     -12.815   6.231  72.933  1.00  0.00     0.000 HD 
HETATM    7  N   UNL     1     -11.907   4.152  73.882  1.00  0.00     0.089 NA 
HETATM    8  N   UNL     1      -9.951   4.720  72.812  1.00  0.00    -0.158 NA 
HETATM    9  H1  UNL     1     -11.403   3.345  74.253  1.00  0.00     0.000 HD 
HETATM   10  C   UNL     1      -9.293   5.497  72.010  1.00  0.00    -0.147 C  
HETATM   11  H2  UNL     1     -12.886   4.310  74.118  1.00  0.00     0.000 HD 
HETATM   12  N   UNL     1      -9.776   6.605  71.344  1.00  0.00    -0.172 NA 
HETATM   13  N   UNL     1      -8.006   5.103  71.800  1.00  0.00    -0.109 NA 
HETATM   14  H1  UNL     1      -7.489   5.715  71.169  1.00  0.00     0.000 HD 
HETATM   15  H2  UNL     1      -7.599   4.275  72.232  1.00  0.00     0.000 HD 
ENDROOT
BRANCH  12  16
HETATM   16  C   UNL     1      -8.979   7.506  70.584  1.00  0.00    -0.154 A  
HETATM   17  C   UNL     1      -8.215   8.541  71.151  1.00  0.00    -0.172 A  
HETATM   18  C   UNL     1      -7.543   9.510  70.385  1.00  0.00    -0.169 A  
HETATM   19  C   UNL     1      -7.604   9.464  69.002  1.00  0.00    -0.074 A  
HETATM   20  C   UNL     1      -8.285   8.425  68.390  1.00  0.00    -0.124 A  
HETATM   21 CL   UNL     1      -6.850  10.689  68.067  1.00  0.00    -0.071 Cl 
HETATM   22  C   UNL     1      -8.938   7.455  69.174  1.00  0.00    -0.135 A  
ENDBRANCH  12  16
TORSDOF 1
ENDMDL
MODEL      127
REMARK 921   NORMALIZED FREE ENERGY PREDICTED BY IDOCK:   -2.89 KCAL/MOL
REMARK 922        TOTAL FREE ENERGY PREDICTED BY IDOCK:   -3.29 KCAL/MOL
REMARK 923 INTER-LIGAND FREE ENERGY PREDICTED BY IDOCK:   -3.05 KCAL/MOL
REMARK 924 INTRA-LIGAND FREE ENERGY PREDICTED BY IDOCK:   -0.24 KCAL/MOL
REMARK 927      BINDING AFFINITY PREDICTED BY RF-SCORE:    0.00 PKD
ROOT
HETATM    1  C   UNL     1      -6.024  12.167  67.897  1.00  0.00    -0.072 C  
HETATM    2  C   UNL     1      -7.525  11.891  68.137  1.00  0.00    -0.100 C  
HETATM    3  N   UNL     1      -7.887  13.045  68.972  1.00  0.00    -0.324 NA 
HETATM    4  C   UNL     1      -7.755  10.686  69.069  1.00  0.00    -0.130 C  
HETATM    5  C   UNL     1      -8.675  13.932  68.498  1.00  0.00    -0.134 C  
HETATM    6  H   UNL     1      -7.515  13.137  69.916  1.00  0.00     0.000 HD 
HETATM    7  N   UNL     1      -8.879  15.060  69.215  1.00  0.00    -0.353 NA 
HETATM    8  N   UNL     1      -9.331  13.830  67.324  1.00  0.00    -0.230 NA 
HETATM    9  H1  UNL     1      -9.508  15.768  68.837  1.00  0.00     0.000 HD 
HETATM   10  C   UNL     1      -9.134  12.777  66.593  1.00  0.00    -0.187 C  
HETATM   11  H2  UNL     1      -8.414  15.200  70.112  1.00  0.00     0.000 HD 
HETATM   12  N   UNL     1      -8.286  11.723  66.867  1.00  0.00    -0.168 NA 
HETATM   13  N   UNL     1      -9.825  12.789  65.420  1.00  0.00    -0.443 NA 
HETATM   14  H1  UNL     1      -9.670  11.961  64.845  1.00  0.00     0.000 HD 
HETATM   15  H2  UNL     1     -10.439  13.554  65.142  1.00  0.00     0.000 HD 
ENDROOT
BRANCH  12  16
HETATM   16  C   UNL     1      -8.209  10.526  66.101  1.00  0.00    -0.151 A  
HETATM   17  C   UNL     1      -9.146   9.481  66.189  1.00  0.00    -0.207 A  
HETATM   18  C   UNL     1      -8.986   8.248  65.534  1.00  0.00    -0.114 A  
HETATM   19  C   UNL     1      -7.871   8.022  64.745  1.00  0.00    -0.131 A  
HETATM   20  C   UNL     1      -6.951   9.042  64.567  1.00  0.00    -0.089 A  
HETATM   21 CL   UNL     1      -7.634   6.490  64.009  1.00  0.00    -0.093 Cl 
HETATM   22  C   UNL     1      -7.136  10.275  65.219  1.00  0.00    -0.130 A  
ENDBRANCH  12  16
TORSDOF 1
ENDMDL
MODEL      128
REMARK 921   NORMALIZED FREE ENERGY PREDICTED BY IDOCK:   -2.81 KCAL/MOL
REMARK 922        TOTAL FREE ENERGY PREDICTED BY IDOCK:   -3.21 KCAL/MOL
REMARK 923 INTER-LIGAND FREE ENERGY PREDICTED BY IDOCK:   -3.34 KCAL/MOL
REMARK 924 INTRA-LIGAND FREE ENERGY PREDICTED BY IDOCK:    0.13 KCAL/MOL
REMARK 927      BINDING AFFINITY PREDICTED BY RF-SCORE:    0.00 PKD
ROOT
HETATM    1  C   UNL     1     -13.983   9.218  70.646  1.00  0.00     0.458 C  
HETATM    2  C   UNL     1     -12.549   9.131  71.214  1.00  0.00    -0.288 C  
HETATM    3  N   UNL     1     -12.685   7.991  72.131  1.00  0.00    -0.459 NA 
HETATM    4  C   UNL     1     -12.219  10.309  72.150  1.00  0.00     0.286 C  
HETATM    5  C   UNL     1     -12.071   6.902  71.866  1.00  0.00    -0.333 C  
HETATM    6  H   UNL     1     -13.261   8.068  72.969  1.00  0.00     0.000 HD 
HETATM    7  N   UNL     1     -12.325   5.818  72.632  1.00  0.00    -0.475 NA 
HETATM    8  N   UNL     1     -11.176   6.747  70.869  1.00  0.00    -0.274 NA 
HETATM    9  H1  UNL     1     -11.834   4.949  72.420  1.00  0.00     0.000 HD 
HETATM   10  C   UNL     1     -10.932   7.756  70.092  1.00  0.00    -0.241 C  
HETATM   11  H2  UNL     1     -12.990   5.867  73.403  1.00  0.00     0.000 HD 
HETATM   12  N   UNL     1     -11.516   9.006  70.146  1.00  0.00    -0.135 NA 
HETATM   13  N   UNL     1     -10.034   7.483  69.106  1.00  0.00    -0.175 NA 
HETATM   14  H1  UNL     1      -9.842   8.277  68.495  1.00  0.00     0.000 HD 
HETATM   15  H2  UNL     1      -9.594   6.571  68.989  1.00  0.00     0.000 HD 
ENDROOT
BRANCH  12  16
HETATM   16  C   UNL     1     -11.115  10.122  69.359  1.00  0.00    -0.243 A  
HETATM   17  C   UNL     1     -12.004  10.899  68.595  1.00  0.00    -0.185 A  
HETATM   18  C   UNL     1     -11.581  11.910  67.715  1.00  0.00    -0.393 A  
HETATM   19  C   UNL     1     -10.232  12.190  67.580  1.00  0.00    -0.199 A  
HETATM   20  C   UNL     1      -9.316  11.503  68.361  1.00  0.00    -0.194 A  
HETATM   21 CL   UNL     1      -9.707  13.369  66.449  1.00  0.00    -0.278 Cl 
HETATM   22  C   UNL     1      -9.761  10.505  69.248  1.00  0.00    -0.215 A  
ENDBRANCH  12  16
TORSDOF 1
ENDMDL
MODEL      129
REMARK 921   NORMALIZED FREE ENERGY PREDICTED BY IDOCK:   -2.79 KCAL/MOL
REMARK 922        TOTAL FREE ENERGY PREDICTED BY IDOCK:   -3.19 KCAL/MOL
REMARK 923 INTER-LIGAND FREE ENERGY PREDICTED BY IDOCK:   -2.94 KCAL/MOL
REMARK 924 INTRA-LIGAND FREE ENERGY PREDICTED BY IDOCK:   -0.24 KCAL/MOL
REMARK 927      BINDING AFFINITY PREDICTED BY RF-SCORE:    0.00 PKD
ROOT
HETATM    1  C   UNL     1     -11.531   6.280  70.014  1.00  0.00    -0.460 C  
HETATM    2  C   UNL     1     -10.100   5.829  70.385  1.00  0.00    -0.210 C  
HETATM    3  N   UNL     1     -10.204   5.759  71.850  1.00  0.00    -0.195 NA 
HETATM    4  C   UNL     1      -9.059   6.940  70.151  1.00  0.00    -0.152 C  
HETATM    5  C   UNL     1     -10.135   4.621  72.424  1.00  0.00    -0.182 C  
HETATM    6  H   UNL     1     -10.329   6.609  72.400  1.00  0.00     0.000 HD 
HETATM    7  N   UNL     1     -10.384   4.554  73.751  1.00  0.00    -0.183 NA 
HETATM    8  N   UNL     1      -9.828   3.464  71.804  1.00  0.00    -0.168 NA 
HETATM    9  H1  UNL     1     -10.329   3.644  74.210  1.00  0.00     0.000 HD 
HETATM   10  C   UNL     1      -9.616   3.483  70.525  1.00  0.00    -0.176 C  
HETATM   11  H2  UNL     1     -10.621   5.393  74.281  1.00  0.00     0.000 HD 
HETATM   12  N   UNL     1      -9.695   4.577  69.686  1.00  0.00    -0.204 NA 
HETATM   13  N   UNL     1      -9.339   2.259  69.997  1.00  0.00    -0.120 NA 
HETATM   14  H1  UNL     1      -9.172   2.274  68.991  1.00  0.00     0.000 HD 
HETATM   15  H2  UNL     1      -9.302   1.406  70.555  1.00  0.00     0.000 HD 
ENDROOT
BRANCH  12  16
HETATM   16  C   UNL     1      -9.318   4.575  68.314  1.00  0.00    -0.141 A  
HETATM   17  C   UNL     1      -7.989   4.683  67.869  1.00  0.00    -0.089 A  
HETATM   18  C   UNL     1      -7.640   4.820  66.514  1.00  0.00    -0.087 A  
HETATM   19  C   UNL     1      -8.627   4.839  65.543  1.00  0.00    -0.131 A  
HETATM   20  C   UNL     1      -9.949   4.665  65.920  1.00  0.00    -0.256 A  
HETATM   21 CL   UNL     1      -8.210   5.084  63.897  1.00  0.00    -0.119 Cl 
HETATM   22  C   UNL     1     -10.277   4.514  67.280  1.00  0.00    -0.072 A  
ENDBRANCH  12  16
TORSDOF 1
ENDMDL
MODEL      130
REMARK 921   NORMALIZED FREE ENERGY PREDICTED BY IDOCK:   -2.74 KCAL/MOL
REMARK 922        TOTAL FREE ENERGY PREDICTED BY IDOCK:   -3.14 KCAL/MOL
REMARK 923 INTER-LIGAND FREE ENERGY PREDICTED BY IDOCK:   -2.93 KCAL/MOL
REMARK 924 INTRA-LIGAND FREE ENERGY PREDICTED BY IDOCK:   -0.22 KCAL/MOL
REMARK 927      BINDING AFFINITY PREDICTED BY RF-SCORE:    0.00 PKD
ROOT
HETATM    1  C   UNL     1      -9.833   9.193  71.949  1.00  0.00    -0.123 C  
HETATM    2  C   UNL     1     -10.407   8.962  70.533  1.00  0.00    -0.203 C  
HETATM    3  N   UNL     1     -10.639  10.348  70.102  1.00  0.00    -0.436 NA 
HETATM    4  C   UNL     1     -11.821   8.354  70.569  1.00  0.00    -0.004 C  
HETATM    5  C   UNL     1      -9.932  10.831  69.154  1.00  0.00    -0.187 C  
HETATM    6  H   UNL     1     -11.356  10.916  70.552  1.00  0.00     0.000 HD 
HETATM    7  N   UNL     1     -10.050  12.148  68.870  1.00  0.00    -0.418 NA 
HETATM    8  N   UNL     1      -9.065  10.122  68.403  1.00  0.00    -0.130 NA 
HETATM    9  H1  UNL     1      -9.485  12.534  68.113  1.00  0.00     0.000 HD 
HETATM   10  C   UNL     1      -8.900   8.864  68.667  1.00  0.00    -0.137 C  
HETATM   11  H2  UNL     1     -10.689  12.741  69.400  1.00  0.00     0.000 HD 
HETATM   12  N   UNL     1      -9.504   8.141  69.677  1.00  0.00    -0.159 NA 
HETATM   13  N   UNL     1      -7.986   8.251  67.866  1.00  0.00    -0.121 NA 
HETATM   14  H1  UNL     1      -7.857   7.261  68.074  1.00  0.00     0.000 HD 
HETATM   15  H2  UNL     1      -7.479   8.736  67.127  1.00  0.00     0.000 HD 
ENDROOT
BRANCH  12  16
HETATM   16  C   UNL     1      -9.396   6.732  69.841  1.00  0.00    -0.157 A  
HETATM   17  C   UNL     1      -8.446   6.113  70.671  1.00  0.00    -0.134 A  
HETATM   18  C   UNL     1      -8.257   4.721  70.719  1.00  0.00    -0.086 A  
HETATM   19  C   UNL     1      -9.036   3.888  69.934  1.00  0.00    -0.122 A  
HETATM   20  C   UNL     1     -10.035   4.440  69.148  1.00  0.00    -0.117 A  
HETATM   21 CL   UNL     1      -8.755   2.196  69.931  1.00  0.00    -0.102 Cl 
HETATM   22  C   UNL     1     -10.220   5.835  69.126  1.00  0.00    -0.289 A  
ENDBRANCH  12  16
TORSDOF 1
ENDMDL
MODEL      131
REMARK 921   NORMALIZED FREE ENERGY PREDICTED BY IDOCK:   -2.71 KCAL/MOL
REMARK 922        TOTAL FREE ENERGY PREDICTED BY IDOCK:   -3.11 KCAL/MOL
REMARK 923 INTER-LIGAND FREE ENERGY PREDICTED BY IDOCK:   -2.86 KCAL/MOL
REMARK 924 INTRA-LIGAND FREE ENERGY PREDICTED BY IDOCK:   -0.24 KCAL/MOL
REMARK 927      BINDING AFFINITY PREDICTED BY RF-SCORE:    0.00 PKD
ROOT
HETATM    1  C   UNL     1      -9.859   4.692  68.541  1.00  0.00    -0.181 C  
HETATM    2  C   UNL     1     -10.006   5.616  69.771  1.00  0.00    -0.200 C  
HETATM    3  N   UNL     1      -9.878   4.641  70.864  1.00  0.00    -0.190 NA 
HETATM    4  C   UNL     1     -11.441   6.150  69.931  1.00  0.00    -0.371 C  
HETATM    5  C   UNL     1      -8.851   4.688  71.621  1.00  0.00    -0.125 C  
HETATM    6  H   UNL     1     -10.600   3.938  71.016  1.00  0.00     0.000 HD 
HETATM    7  N   UNL     1      -8.671   3.697  72.523  1.00  0.00    -0.089 NA 
HETATM    8  N   UNL     1      -7.919   5.663  71.595  1.00  0.00    -0.115 NA 
HETATM    9  H1  UNL     1      -7.850   3.735  73.128  1.00  0.00     0.000 HD 
HETATM   10  C   UNL     1      -8.041   6.613  70.721  1.00  0.00    -0.119 C  
HETATM   11  H2  UNL     1      -9.339   2.930  72.596  1.00  0.00     0.000 HD 
HETATM   12  N   UNL     1      -9.026   6.739  69.763  1.00  0.00    -0.144 NA 
HETATM   13  N   UNL     1      -7.034   7.529  70.764  1.00  0.00    -0.047 NA 
HETATM   14  H1  UNL     1      -7.130   8.276  70.076  1.00  0.00     0.000 HD 
HETATM   15  H2  UNL     1      -6.257   7.473  71.422  1.00  0.00     0.000 HD 
ENDROOT
BRANCH  12  16
HETATM   16  C   UNL     1      -9.194   7.871  68.917  1.00  0.00    -0.144 A  
HETATM   17  C   UNL     1      -9.816   9.065  69.324  1.00  0.00    -0.179 A  
HETATM   18  C   UNL     1     -10.101  10.123  68.444  1.00  0.00    -0.184 A  
HETATM   19  C   UNL     1      -9.754  10.024  67.107  1.00  0.00    -0.174 A  
HETATM   20  C   UNL     1      -9.077   8.900  66.666  1.00  0.00    -0.192 A  
HETATM   21 CL   UNL     1     -10.171  11.281  66.016  1.00  0.00    -0.283 Cl 
HETATM   22  C   UNL     1      -8.787   7.857  67.566  1.00  0.00    -0.128 A  
ENDBRANCH  12  16
TORSDOF 1
ENDMDL
MODEL      132
REMARK 921   NORMALIZED FREE ENERGY PREDICTED BY IDOCK:   -2.57 KCAL/MOL
REMARK 922        TOTAL FREE ENERGY PREDICTED BY IDOCK:   -2.96 KCAL/MOL
REMARK 923 INTER-LIGAND FREE ENERGY PREDICTED BY IDOCK:   -2.78 KCAL/MOL
REMARK 924 INTRA-LIGAND FREE ENERGY PREDICTED BY IDOCK:   -0.18 KCAL/MOL
REMARK 927      BINDING AFFINITY PREDICTED BY RF-SCORE:    0.00 PKD
ROOT
HETATM    1  C   UNL     1     -10.729   7.179  71.181  1.00  0.00    -0.252 C  
HETATM    2  C   UNL     1      -9.868   8.462  71.181  1.00  0.00    -0.192 C  
HETATM    3  N   UNL     1      -9.664   8.657  72.623  1.00  0.00    -0.212 NA 
HETATM    4  C   UNL     1     -10.673   9.705  70.760  1.00  0.00    -0.401 C  
HETATM    5  C   UNL     1      -8.492   8.513  73.111  1.00  0.00    -0.016 C  
HETATM    6  H   UNL     1     -10.448   8.904  73.227  1.00  0.00     0.000 HD 
HETATM    7  N   UNL     1      -8.347   8.545  74.454  1.00  0.00    -0.408 NA 
HETATM    8  N   UNL     1      -7.373   8.331  72.381  1.00  0.00    -0.109 NA 
HETATM    9  H1  UNL     1      -7.410   8.430  74.844  1.00  0.00     0.000 HD 
HETATM   10  C   UNL     1      -7.478   8.262  71.091  1.00  0.00    -0.076 C  
HETATM   11  H2  UNL     1      -9.153   8.680  75.064  1.00  0.00     0.000 HD 
HETATM   12  N   UNL     1      -8.639   8.327  70.347  1.00  0.00    -0.131 NA 
HETATM   13  N   UNL     1      -6.292   8.052  70.455  1.00  0.00    -0.036 NA 
HETATM   14  H1  UNL     1      -6.375   7.998  69.440  1.00  0.00     0.000 HD 
HETATM   15  H2  UNL     1      -5.405   7.958  70.948  1.00  0.00     0.000 HD 
ENDROOT
BRANCH  12  16
HETATM   16  C   UNL     1      -8.690   8.385  68.926  1.00  0.00    -0.136 A  
HETATM   17  C   UNL     1      -8.759   7.250  68.100  1.00  0.00    -0.128 A  
HETATM   18  C   UNL     1      -8.668   7.310  66.699  1.00  0.00    -0.136 A  
HETATM   19  C   UNL     1      -8.516   8.533  66.068  1.00  0.00    -0.140 A  
HETATM   20  C   UNL     1      -8.512   9.691  66.828  1.00  0.00    -0.129 A  
HETATM   21 CL   UNL     1      -8.326   8.604  64.364  1.00  0.00    -0.163 Cl 
HETATM   22  C   UNL     1      -8.620   9.611  68.229  1.00  0.00    -0.119 A  
ENDBRANCH  12  16
TORSDOF 1
ENDMDL
MODEL      133
REMARK 921   NORMALIZED FREE ENERGY PREDICTED BY IDOCK:   -2.50 KCAL/MOL
REMARK 922        TOTAL FREE ENERGY PREDICTED BY IDOCK:   -2.88 KCAL/MOL
REMARK 923 INTER-LIGAND FREE ENERGY PREDICTED BY IDOCK:   -2.64 KCAL/MOL
REMARK 924 INTRA-LIGAND FREE ENERGY PREDICTED BY IDOCK:   -0.24 KCAL/MOL
REMARK 927      BINDING AFFINITY PREDICTED BY RF-SCORE:    0.00 PKD
ROOT
HETATM    1  C   UNL     1      -9.048   3.520  67.300  1.00  0.00    -0.194 C  
HETATM    2  C   UNL     1      -7.953   4.580  67.556  1.00  0.00    -0.100 C  
HETATM    3  N   UNL     1      -7.241   4.557  66.271  1.00  0.00    -0.075 NA 
HETATM    4  C   UNL     1      -6.895   4.094  68.563  1.00  0.00    -0.047 C  
HETATM    5  C   UNL     1      -7.300   5.580  65.508  1.00  0.00    -0.073 C  
HETATM    6  H   UNL     1      -6.706   3.735  65.991  1.00  0.00     0.000 HD 
HETATM    7  N   UNL     1      -6.770   5.490  64.268  1.00  0.00    -0.045 NA 
HETATM    8  N   UNL     1      -7.855   6.761  65.848  1.00  0.00    -0.098 NA 
HETATM    9  H1  UNL     1      -6.817   6.307  63.659  1.00  0.00     0.000 HD 
HETATM   10  C   UNL     1      -8.404   6.875  67.017  1.00  0.00    -0.121 C  
HETATM   11  H2  UNL     1      -6.333   4.625  63.949  1.00  0.00     0.000 HD 
HETATM   12  N   UNL     1      -8.516   5.894  67.981  1.00  0.00    -0.111 NA 
HETATM   13  N   UNL     1      -8.955   8.099  67.246  1.00  0.00    -0.136 NA 
HETATM   14  H1  UNL     1      -9.386   8.188  68.166  1.00  0.00     0.000 HD 
HETATM   15  H2  UNL     1      -8.939   8.855  66.563  1.00  0.00     0.000 HD 
ENDROOT
BRANCH  12  16
HETATM   16  C   UNL     1      -9.003   6.106  69.301  1.00  0.00    -0.123 A  
HETATM   17  C   UNL     1     -10.314   5.804  69.708  1.00  0.00    -0.332 A  
HETATM   18  C   UNL     1     -10.826   6.145  70.972  1.00  0.00    -0.338 A  
HETATM   19  C   UNL     1     -10.022   6.799  71.890  1.00  0.00    -0.176 A  
HETATM   20  C   UNL     1      -8.701   7.060  71.568  1.00  0.00    -0.121 A  
HETATM   21 CL   UNL     1     -10.667   7.287  73.404  1.00  0.00    -0.429 Cl 
HETATM   22  C   UNL     1      -8.203   6.696  70.303  1.00  0.00    -0.126 A  
ENDBRANCH  12  16
TORSDOF 1
ENDMDL
MODEL      134
REMARK 921   NORMALIZED FREE ENERGY PREDICTED BY IDOCK:   -2.48 KCAL/MOL
REMARK 922        TOTAL FREE ENERGY PREDICTED BY IDOCK:   -2.86 KCAL/MOL
REMARK 923 INTER-LIGAND FREE ENERGY PREDICTED BY IDOCK:   -2.63 KCAL/MOL
REMARK 924 INTRA-LIGAND FREE ENERGY PREDICTED BY IDOCK:   -0.23 KCAL/MOL
REMARK 927      BINDING AFFINITY PREDICTED BY RF-SCORE:    0.00 PKD
ROOT
HETATM    1  C   UNL     1     -10.729   7.401  67.292  1.00  0.00    -0.379 C  
HETATM    2  C   UNL     1      -9.387   6.730  67.662  1.00  0.00    -0.120 C  
HETATM    3  N   UNL     1      -9.181   7.256  69.019  1.00  0.00    -0.140 NA 
HETATM    4  C   UNL     1      -8.205   7.314  66.866  1.00  0.00    -0.117 C  
HETATM    5  C   UNL     1      -9.241   6.455  70.012  1.00  0.00    -0.156 C  
HETATM    6  H   UNL     1      -8.993   8.247  69.166  1.00  0.00     0.000 HD 
HETATM    7  N   UNL     1      -9.201   6.973  71.260  1.00  0.00    -0.152 NA 
HETATM    8  N   UNL     1      -9.339   5.113  69.913  1.00  0.00    -0.135 NA 
HETATM    9  H1  UNL     1      -9.249   6.333  72.053  1.00  0.00     0.000 HD 
HETATM   10  C   UNL     1      -9.413   4.582  68.732  1.00  0.00    -0.157 C  
HETATM   11  H2  UNL     1      -9.126   7.980  71.405  1.00  0.00     0.000 HD 
HETATM   12  N   UNL     1      -9.431   5.247  67.522  1.00  0.00    -0.120 NA 
HETATM   13  N   UNL     1      -9.535   3.226  68.749  1.00  0.00    -0.165 NA 
HETATM   14  H1  UNL     1      -9.594   2.809  67.820  1.00  0.00     0.000 HD 
HETATM   15  H2  UNL     1      -9.566   2.679  69.608  1.00  0.00     0.000 HD 
ENDROOT
BRANCH  12  16
HETATM   16  C   UNL     1      -9.374   4.614  66.249  1.00  0.00    -0.151 A  
HETATM   17  C   UNL     1     -10.484   4.469  65.398  1.00  0.00    -0.212 A  
HETATM   18  C   UNL     1     -10.449   3.722  64.208  1.00  0.00    -0.252 A  
HETATM   19  C   UNL     1      -9.277   3.096  63.818  1.00  0.00    -0.101 A  
HETATM   20  C   UNL     1      -8.134   3.262  64.583  1.00  0.00    -0.090 A  
HETATM   21 CL   UNL     1      -9.252   2.119  62.407  1.00  0.00    -0.080 Cl 
HETATM   22  C   UNL     1      -8.185   4.027  65.763  1.00  0.00    -0.105 A  
ENDBRANCH  12  16
TORSDOF 1
ENDMDL
MODEL      135
REMARK 921   NORMALIZED FREE ENERGY PREDICTED BY IDOCK:   -2.45 KCAL/MOL
REMARK 922        TOTAL FREE ENERGY PREDICTED BY IDOCK:   -2.84 KCAL/MOL
REMARK 923 INTER-LIGAND FREE ENERGY PREDICTED BY IDOCK:   -2.59 KCAL/MOL
REMARK 924 INTRA-LIGAND FREE ENERGY PREDICTED BY IDOCK:   -0.24 KCAL/MOL
REMARK 927      BINDING AFFINITY PREDICTED BY RF-SCORE:    0.00 PKD
ROOT
HETATM    1  C   UNL     1     -10.429   6.782  66.854  1.00  0.00    -0.350 C  
HETATM    2  C   UNL     1      -9.557   7.300  68.020  1.00  0.00    -0.139 C  
HETATM    3  N   UNL     1     -10.257   8.549  68.353  1.00  0.00    -0.199 NA 
HETATM    4  C   UNL     1      -8.173   7.779  67.544  1.00  0.00    -0.124 C  
HETATM    5  C   UNL     1     -10.864   8.642  69.472  1.00  0.00    -0.129 C  
HETATM    6  H   UNL     1     -10.257   9.331  67.698  1.00  0.00     0.000 HD 
HETATM    7  N   UNL     1     -11.628   9.734  69.701  1.00  0.00    -0.448 NA 
HETATM    8  N   UNL     1     -10.801   7.726  70.460  1.00  0.00    -0.238 NA 
HETATM    9  H1  UNL     1     -12.112   9.809  70.596  1.00  0.00     0.000 HD 
HETATM   10  C   UNL     1     -10.105   6.650  70.264  1.00  0.00    -0.179 C  
HETATM   11  H2  UNL     1     -11.717  10.466  68.996  1.00  0.00     0.000 HD 
HETATM   12  N   UNL     1      -9.418   6.302  69.118  1.00  0.00    -0.133 NA 
HETATM   13  N   UNL     1     -10.131   5.783  71.313  1.00  0.00    -0.194 NA 
HETATM   14  H1  UNL     1      -9.583   4.936  71.158  1.00  0.00     0.000 HD 
HETATM   15  H2  UNL     1     -10.648   5.962  72.173  1.00  0.00     0.000 HD 
ENDROOT
BRANCH  12  16
HETATM   16  C   UNL     1      -8.556   5.176  69.000  1.00  0.00    -0.089 A  
HETATM   17  C   UNL     1      -7.228   5.158  69.460  1.00  0.00    -0.057 A  
HETATM   18  C   UNL     1      -6.343   4.094  69.215  1.00  0.00    -0.029 A  
HETATM   19  C   UNL     1      -6.772   2.987  68.502  1.00  0.00    -0.040 A  
HETATM   20  C   UNL     1      -8.092   2.921  68.086  1.00  0.00    -0.070 A  
HETATM   21 CL   UNL     1      -5.673   1.721  68.135  1.00  0.00    -0.018 Cl 
HETATM   22  C   UNL     1      -8.966   3.990  68.354  1.00  0.00    -0.159 A  
ENDBRANCH  12  16
TORSDOF 1
ENDMDL
MODEL      136
REMARK 921   NORMALIZED FREE ENERGY PREDICTED BY IDOCK:   -2.40 KCAL/MOL
REMARK 922        TOTAL FREE ENERGY PREDICTED BY IDOCK:   -2.78 KCAL/MOL
REMARK 923 INTER-LIGAND FREE ENERGY PREDICTED BY IDOCK:   -3.75 KCAL/MOL
REMARK 924 INTRA-LIGAND FREE ENERGY PREDICTED BY IDOCK:    0.97 KCAL/MOL
REMARK 927      BINDING AFFINITY PREDICTED BY RF-SCORE:    0.00 PKD
ROOT
HETATM    1  C   UNL     1     -10.957  10.102  67.012  1.00  0.00    -0.162 C  
HETATM    2  C   UNL     1     -10.627  10.489  68.471  1.00  0.00    -0.206 C  
HETATM    3  N   UNL     1     -10.366   9.166  69.054  1.00  0.00    -0.211 NA 
HETATM    4  C   UNL     1     -11.868  10.983  69.238  1.00  0.00    -0.411 C  
HETATM    5  C   UNL     1      -9.180   8.874  69.428  1.00  0.00    -0.146 C  
HETATM    6  H   UNL     1     -11.122   8.490  69.160  1.00  0.00     0.000 HD 
HETATM    7  N   UNL     1      -8.924   7.606  69.821  1.00  0.00    -0.140 NA 
HETATM    8  N   UNL     1      -8.150   9.743  69.466  1.00  0.00    -0.125 NA 
HETATM    9  H1  UNL     1      -7.977   7.373  70.120  1.00  0.00     0.000 HD 
HETATM   10  C   UNL     1      -8.350  10.960  69.066  1.00  0.00    -0.114 C  
HETATM   11  H2  UNL     1      -9.659   6.899  69.818  1.00  0.00     0.000 HD 
HETATM   12  N   UNL     1      -9.523  11.486  68.563  1.00  0.00    -0.187 NA 
HETATM   13  N   UNL     1      -7.239  11.744  69.122  1.00  0.00    -0.261 NA 
HETATM   14  H1  UNL     1      -7.396  12.701  68.806  1.00  0.00     0.000 HD 
HETATM   15  H2  UNL     1      -6.334  11.407  69.448  1.00  0.00     0.000 HD 
ENDROOT
BRANCH  12  16
HETATM   16  C   UNL     1      -9.731  12.862  68.266  1.00  0.00    -0.217 A  
HETATM   17  C   UNL     1     -10.937  13.541  68.516  1.00  0.00    -0.291 A  
HETATM   18  C   UNL     1     -11.180  14.859  68.093  1.00  0.00    -0.310 A  
HETATM   19  C   UNL     1     -10.201  15.558  67.408  1.00  0.00    -0.255 A  
HETATM   20  C   UNL     1      -8.968  14.963  67.196  1.00  0.00    -0.230 A  
HETATM   21 CL   UNL     1     -10.522  17.139  66.822  1.00  0.00    -0.297 Cl 
HETATM   22  C   UNL     1      -8.739  13.647  67.641  1.00  0.00    -0.182 A  
ENDBRANCH  12  16
TORSDOF 1
ENDMDL
MODEL      137
REMARK 921   NORMALIZED FREE ENERGY PREDICTED BY IDOCK:   -2.29 KCAL/MOL
REMARK 922        TOTAL FREE ENERGY PREDICTED BY IDOCK:   -2.67 KCAL/MOL
REMARK 923 INTER-LIGAND FREE ENERGY PREDICTED BY IDOCK:   -2.44 KCAL/MOL
REMARK 924 INTRA-LIGAND FREE ENERGY PREDICTED BY IDOCK:   -0.22 KCAL/MOL
REMARK 927      BINDING AFFINITY PREDICTED BY RF-SCORE:    0.00 PKD
ROOT
HETATM    1  C   UNL     1     -10.302   7.975  71.398  1.00  0.00    -0.243 C  
HETATM    2  C   UNL     1      -8.866   7.600  70.966  1.00  0.00    -0.142 C  
HETATM    3  N   UNL     1      -8.479   8.807  70.222  1.00  0.00    -0.137 NA 
HETATM    4  C   UNL     1      -8.849   6.495  69.894  1.00  0.00    -0.143 C  
HETATM    5  C   UNL     1      -7.565   9.563  70.696  1.00  0.00    -0.122 C  
HETATM    6  H   UNL     1      -8.934   9.037  69.339  1.00  0.00     0.000 HD 
HETATM    7  N   UNL     1      -7.325  10.744  70.082  1.00  0.00    -0.446 NA 
HETATM    8  N   UNL     1      -6.808   9.272  71.773  1.00  0.00    -0.312 NA 
HETATM    9  H1  UNL     1      -6.595  11.347  70.460  1.00  0.00     0.000 HD 
HETATM   10  C   UNL     1      -7.031   8.163  72.406  1.00  0.00    -0.087 C  
HETATM   11  H2  UNL     1      -7.862  11.024  69.262  1.00  0.00     0.000 HD 
HETATM   12  N   UNL     1      -8.001   7.224  72.120  1.00  0.00    -0.093 NA 
HETATM   13  N   UNL     1      -6.228   7.981  73.491  1.00  0.00    -0.077 NA 
HETATM   14  H1  UNL     1      -6.405   7.109  73.990  1.00  0.00     0.000 HD 
HETATM   15  H2  UNL     1      -5.518   8.654  73.778  1.00  0.00     0.000 HD 
ENDROOT
BRANCH  12  16
HETATM   16  C   UNL     1      -8.117   5.958  72.760  1.00  0.00    -0.104 A  
HETATM   17  C   UNL     1      -7.414   4.810  72.355  1.00  0.00    -0.085 A  
HETATM   18  C   UNL     1      -7.639   3.536  72.903  1.00  0.00    -0.060 A  
HETATM   19  C   UNL     1      -8.583   3.369  73.902  1.00  0.00    -0.081 A  
HETATM   20  C   UNL     1      -9.255   4.478  74.389  1.00  0.00    -0.118 A  
HETATM   21 CL   UNL     1      -8.915   1.802  74.518  1.00  0.00    -0.066 Cl 
HETATM   22  C   UNL     1      -9.005   5.748  73.838  1.00  0.00    -0.126 A  
ENDBRANCH  12  16
TORSDOF 1
ENDMDL
MODEL      138
REMARK 921   NORMALIZED FREE ENERGY PREDICTED BY IDOCK:   -2.29 KCAL/MOL
REMARK 922        TOTAL FREE ENERGY PREDICTED BY IDOCK:   -2.66 KCAL/MOL
REMARK 923 INTER-LIGAND FREE ENERGY PREDICTED BY IDOCK:   -3.94 KCAL/MOL
REMARK 924 INTRA-LIGAND FREE ENERGY PREDICTED BY IDOCK:    1.28 KCAL/MOL
REMARK 927      BINDING AFFINITY PREDICTED BY RF-SCORE:    0.00 PKD
ROOT
HETATM    1  C   UNL     1      -9.696  14.629  68.950  1.00  0.00    -0.196 C  
HETATM    2  C   UNL     1      -8.515  14.108  68.100  1.00  0.00    -0.173 C  
HETATM    3  N   UNL     1      -7.417  14.193  69.073  1.00  0.00    -0.216 NA 
HETATM    4  C   UNL     1      -8.102  15.105  67.002  1.00  0.00    -0.240 C  
HETATM    5  C   UNL     1      -6.884  13.115  69.505  1.00  0.00     0.092 C  
HETATM    6  H   UNL     1      -7.085  15.100  69.399  1.00  0.00     0.000 HD 
HETATM    7  N   UNL     1      -5.982  13.201  70.508  1.00  0.00    -0.325 NA 
HETATM    8  N   UNL     1      -7.151  11.882  69.031  1.00  0.00    -0.110 NA 
HETATM    9  H1  UNL     1      -5.556  12.341  70.853  1.00  0.00     0.000 HD 
HETATM   10  C   UNL     1      -8.035  11.756  68.091  1.00  0.00    -0.146 C  
HETATM   11  H2  UNL     1      -5.734  14.105  70.912  1.00  0.00     0.000 HD 
HETATM   12  N   UNL     1      -8.782  12.763  67.514  1.00  0.00    -0.174 NA 
HETATM   13  N   UNL     1      -8.245  10.468  67.705  1.00  0.00    -0.111 NA 
HETATM   14  H1  UNL     1      -8.941  10.370  66.965  1.00  0.00     0.000 HD 
HETATM   15  H2  UNL     1      -7.753   9.675  68.116  1.00  0.00     0.000 HD 
ENDROOT
BRANCH  12  16
HETATM   16  C   UNL     1      -9.639  12.595  66.390  1.00  0.00    -0.248 A  
HETATM   17  C   UNL     1     -10.297  13.655  65.744  1.00  0.00    -0.304 A  
HETATM   18  C   UNL     1     -11.248  13.466  64.726  1.00  0.00    -0.360 A  
HETATM   19  C   UNL     1     -11.566  12.185  64.306  1.00  0.00    -0.370 A  
HETATM   20  C   UNL     1     -10.897  11.106  64.860  1.00  0.00    -0.261 A  
HETATM   21 CL   UNL     1     -12.782  11.946  63.119  1.00  0.00    -0.522 Cl 
HETATM   22  C   UNL     1      -9.937  11.318  65.867  1.00  0.00    -0.277 A  
ENDBRANCH  12  16
TORSDOF 1
ENDMDL
MODEL      139
REMARK 921   NORMALIZED FREE ENERGY PREDICTED BY IDOCK:   -2.25 KCAL/MOL
REMARK 922        TOTAL FREE ENERGY PREDICTED BY IDOCK:   -2.62 KCAL/MOL
REMARK 923 INTER-LIGAND FREE ENERGY PREDICTED BY IDOCK:   -3.91 KCAL/MOL
REMARK 924 INTRA-LIGAND FREE ENERGY PREDICTED BY IDOCK:    1.29 KCAL/MOL
REMARK 927      BINDING AFFINITY PREDICTED BY RF-SCORE:    0.00 PKD
ROOT
HETATM    1  C   UNL     1      -8.693   9.099  70.976  1.00  0.00    -0.251 C  
HETATM    2  C   UNL     1     -10.153   8.839  70.539  1.00  0.00    -0.195 C  
HETATM    3  N   UNL     1     -10.782  10.114  70.910  1.00  0.00    -0.347 NA 
HETATM    4  C   UNL     1     -10.858   7.811  71.443  1.00  0.00    -0.257 C  
HETATM    5  C   UNL     1     -11.209  10.889  69.989  1.00  0.00    -0.263 C  
HETATM    6  H   UNL     1     -10.878  10.376  71.891  1.00  0.00     0.000 HD 
HETATM    7  N   UNL     1     -11.647  12.120  70.335  1.00  0.00    -0.496 NA 
HETATM    8  N   UNL     1     -11.261  10.570  68.679  1.00  0.00    -0.268 NA 
HETATM    9  H1  UNL     1     -11.988  12.739  69.599  1.00  0.00     0.000 HD 
HETATM   10  C   UNL     1     -10.819   9.410  68.305  1.00  0.00    -0.112 C  
HETATM   11  H2  UNL     1     -11.636  12.423  71.309  1.00  0.00     0.000 HD 
HETATM   12  N   UNL     1     -10.258   8.437  69.107  1.00  0.00    -0.207 NA 
HETATM   13  N   UNL     1     -10.895   9.203  66.961  1.00  0.00    -0.257 NA 
HETATM   14  H1  UNL     1     -10.547   8.291  66.667  1.00  0.00     0.000 HD 
HETATM   15  H2  UNL     1     -11.264   9.895  66.310  1.00  0.00     0.000 HD 
ENDROOT
BRANCH  12  16
HETATM   16  C   UNL     1      -9.915   7.127  68.671  1.00  0.00    -0.159 A  
HETATM   17  C   UNL     1     -10.044   6.687  67.342  1.00  0.00    -0.211 A  
HETATM   18  C   UNL     1      -9.835   5.353  66.949  1.00  0.00    -0.186 A  
HETATM   19  C   UNL     1      -9.471   4.404  67.889  1.00  0.00    -0.161 A  
HETATM   20  C   UNL     1      -9.261   4.796  69.201  1.00  0.00    -0.175 A  
HETATM   21 CL   UNL     1      -9.292   2.761  67.426  1.00  0.00    -0.208 Cl 
HETATM   22  C   UNL     1      -9.460   6.139  69.572  1.00  0.00    -0.156 A  
ENDBRANCH  12  16
TORSDOF 1
ENDMDL
MODEL      140
REMARK 921   NORMALIZED FREE ENERGY PREDICTED BY IDOCK:   -1.99 KCAL/MOL
REMARK 922        TOTAL FREE ENERGY PREDICTED BY IDOCK:   -2.34 KCAL/MOL
REMARK 923 INTER-LIGAND FREE ENERGY PREDICTED BY IDOCK:   -2.18 KCAL/MOL
REMARK 924 INTRA-LIGAND FREE ENERGY PREDICTED BY IDOCK:   -0.16 KCAL/MOL
REMARK 927      BINDING AFFINITY PREDICTED BY RF-SCORE:    0.00 PKD
ROOT
HETATM    1  C   UNL     1     -10.490   7.173  70.877  1.00  0.00    -0.225 C  
HETATM    2  C   UNL     1      -9.068   7.417  70.322  1.00  0.00    -0.151 C  
HETATM    3  N   UNL     1      -8.376   7.882  71.532  1.00  0.00    -0.108 NA 
HETATM    4  C   UNL     1      -9.010   8.636  69.383  1.00  0.00    -0.145 C  
HETATM    5  C   UNL     1      -7.468   7.147  72.049  1.00  0.00    -0.085 C  
HETATM    6  H   UNL     1      -8.617   8.779  71.953  1.00  0.00     0.000 HD 
HETATM    7  N   UNL     1      -6.947   7.514  73.242  1.00  0.00    -0.066 NA 
HETATM    8  N   UNL     1      -6.978   6.022  71.491  1.00  0.00    -0.074 NA 
HETATM    9  H1  UNL     1      -6.221   6.927  73.655  1.00  0.00     0.000 HD 
HETATM   10  C   UNL     1      -7.477   5.621  70.363  1.00  0.00    -0.080 C  
HETATM   11  H2  UNL     1      -7.272   8.355  73.717  1.00  0.00     0.000 HD 
HETATM   12  N   UNL     1      -8.501   6.212  69.652  1.00  0.00    -0.126 NA 
HETATM   13  N   UNL     1      -6.929   4.463  69.903  1.00  0.00    -0.041 NA 
HETATM   14  H1  UNL     1      -7.321   4.148  69.016  1.00  0.00     0.000 HD 
HETATM   15  H2  UNL     1      -6.195   3.957  70.399  1.00  0.00     0.000 HD 
ENDROOT
BRANCH  12  16
HETATM   16  C   UNL     1      -8.919   5.814  68.351  1.00  0.00    -0.111 A  
HETATM   17  C   UNL     1     -10.171   5.236  68.076  1.00  0.00    -0.204 A  
HETATM   18  C   UNL     1     -10.520   4.719  66.817  1.00  0.00    -0.180 A  
HETATM   19  C   UNL     1      -9.616   4.778  65.769  1.00  0.00    -0.179 A  
HETATM   20  C   UNL     1      -8.394   5.400  65.965  1.00  0.00    -0.120 A  
HETATM   21 CL   UNL     1     -10.010   4.079  64.253  1.00  0.00    -0.184 Cl 
HETATM   22  C   UNL     1      -8.069   5.925  67.230  1.00  0.00    -0.102 A  
ENDBRANCH  12  16
TORSDOF 1
ENDMDL
MODEL      141
REMARK 921   NORMALIZED FREE ENERGY PREDICTED BY IDOCK:   -1.98 KCAL/MOL
REMARK 922        TOTAL FREE ENERGY PREDICTED BY IDOCK:   -2.34 KCAL/MOL
REMARK 923 INTER-LIGAND FREE ENERGY PREDICTED BY IDOCK:   -2.13 KCAL/MOL
REMARK 924 INTRA-LIGAND FREE ENERGY PREDICTED BY IDOCK:   -0.21 KCAL/MOL
REMARK 927      BINDING AFFINITY PREDICTED BY RF-SCORE:    0.00 PKD
ROOT
HETATM    1  C   UNL     1     -14.130  14.958  70.640  1.00  0.00     0.311 C  
HETATM    2  C   UNL     1     -12.842  14.169  70.964  1.00  0.00    -0.351 C  
HETATM    3  N   UNL     1     -13.285  13.381  72.123  1.00  0.00    -0.451 NA 
HETATM    4  C   UNL     1     -11.735  15.070  71.543  1.00  0.00    -0.426 C  
HETATM    5  C   UNL     1     -13.394  12.114  72.008  1.00  0.00    -0.365 C  
HETATM    6  H   UNL     1     -13.503  13.841  73.006  1.00  0.00     0.000 HD 
HETATM    7  N   UNL     1     -13.946  11.421  73.030  1.00  0.00     1.044 NA 
HETATM    8  N   UNL     1     -12.994  11.401  70.936  1.00  0.00    -0.204 NA 
HETATM    9  H1  UNL     1     -14.032  10.408  72.939  1.00  0.00     0.000 HD 
HETATM   10  C   UNL     1     -12.490  12.035  69.923  1.00  0.00     0.048 C  
HETATM   11  H2  UNL     1     -14.268  11.899  73.871  1.00  0.00     0.000 HD 
HETATM   12  N   UNL     1     -12.332  13.400  69.792  1.00  0.00    -0.219 NA 
HETATM   13  N   UNL     1     -12.144  11.223  68.886  1.00  0.00    -0.502 NA 
HETATM   14  H1  UNL     1     -11.748  11.722  68.090  1.00  0.00     0.000 HD 
HETATM   15  H2  UNL     1     -12.269  10.211  68.904  1.00  0.00     0.000 HD 
ENDROOT
BRANCH  12  16
HETATM   16  C   UNL     1     -11.648  14.037  68.720  1.00  0.00    -0.331 A  
HETATM   17  C   UNL     1     -12.282  14.502  67.555  1.00  0.00    -0.156 A  
HETATM   18  C   UNL     1     -11.582  15.003  66.444  1.00  0.00    -0.172 A  
HETATM   19  C   UNL     1     -10.199  15.069  66.471  1.00  0.00    -0.275 A  
HETATM   20  C   UNL     1      -9.525  14.690  67.621  1.00  0.00    -0.205 A  
HETATM   21 CL   UNL     1      -9.337  15.607  65.088  1.00  0.00     0.340 Cl 
HETATM   22  C   UNL     1     -10.246  14.206  68.728  1.00  0.00    -0.216 A  
ENDBRANCH  12  16
TORSDOF 1
ENDMDL
MODEL      142
REMARK 921   NORMALIZED FREE ENERGY PREDICTED BY IDOCK:   -1.84 KCAL/MOL
REMARK 922        TOTAL FREE ENERGY PREDICTED BY IDOCK:   -2.18 KCAL/MOL
REMARK 923 INTER-LIGAND FREE ENERGY PREDICTED BY IDOCK:   -2.85 KCAL/MOL
REMARK 924 INTRA-LIGAND FREE ENERGY PREDICTED BY IDOCK:    0.67 KCAL/MOL
REMARK 927      BINDING AFFINITY PREDICTED BY RF-SCORE:    0.00 PKD
ROOT
HETATM    1  C   UNL     1      -9.454   7.352  71.491  1.00  0.00    -0.162 C  
HETATM    2  C   UNL     1      -8.520   6.949  70.327  1.00  0.00    -0.139 C  
HETATM    3  N   UNL     1      -8.010   5.661  70.818  1.00  0.00    -0.110 NA 
HETATM    4  C   UNL     1      -7.261   7.833  70.257  1.00  0.00    -0.062 C  
HETATM    5  C   UNL     1      -8.345   4.588  70.212  1.00  0.00    -0.074 C  
HETATM    6  H   UNL     1      -7.395   5.625  71.631  1.00  0.00     0.000 HD 
HETATM    7  N   UNL     1      -7.993   3.403  70.761  1.00  0.00    -0.050 NA 
HETATM    8  N   UNL     1      -9.028   4.542  69.051  1.00  0.00    -0.102 NA 
HETATM    9  H1  UNL     1      -8.261   2.546  70.277  1.00  0.00     0.000 HD 
HETATM   10  C   UNL     1      -9.411   5.657  68.512  1.00  0.00    -0.123 C  
HETATM   11  H2  UNL     1      -7.474   3.368  71.638  1.00  0.00     0.000 HD 
HETATM   12  N   UNL     1      -9.221   6.929  69.012  1.00  0.00    -0.138 NA 
HETATM   13  N   UNL     1     -10.114   5.494  67.357  1.00  0.00    -0.162 NA 
HETATM   14  H1  UNL     1     -10.415   6.371  66.933  1.00  0.00     0.000 HD 
HETATM   15  H2  UNL     1     -10.321   4.581  66.954  1.00  0.00     0.000 HD 
ENDROOT
BRANCH  12  16
HETATM   16  C   UNL     1      -9.537   8.129  68.315  1.00  0.00    -0.144 A  
HETATM   17  C   UNL     1      -9.935   9.319  68.950  1.00  0.00    -0.190 A  
HETATM   18  C   UNL     1     -10.378  10.454  68.250  1.00  0.00    -0.198 A  
HETATM   19  C   UNL     1     -10.426  10.439  66.866  1.00  0.00    -0.240 A  
HETATM   20  C   UNL     1      -9.980   9.317  66.186  1.00  0.00    -0.348 A  
HETATM   21 CL   UNL     1     -11.040  11.794  66.011  1.00  0.00    -0.367 Cl 
HETATM   22  C   UNL     1      -9.524   8.196  66.905  1.00  0.00    -0.244 A  
ENDBRANCH  12  16
TORSDOF 1
ENDMDL
MODEL      143
REMARK 921   NORMALIZED FREE ENERGY PREDICTED BY IDOCK:   -1.76 KCAL/MOL
REMARK 922        TOTAL FREE ENERGY PREDICTED BY IDOCK:   -2.10 KCAL/MOL
REMARK 923 INTER-LIGAND FREE ENERGY PREDICTED BY IDOCK:   -1.86 KCAL/MOL
REMARK 924 INTRA-LIGAND FREE ENERGY PREDICTED BY IDOCK:   -0.24 KCAL/MOL
REMARK 927      BINDING AFFINITY PREDICTED BY RF-SCORE:    0.00 PKD
ROOT
HETATM    1  C   UNL     1      -9.051   9.710  70.306  1.00  0.00    -0.272 C  
HETATM    2  C   UNL     1      -8.104   8.635  69.727  1.00  0.00    -0.114 C  
HETATM    3  N   UNL     1      -7.257   9.457  68.852  1.00  0.00    -0.071 NA 
HETATM    4  C   UNL     1      -8.824   7.689  68.748  1.00  0.00    -0.131 C  
HETATM    5  C   UNL     1      -6.024   9.615  69.148  1.00  0.00    -0.034 C  
HETATM    6  H   UNL     1      -7.647   9.894  68.018  1.00  0.00     0.000 HD 
HETATM    7  N   UNL     1      -5.296  10.493  68.423  1.00  0.00    -0.034 NA 
HETATM    8  N   UNL     1      -5.383   8.966  70.141  1.00  0.00    -0.028 NA 
HETATM    9  H1  UNL     1      -4.312  10.619  68.660  1.00  0.00     0.000 HD 
HETATM   10  C   UNL     1      -6.057   8.141  70.880  1.00  0.00    -0.033 C  
HETATM   11  H2  UNL     1      -5.720  11.016  67.657  1.00  0.00     0.000 HD 
HETATM   12  N   UNL     1      -7.405   7.856  70.789  1.00  0.00    -0.060 NA 
HETATM   13  N   UNL     1      -5.319   7.561  71.866  1.00  0.00    -0.035 NA 
HETATM   14  H1  UNL     1      -5.850   6.912  72.447  1.00  0.00     0.000 HD 
HETATM   15  H2  UNL     1      -4.329   7.756  72.010  1.00  0.00     0.000 HD 
ENDROOT
BRANCH  12  16
HETATM   16  C   UNL     1      -8.070   6.841  71.532  1.00  0.00    -0.110 A  
HETATM   17  C   UNL     1      -8.055   5.480  71.182  1.00  0.00    -0.112 A  
HETATM   18  C   UNL     1      -8.827   4.507  71.840  1.00  0.00    -0.137 A  
HETATM   19  C   UNL     1      -9.643   4.870  72.899  1.00  0.00    -0.137 A  
HETATM   20  C   UNL     1      -9.643   6.186  73.331  1.00  0.00    -0.151 A  
HETATM   21 CL   UNL     1     -10.645   3.700  73.654  1.00  0.00    -0.257 Cl 
HETATM   22  C   UNL     1      -8.851   7.143  72.669  1.00  0.00    -0.143 A  
ENDBRANCH  12  16
TORSDOF 1
ENDMDL
MODEL      144
REMARK 921   NORMALIZED FREE ENERGY PREDICTED BY IDOCK:   -1.38 KCAL/MOL
REMARK 922        TOTAL FREE ENERGY PREDICTED BY IDOCK:   -1.70 KCAL/MOL
REMARK 923 INTER-LIGAND FREE ENERGY PREDICTED BY IDOCK:   -1.48 KCAL/MOL
REMARK 924 INTRA-LIGAND FREE ENERGY PREDICTED BY IDOCK:   -0.22 KCAL/MOL
REMARK 927      BINDING AFFINITY PREDICTED BY RF-SCORE:    0.00 PKD
ROOT
HETATM    1  C   UNL     1      -8.885  15.067  70.509  1.00  0.00     1.405 C  
HETATM    2  C   UNL     1      -8.042  14.693  69.270  1.00  0.00    -0.030 C  
HETATM    3  N   UNL     1      -7.895  13.244  69.463  1.00  0.00     0.088 NA 
HETATM    4  C   UNL     1      -6.597  15.217  69.367  1.00  0.00    -0.152 C  
HETATM    5  C   UNL     1      -8.470  12.446  68.647  1.00  0.00     0.019 C  
HETATM    6  H   UNL     1      -7.342  12.879  70.238  1.00  0.00     0.000 HD 
HETATM    7  N   UNL     1      -8.454  11.123  68.923  1.00  0.00    -0.295 NA 
HETATM    8  N   UNL     1      -9.099  12.825  67.516  1.00  0.00    -0.184 NA 
HETATM    9  H1  UNL     1      -8.913  10.486  68.271  1.00  0.00     0.000 HD 
HETATM   10  C   UNL     1      -9.163  14.089  67.236  1.00  0.00    -0.230 C  
HETATM   11  H2  UNL     1      -7.995  10.769  69.762  1.00  0.00     0.000 HD 
HETATM   12  N   UNL     1      -8.674  15.134  67.993  1.00  0.00    -0.162 NA 
HETATM   13  N   UNL     1      -9.841  14.361  66.086  1.00  0.00    -0.307 NA 
HETATM   14  H1  UNL     1      -9.891  15.356  65.866  1.00  0.00     0.000 HD 
HETATM   15  H2  UNL     1     -10.258  13.639  65.501  1.00  0.00     0.000 HD 
ENDROOT
BRANCH  12  16
HETATM   16  C   UNL     1      -8.647  16.494  67.577  1.00  0.00    -0.177 A  
HETATM   17  C   UNL     1      -7.757  16.998  66.613  1.00  0.00    -0.302 A  
HETATM   18  C   UNL     1      -7.644  18.366  66.310  1.00  0.00    -0.289 A  
HETATM   19  C   UNL     1      -8.443  19.288  66.964  1.00  0.00    -0.284 A  
HETATM   20  C   UNL     1      -9.387  18.840  67.873  1.00  0.00    -0.331 A  
HETATM   21 CL   UNL     1      -8.253  20.965  66.653  1.00  0.00     0.043 Cl 
HETATM   22  C   UNL     1      -9.495  17.465  68.152  1.00  0.00    -0.288 A  
ENDBRANCH  12  16
TORSDOF 1
ENDMDL
MODEL      145
REMARK 921   NORMALIZED FREE ENERGY PREDICTED BY IDOCK:   -1.17 KCAL/MOL
REMARK 922        TOTAL FREE ENERGY PREDICTED BY IDOCK:   -1.47 KCAL/MOL
REMARK 923 INTER-LIGAND FREE ENERGY PREDICTED BY IDOCK:   -1.23 KCAL/MOL
REMARK 924 INTRA-LIGAND FREE ENERGY PREDICTED BY IDOCK:   -0.24 KCAL/MOL
REMARK 927      BINDING AFFINITY PREDICTED BY RF-SCORE:    0.00 PKD
ROOT
HETATM    1  C   UNL     1      -6.706  16.510  69.612  1.00  0.00    -0.126 C  
HETATM    2  C   UNL     1      -7.797  17.260  68.815  1.00  0.00    -0.254 C  
HETATM    3  N   UNL     1      -7.135  18.553  68.592  1.00  0.00    -0.272 NA 
HETATM    4  C   UNL     1      -9.012  17.624  69.690  1.00  0.00     0.926 C  
HETATM    5  C   UNL     1      -6.798  18.882  67.404  1.00  0.00    -0.200 C  
HETATM    6  H   UNL     1      -6.948  19.179  69.374  1.00  0.00     0.000 HD 
HETATM    7  N   UNL     1      -6.058  20.000  67.233  1.00  0.00    -0.179 NA 
HETATM    8  N   UNL     1      -7.130  18.195  66.293  1.00  0.00    -0.241 NA 
HETATM    9  H1  UNL     1      -5.789  20.263  66.284  1.00  0.00     0.000 HD 
HETATM   10  C   UNL     1      -7.812  17.099  66.421  1.00  0.00    -0.317 C  
HETATM   11  H2  UNL     1      -5.774  20.566  68.032  1.00  0.00     0.000 HD 
HETATM   12  N   UNL     1      -8.232  16.516  67.599  1.00  0.00    -0.156 NA 
HETATM   13  N   UNL     1      -8.069  16.473  65.239  1.00  0.00     1.390 NA 
HETATM   14  H1  UNL     1      -8.605  15.612  65.341  1.00  0.00     0.000 HD 
HETATM   15  H2  UNL     1      -7.755  16.832  64.338  1.00  0.00     0.000 HD 
ENDROOT
BRANCH  12  16
HETATM   16  C   UNL     1      -9.096  15.388  67.682  1.00  0.00    -0.182 A  
HETATM   17  C   UNL     1     -10.492  15.461  67.536  1.00  0.00    -0.275 A  
HETATM   18  C   UNL     1     -11.347  14.368  67.757  1.00  0.00    -0.331 A  
HETATM   19  C   UNL     1     -10.821  13.140  68.123  1.00  0.00    -0.251 A  
HETATM   20  C   UNL     1      -9.447  12.993  68.213  1.00  0.00    -0.208 A  
HETATM   21 CL   UNL     1     -11.867  11.825  68.470  1.00  0.00    -0.384 Cl 
HETATM   22  C   UNL     1      -8.606  14.096  67.973  1.00  0.00    -0.172 A  
ENDBRANCH  12  16
TORSDOF 1
ENDMDL
MODEL      146
REMARK 921   NORMALIZED FREE ENERGY PREDICTED BY IDOCK:   -1.00 KCAL/MOL
REMARK 922        TOTAL FREE ENERGY PREDICTED BY IDOCK:   -1.30 KCAL/MOL
REMARK 923 INTER-LIGAND FREE ENERGY PREDICTED BY IDOCK:   -2.00 KCAL/MOL
REMARK 924 INTRA-LIGAND FREE ENERGY PREDICTED BY IDOCK:    0.71 KCAL/MOL
REMARK 927      BINDING AFFINITY PREDICTED BY RF-SCORE:    0.00 PKD
ROOT
HETATM    1  C   UNL     1      -9.207   4.698  71.303  1.00  0.00    -0.191 C  
HETATM    2  C   UNL     1     -10.107   5.786  70.676  1.00  0.00    -0.203 C  
HETATM    3  N   UNL     1     -11.414   5.422  71.240  1.00  0.00     0.238 NA 
HETATM    4  C   UNL     1     -10.298   5.584  69.162  1.00  0.00    -0.318 C  
HETATM    5  C   UNL     1     -11.969   6.205  72.082  1.00  0.00    -0.260 C  
HETATM    6  H   UNL     1     -11.873   4.554  70.962  1.00  0.00     0.000 HD 
HETATM    7  N   UNL     1     -13.093   5.788  72.705  1.00  0.00    -0.052 NA 
HETATM    8  N   UNL     1     -11.516   7.435  72.402  1.00  0.00    -0.292 NA 
HETATM    9  H1  UNL     1     -13.536   6.414  73.378  1.00  0.00     0.000 HD 
HETATM   10  C   UNL     1     -10.422   7.856  71.850  1.00  0.00    -0.228 C  
HETATM   11  H2  UNL     1     -13.489   4.869  72.508  1.00  0.00     0.000 HD 
HETATM   12  N   UNL     1      -9.620   7.166  70.963  1.00  0.00    -0.159 NA 
HETATM   13  N   UNL     1     -10.043   9.097  72.262  1.00  0.00     0.028 NA 
HETATM   14  H1  UNL     1      -9.181   9.428  71.827  1.00  0.00     0.000 HD 
HETATM   15  H2  UNL     1     -10.570   9.644  72.942  1.00  0.00     0.000 HD 
ENDROOT
BRANCH  12  16
HETATM   16  C   UNL     1      -8.504   7.722  70.278  1.00  0.00    -0.133 A  
HETATM   17  C   UNL     1      -8.396   9.081  69.935  1.00  0.00    -0.134 A  
HETATM   18  C   UNL     1      -7.357   9.594  69.139  1.00  0.00    -0.077 A  
HETATM   19  C   UNL     1      -6.368   8.750  68.663  1.00  0.00    -0.053 A  
HETATM   20  C   UNL     1      -6.386   7.414  69.028  1.00  0.00    -0.039 A  
HETATM   21 CL   UNL     1      -5.143   9.358  67.627  1.00  0.00    -0.037 Cl 
HETATM   22  C   UNL     1      -7.426   6.922  69.839  1.00  0.00    -0.094 A  
ENDBRANCH  12  16
TORSDOF 1
ENDMDL
MODEL      147
REMARK 921   NORMALIZED FREE ENERGY PREDICTED BY IDOCK:   -0.56 KCAL/MOL
REMARK 922        TOTAL FREE ENERGY PREDICTED BY IDOCK:   -0.83 KCAL/MOL
REMARK 923 INTER-LIGAND FREE ENERGY PREDICTED BY IDOCK:   -2.06 KCAL/MOL
REMARK 924 INTRA-LIGAND FREE ENERGY PREDICTED BY IDOCK:    1.23 KCAL/MOL
REMARK 927      BINDING AFFINITY PREDICTED BY RF-SCORE:    0.00 PKD
ROOT
HETATM    1  C   UNL     1     -10.393   7.166  70.893  1.00  0.00    -0.214 C  
HETATM    2  C   UNL     1      -8.942   7.695  70.947  1.00  0.00    -0.148 C  
HETATM    3  N   UNL     1      -8.971   8.450  72.207  1.00  0.00    -0.216 NA 
HETATM    4  C   UNL     1      -8.676   8.777  69.884  1.00  0.00    -0.135 C  
HETATM    5  C   UNL     1      -8.286   8.030  73.200  1.00  0.00    -0.195 C  
HETATM    6  H   UNL     1      -9.530   9.299  72.288  1.00  0.00     0.000 HD 
HETATM    7  N   UNL     1      -8.440   8.645  74.394  1.00  0.00    -0.307 NA 
HETATM    8  N   UNL     1      -7.408   7.007  73.151  1.00  0.00    -0.073 NA 
HETATM    9  H1  UNL     1      -7.892   8.309  75.187  1.00  0.00     0.000 HD 
HETATM   10  C   UNL     1      -7.259   6.371  72.031  1.00  0.00    -0.090 C  
HETATM   11  H2  UNL     1      -9.087   9.426  74.499  1.00  0.00     0.000 HD 
HETATM   12  N   UNL     1      -7.932   6.603  70.848  1.00  0.00    -0.109 NA 
HETATM   13  N   UNL     1      -6.369   5.343  72.099  1.00  0.00    -0.034 NA 
HETATM   14  H1  UNL     1      -6.252   4.843  71.218  1.00  0.00     0.000 HD 
HETATM   15  H2  UNL     1      -5.867   5.096  72.951  1.00  0.00     0.000 HD 
ENDROOT
BRANCH  12  16
HETATM   16  C   UNL     1      -7.634   5.970  69.609  1.00  0.00    -0.089 A  
HETATM   17  C   UNL     1      -7.988   6.501  68.356  1.00  0.00    -0.110 A  
HETATM   18  C   UNL     1      -7.814   5.803  67.148  1.00  0.00    -0.102 A  
HETATM   19  C   UNL     1      -7.257   4.536  67.155  1.00  0.00    -0.073 A  
HETATM   20  C   UNL     1      -6.826   3.992  68.354  1.00  0.00    -0.047 A  
HETATM   21 CL   UNL     1      -7.115   3.651  65.691  1.00  0.00    -0.064 Cl 
HETATM   22  C   UNL     1      -6.995   4.713  69.551  1.00  0.00    -0.050 A  
ENDBRANCH  12  16
TORSDOF 1
ENDMDL
MODEL      148
REMARK 921   NORMALIZED FREE ENERGY PREDICTED BY IDOCK:    0.03 KCAL/MOL
REMARK 922        TOTAL FREE ENERGY PREDICTED BY IDOCK:   -0.20 KCAL/MOL
REMARK 923 INTER-LIGAND FREE ENERGY PREDICTED BY IDOCK:   -0.16 KCAL/MOL
REMARK 924 INTRA-LIGAND FREE ENERGY PREDICTED BY IDOCK:   -0.04 KCAL/MOL
REMARK 927      BINDING AFFINITY PREDICTED BY RF-SCORE:    0.00 PKD
ROOT
HETATM    1  C   UNL     1     -10.992  10.701  65.975  1.00  0.00     0.050 C  
HETATM    2  C   UNL     1     -10.202   9.789  66.939  1.00  0.00    -0.245 C  
HETATM    3  N   UNL     1     -10.573   8.462  66.429  1.00  0.00    -0.198 NA 
HETATM    4  C   UNL     1     -10.785   9.803  68.365  1.00  0.00    -0.262 C  
HETATM    5  C   UNL     1      -9.680   7.739  65.869  1.00  0.00     0.288 C  
HETATM    6  H   UNL     1     -11.529   8.122  66.521  1.00  0.00     0.000 HD 
HETATM    7  N   UNL     1     -10.066   6.589  65.271  1.00  0.00     1.020 NA 
HETATM    8  N   UNL     1      -8.365   8.035  65.829  1.00  0.00    -0.131 NA 
HETATM    9  H1  UNL     1      -9.353   6.012  64.825  1.00  0.00     0.000 HD 
HETATM   10  C   UNL     1      -7.963   9.145  66.363  1.00  0.00    -0.100 C  
HETATM   11  H2  UNL     1     -11.046   6.306  65.267  1.00  0.00     0.000 HD 
HETATM   12  N   UNL     1      -8.746  10.109  66.966  1.00  0.00    -0.132 NA 
HETATM   13  N   UNL     1      -6.623   9.356  66.244  1.00  0.00    -0.070 NA 
HETATM   14  H1  UNL     1      -6.307  10.230  66.664  1.00  0.00     0.000 HD 
HETATM   15  H2  UNL     1      -5.995   8.702  65.778  1.00  0.00     0.000 HD 
ENDROOT
BRANCH  12  16
HETATM   16  C   UNL     1      -8.243  11.245  67.659  1.00  0.00    -0.120 A  
HETATM   17  C   UNL     1      -7.386  11.165  68.771  1.00  0.00    -0.114 A  
HETATM   18  C   UNL     1      -7.007  12.284  69.533  1.00  0.00     0.140 A  
HETATM   19  C   UNL     1      -7.470  13.543  69.191  1.00  0.00     0.125 A  
HETATM   20  C   UNL     1      -8.261  13.690  68.063  1.00  0.00    -0.162 A  
HETATM   21 CL   UNL     1      -7.073  14.899  70.164  1.00  0.00    -0.060 Cl 
HETATM   22  C   UNL     1      -8.617  12.559  67.304  1.00  0.00    -0.191 A  
ENDBRANCH  12  16
TORSDOF 1
ENDMDL
MODEL      149
REMARK 921   NORMALIZED FREE ENERGY PREDICTED BY IDOCK:    0.15 KCAL/MOL
REMARK 922        TOTAL FREE ENERGY PREDICTED BY IDOCK:   -0.07 KCAL/MOL
REMARK 923 INTER-LIGAND FREE ENERGY PREDICTED BY IDOCK:   -1.34 KCAL/MOL
REMARK 924 INTRA-LIGAND FREE ENERGY PREDICTED BY IDOCK:    1.26 KCAL/MOL
REMARK 927      BINDING AFFINITY PREDICTED BY RF-SCORE:    0.00 PKD
ROOT
HETATM    1  C   UNL     1     -10.219  13.417  67.756  1.00  0.00    -0.235 C  
HETATM    2  C   UNL     1      -9.095  14.216  67.059  1.00  0.00    -0.243 C  
HETATM    3  N   UNL     1      -9.780  14.638  65.829  1.00  0.00    -0.450 NA 
HETATM    4  C   UNL     1      -7.964  13.305  66.548  1.00  0.00     0.745 C  
HETATM    5  C   UNL     1     -10.036  15.877  65.654  1.00  0.00    -0.334 C  
HETATM    6  H   UNL     1     -10.046  13.951  65.125  1.00  0.00     0.000 HD 
HETATM    7  N   UNL     1     -10.797  16.232  64.595  1.00  0.00    -0.860 NA 
HETATM    8  N   UNL     1      -9.599  16.873  66.451  1.00  0.00    -0.271 NA 
HETATM    9  H1  UNL     1     -11.001  17.222  64.454  1.00  0.00     0.000 HD 
HETATM   10  C   UNL     1      -8.894  16.567  67.495  1.00  0.00    -0.191 C  
HETATM   11  H2  UNL     1     -11.158  15.528  63.951  1.00  0.00     0.000 HD 
HETATM   12  N   UNL     1      -8.546  15.301  67.921  1.00  0.00    -0.150 NA 
HETATM   13  N   UNL     1      -8.528  17.645  68.243  1.00  0.00    -0.263 NA 
HETATM   14  H1  UNL     1      -7.973  17.404  69.064  1.00  0.00     0.000 HD 
HETATM   15  H2  UNL     1      -8.783  18.602  68.004  1.00  0.00     0.000 HD 
ENDROOT
BRANCH  12  16
HETATM   16  C   UNL     1      -7.655  15.024  68.996  1.00  0.00    -0.160 A  
HETATM   17  C   UNL     1      -7.286  13.726  69.389  1.00  0.00     0.182 A  
HETATM   18  C   UNL     1      -6.519  13.458  70.536  1.00  0.00     0.316 A  
HETATM   19  C   UNL     1      -6.075  14.501  71.331  1.00  0.00     0.100 A  
HETATM   20  C   UNL     1      -6.351  15.805  70.952  1.00  0.00     0.715 A  
HETATM   21 CL   UNL     1      -5.205  14.174  72.773  1.00  0.00    -0.240 Cl 
HETATM   22  C   UNL     1      -7.108  16.053  69.792  1.00  0.00     0.005 A  
ENDBRANCH  12  16
TORSDOF 1
ENDMDL
MODEL      150
REMARK 921   NORMALIZED FREE ENERGY PREDICTED BY IDOCK:    1.54 KCAL/MOL
REMARK 922        TOTAL FREE ENERGY PREDICTED BY IDOCK:    1.39 KCAL/MOL
REMARK 923 INTER-LIGAND FREE ENERGY PREDICTED BY IDOCK:    0.07 KCAL/MOL
REMARK 924 INTRA-LIGAND FREE ENERGY PREDICTED BY IDOCK:    1.32 KCAL/MOL
REMARK 927      BINDING AFFINITY PREDICTED BY RF-SCORE:    0.00 PKD
ROOT
HETATM    1  C   UNL     1     -10.271  17.970  67.100  1.00  0.00    -0.366 C  
HETATM    2  C   UNL     1     -10.236  17.182  68.428  1.00  0.00    -0.340 C  
HETATM    3  N   UNL     1     -11.162  16.083  68.122  1.00  0.00    -0.344 NA 
HETATM    4  C   UNL     1     -10.939  17.936  69.572  1.00  0.00     1.167 C  
HETATM    5  C   UNL     1     -10.706  14.894  68.025  1.00  0.00    -0.253 C  
HETATM    6  H   UNL     1     -12.156  16.267  67.988  1.00  0.00     0.000 HD 
HETATM    7  N   UNL     1     -11.538  13.919  67.595  1.00  0.00    -0.328 NA 
HETATM    8  N   UNL     1      -9.444  14.528  68.325  1.00  0.00    -0.201 NA 
HETATM    9  H1  UNL     1     -11.174  12.969  67.518  1.00  0.00     0.000 HD 
HETATM   10  C   UNL     1      -8.608  15.441  68.709  1.00  0.00    -0.190 C  
HETATM   11  H2  UNL     1     -12.506  14.128  67.352  1.00  0.00     0.000 HD 
HETATM   12  N   UNL     1      -8.853  16.795  68.828  1.00  0.00    -0.261 NA 
HETATM   13  N   UNL     1      -7.356  14.967  68.961  1.00  0.00    -0.138 NA 
HETATM   14  H1  UNL     1      -6.699  15.686  69.263  1.00  0.00     0.000 HD 
HETATM   15  H2  UNL     1      -7.100  13.986  68.857  1.00  0.00     0.000 HD 
ENDROOT
BRANCH  12  16
HETATM   16  C   UNL     1      -7.945  17.737  69.386  1.00  0.00     0.355 A  
HETATM   17  C   UNL     1      -6.589  17.461  69.636  1.00  0.00    -0.100 A  
HETATM   18  C   UNL     1      -5.735  18.349  70.313  1.00  0.00    -0.202 A  
HETATM   19  C   UNL     1      -6.216  19.569  70.758  1.00  0.00     0.004 A  
HETATM   20  C   UNL     1      -7.526  19.922  70.477  1.00  0.00     0.816 A  
HETATM   21 CL   UNL     1      -5.199  20.620  71.653  1.00  0.00    -0.282 Cl 
HETATM   22  C   UNL     1      -8.361  19.026  69.784  1.00  0.00     0.734 A  
ENDBRANCH  12  16
TORSDOF 1
ENDMDL
MODEL      151
REMARK 921   NORMALIZED FREE ENERGY PREDICTED BY IDOCK:   12.42 KCAL/MOL
REMARK 922        TOTAL FREE ENERGY PREDICTED BY IDOCK:   12.91 KCAL/MOL
REMARK 923 INTER-LIGAND FREE ENERGY PREDICTED BY IDOCK:   13.13 KCAL/MOL
REMARK 924 INTRA-LIGAND FREE ENERGY PREDICTED BY IDOCK:   -0.22 KCAL/MOL
REMARK 927      BINDING AFFINITY PREDICTED BY RF-SCORE:    0.00 PKD
ROOT
HETATM    1  C   UNL     1      -5.736  13.055  71.874  1.00  0.00     0.494 C  
HETATM    2  C   UNL     1      -6.851  13.995  71.363  1.00  0.00     1.783 C  
HETATM    3  N   UNL     1      -6.283  15.307  71.705  1.00  0.00     0.799 NA 
HETATM    4  C   UNL     1      -8.122  13.916  72.229  1.00  0.00     9.020 C  
HETATM    5  C   UNL     1      -5.928  16.094  70.764  1.00  0.00     0.313 C  
HETATM    6  H   UNL     1      -6.175  15.585  72.680  1.00  0.00     0.000 HD 
HETATM    7  N   UNL     1      -5.270  17.229  71.090  1.00  0.00    -0.313 NA 
HETATM    8  N   UNL     1      -6.162  15.882  69.453  1.00  0.00    -0.143 NA 
HETATM    9  H1  UNL     1      -4.986  17.858  70.338  1.00  0.00     0.000 HD 
HETATM   10  C   UNL     1      -6.762  14.788  69.100  1.00  0.00    -0.123 C  
HETATM   11  H2  UNL     1      -5.061  17.451  72.063  1.00  0.00     0.000 HD 
HETATM   12  N   UNL     1      -7.180  13.765  69.927  1.00  0.00     0.353 NA 
HETATM   13  N   UNL     1      -6.925  14.663  67.754  1.00  0.00    -0.162 NA 
HETATM   14  H1  UNL     1      -7.396  13.802  67.476  1.00  0.00     0.000 HD 
HETATM   15  H2  UNL     1      -6.605  15.364  67.086  1.00  0.00     0.000 HD 
ENDROOT
BRANCH  12  16
HETATM   16  C   UNL     1      -7.957  12.649  69.508  1.00  0.00     1.112 A  
HETATM   17  C   UNL     1      -9.323  12.725  69.185  1.00  0.00     0.659 A  
HETATM   18  C   UNL     1     -10.112  11.596  68.907  1.00  0.00    -0.109 A  
HETATM   19  C   UNL     1      -9.545  10.332  68.929  1.00  0.00    -0.190 A  
HETATM   20  C   UNL     1      -8.187  10.205  69.172  1.00  0.00    -0.145 A  
HETATM   21 CL   UNL     1     -10.522   8.946  68.667  1.00  0.00    -0.235 Cl 
HETATM   22  C   UNL     1      -7.411  11.349  69.433  1.00  0.00     0.012 A  
ENDBRANCH  12  16
TORSDOF 1
ENDMDL
MODEL      152
REMARK 921   NORMALIZED FREE ENERGY PREDICTED BY IDOCK:   49.36 KCAL/MOL
REMARK 922        TOTAL FREE ENERGY PREDICTED BY IDOCK:   52.01 KCAL/MOL
REMARK 923 INTER-LIGAND FREE ENERGY PREDICTED BY IDOCK:   50.83 KCAL/MOL
REMARK 924 INTRA-LIGAND FREE ENERGY PREDICTED BY IDOCK:    1.18 KCAL/MOL
REMARK 927      BINDING AFFINITY PREDICTED BY RF-SCORE:    0.00 PKD
ROOT
HETATM    1  C   UNL     1      -8.575  13.993  67.041  1.00  0.00    -0.193 C  
HETATM    2  C   UNL     1      -7.060  13.791  67.270  1.00  0.00     0.077 C  
HETATM    3  N   UNL     1      -6.530  14.170  65.953  1.00  0.00     5.287 NA 
HETATM    4  C   UNL     1      -6.683  12.304  67.397  1.00  0.00    -0.150 C  
HETATM    5  C   UNL     1      -5.828  15.232  65.847  1.00  0.00     6.212 C  
HETATM    6  H   UNL     1      -6.719  13.592  65.135  1.00  0.00     0.000 HD 
HETATM    7  N   UNL     1      -5.475  15.648  64.610  1.00  0.00    10.341 NA 
HETATM    8  N   UNL     1      -5.403  15.980  66.886  1.00  0.00    -0.271 NA 
HETATM    9  H1  UNL     1      -4.914  16.496  64.526  1.00  0.00     0.000 HD 
HETATM   10  C   UNL     1      -5.750  15.630  68.085  1.00  0.00    -0.126 C  
HETATM   11  H2  UNL     1      -5.763  15.128  63.782  1.00  0.00     0.000 HD 
HETATM   12  N   UNL     1      -6.551  14.563  68.440  1.00  0.00    -0.094 NA 
HETATM   13  N   UNL     1      -5.289  16.467  69.054  1.00  0.00    -0.117 NA 
HETATM   14  H1  UNL     1      -5.562  16.191  69.998  1.00  0.00     0.000 HD 
HETATM   15  H2  UNL     1      -4.724  17.292  68.856  1.00  0.00     0.000 HD 
ENDROOT
BRANCH  12  16
HETATM   16  C   UNL     1      -6.790  14.138  69.777  1.00  0.00    -0.019 A  
HETATM   17  C   UNL     1      -7.703  13.128  70.124  1.00  0.00     2.292 A  
HETATM   18  C   UNL     1      -8.034  12.813  71.453  1.00  0.00    10.459 A  
HETATM   19  C   UNL     1      -7.439  13.502  72.497  1.00  0.00     8.071 A  
HETATM   20  C   UNL     1      -6.479  14.460  72.214  1.00  0.00     1.282 A  
HETATM   21 CL   UNL     1      -7.898  13.173  74.117  1.00  0.00     7.801 Cl 
HETATM   22  C   UNL     1      -6.151  14.751  70.877  1.00  0.00    -0.019 A  
ENDBRANCH  12  16
TORSDOF 1
ENDMDL
