MODEL        1
REMARK 921   NORMALIZED FREE ENERGY PREDICTED BY IDOCK:   -5.13 KCAL/MOL
REMARK 922        TOTAL FREE ENERGY PREDICTED BY IDOCK:   -6.27 KCAL/MOL
REMARK 923 INTER-LIGAND FREE ENERGY PREDICTED BY IDOCK:   -6.03 KCAL/MOL
REMARK 924 INTRA-LIGAND FREE ENERGY PREDICTED BY IDOCK:   -0.24 KCAL/MOL
REMARK 927      BINDING AFFINITY PREDICTED BY RF-SCORE:    0.00 PKD
ROOT
HETATM    1 CL   UNL     1     -11.981  12.730  65.875  1.00  0.00    -0.491 Cl 
HETATM    2  C   UNL     1     -11.215  14.069  66.786  1.00  0.00    -0.315 C  
HETATM    3  C   UNL     1     -11.682  14.033  68.245  1.00  0.00    -0.357 C  
ENDROOT
BRANCH   3   4
HETATM    4  N   UNL     1     -11.176  15.059  69.217  1.00  0.00    -0.269 NA 
BRANCH   4   5
HETATM    5  C   UNL     1     -11.263  16.401  68.591  1.00  0.00    -0.332 C  
HETATM    6 CL   UNL     1     -10.328  18.839  67.815  1.00  0.00    -0.436 Cl 
HETATM    7  C   UNL     1     -10.037  17.319  68.718  1.00  0.00    -0.337 C  
ENDBRANCH   4   5
BRANCH   4   8
HETATM    8  P   UNL     1     -11.979  14.861  70.667  1.00  0.00    -0.364 P  
HETATM    9  N   UNL     1     -13.497  15.425  70.464  1.00  0.00    -0.793 NA 
HETATM   10  H   UNL     1     -13.912  15.024  69.623  1.00  0.00     0.000 HD 
HETATM   11  C   UNL     1     -14.387  15.229  71.607  1.00  0.00    -0.561 C  
HETATM   12  O   UNL     1     -11.266  15.455  71.845  1.00  0.00    -0.408 OA 
HETATM   13  C   UNL     1     -13.907  14.125  72.560  1.00  0.00    -0.590 C  
HETATM   14  C   UNL     1     -13.282  12.938  71.831  1.00  0.00    -0.423 C  
HETATM   15  O   UNL     1     -12.269  13.296  70.904  1.00  0.00    -0.356 OA 
ENDBRANCH   4   8
ENDBRANCH   3   4
TORSDOF 3
ENDMDL
MODEL        2
REMARK 921   NORMALIZED FREE ENERGY PREDICTED BY IDOCK:   -5.03 KCAL/MOL
REMARK 922        TOTAL FREE ENERGY PREDICTED BY IDOCK:   -6.15 KCAL/MOL
REMARK 923 INTER-LIGAND FREE ENERGY PREDICTED BY IDOCK:   -5.94 KCAL/MOL
REMARK 924 INTRA-LIGAND FREE ENERGY PREDICTED BY IDOCK:   -0.21 KCAL/MOL
REMARK 927      BINDING AFFINITY PREDICTED BY RF-SCORE:    0.00 PKD
ROOT
HETATM    1 CL   UNL     1      -8.918  18.734  68.473  1.00  0.00    -0.365 Cl 
HETATM    2  C   UNL     1     -10.331  17.724  68.033  1.00  0.00    -0.393 C  
HETATM    3  C   UNL     1     -10.506  16.604  69.065  1.00  0.00    -0.328 C  
ENDROOT
BRANCH   3   4
HETATM    4  N   UNL     1     -11.629  15.620  68.916  1.00  0.00    -0.365 NA 
BRANCH   4   5
HETATM    5  C   UNL     1     -11.213  14.551  67.977  1.00  0.00    -0.292 C  
HETATM    6 CL   UNL     1     -11.330  13.078  65.688  1.00  0.00    -0.320 Cl 
HETATM    7  C   UNL     1     -12.066  14.349  66.715  1.00  0.00    -0.365 C  
ENDBRANCH   4   5
BRANCH   4   8
HETATM    8  P   UNL     1     -12.112  15.129  70.437  1.00  0.00    -0.387 P  
HETATM    9  N   UNL     1     -13.687  15.526  70.600  1.00  0.00    -0.846 NA 
HETATM   10  H   UNL     1     -14.218  15.197  69.793  1.00  0.00     0.000 HD 
HETATM   11  C   UNL     1     -14.315  15.069  71.837  1.00  0.00    -0.584 C  
HETATM   12  O   UNL     1     -11.242  15.639  71.546  1.00  0.00    -0.374 OA 
HETATM   13  C   UNL     1     -13.557  13.912  72.503  1.00  0.00    -0.680 C  
HETATM   14  C   UNL     1     -12.977  12.920  71.497  1.00  0.00    -0.294 C  
HETATM   15  O   UNL     1     -12.202  13.523  70.472  1.00  0.00    -0.345 OA 
ENDBRANCH   4   8
ENDBRANCH   3   4
TORSDOF 3
ENDMDL
MODEL        3
REMARK 921   NORMALIZED FREE ENERGY PREDICTED BY IDOCK:   -4.98 KCAL/MOL
REMARK 922        TOTAL FREE ENERGY PREDICTED BY IDOCK:   -6.09 KCAL/MOL
REMARK 923 INTER-LIGAND FREE ENERGY PREDICTED BY IDOCK:   -5.85 KCAL/MOL
REMARK 924 INTRA-LIGAND FREE ENERGY PREDICTED BY IDOCK:   -0.24 KCAL/MOL
REMARK 927      BINDING AFFINITY PREDICTED BY RF-SCORE:    0.00 PKD
ROOT
HETATM    1 CL   UNL     1     -11.821  14.055  69.791  1.00  0.00    -0.361 Cl 
HETATM    2  C   UNL     1     -10.531  14.277  68.568  1.00  0.00    -0.253 C  
HETATM    3  C   UNL     1     -11.082  15.070  67.377  1.00  0.00    -0.324 C  
ENDROOT
BRANCH   3   4
HETATM    4  N   UNL     1     -10.187  15.389  66.215  1.00  0.00    -0.275 NA 
BRANCH   4   5
HETATM    5  C   UNL     1     -10.564  14.531  65.066  1.00  0.00    -0.437 C  
HETATM    6 CL   UNL     1     -12.283  13.173  63.446  1.00  0.00    -0.594 Cl 
HETATM    7  C   UNL     1     -12.040  14.121  64.947  1.00  0.00    -0.428 C  
ENDBRANCH   4   5
BRANCH   4   8
HETATM    8  P   UNL     1     -10.219  17.038  65.955  1.00  0.00    -0.144 P  
HETATM    9  N   UNL     1     -10.764  17.737  67.325  1.00  0.00    -0.298 NA 
HETATM   10  H   UNL     1     -10.247  17.384  68.130  1.00  0.00     0.000 HD 
HETATM   11  C   UNL     1     -10.754  19.198  67.320  1.00  0.00    -0.488 C  
HETATM   12  O   UNL     1     -10.974  17.446  64.726  1.00  0.00    -0.964 OA 
HETATM   13  C   UNL     1      -9.800  19.788  66.272  1.00  0.00    -0.557 C  
HETATM   14  C   UNL     1      -8.509  18.987  66.122  1.00  0.00    -0.204 C  
HETATM   15  O   UNL     1      -8.712  17.598  65.911  1.00  0.00    -0.520 OA 
ENDBRANCH   4   8
ENDBRANCH   3   4
TORSDOF 3
ENDMDL
MODEL        4
REMARK 921   NORMALIZED FREE ENERGY PREDICTED BY IDOCK:   -4.89 KCAL/MOL
REMARK 922        TOTAL FREE ENERGY PREDICTED BY IDOCK:   -5.98 KCAL/MOL
REMARK 923 INTER-LIGAND FREE ENERGY PREDICTED BY IDOCK:   -5.77 KCAL/MOL
REMARK 924 INTRA-LIGAND FREE ENERGY PREDICTED BY IDOCK:   -0.21 KCAL/MOL
REMARK 927      BINDING AFFINITY PREDICTED BY RF-SCORE:    0.00 PKD
ROOT
HETATM    1 CL   UNL     1      -9.896  20.067  66.847  1.00  0.00    -0.535 Cl 
HETATM    2  C   UNL     1     -10.645  18.554  67.447  1.00  0.00    -0.424 C  
HETATM    3  C   UNL     1      -9.862  17.347  66.920  1.00  0.00    -0.289 C  
ENDROOT
BRANCH   3   4
HETATM    4  N   UNL     1     -10.296  15.957  67.287  1.00  0.00    -0.286 NA 
BRANCH   4   5
HETATM    5  C   UNL     1     -11.229  16.031  68.437  1.00  0.00    -0.364 C  
HETATM    6 CL   UNL     1     -11.927  15.980  71.070  1.00  0.00    -0.437 Cl 
HETATM    7  C   UNL     1     -10.653  15.743  69.832  1.00  0.00    -0.328 C  
ENDBRANCH   4   5
BRANCH   4   8
HETATM    8  P   UNL     1     -10.865  15.197  65.914  1.00  0.00    -0.337 P  
HETATM    9  N   UNL     1      -9.899  13.911  65.633  1.00  0.00    -0.478 NA 
HETATM   10  H   UNL     1      -9.792  13.359  66.484  1.00  0.00     0.000 HD 
HETATM   11  C   UNL     1     -10.316  13.056  64.525  1.00  0.00    -0.364 C  
HETATM   12  O   UNL     1     -11.019  16.107  64.733  1.00  0.00    -0.594 OA 
HETATM   13  C   UNL     1     -11.798  13.222  64.162  1.00  0.00    -0.497 C  
HETATM   14  C   UNL     1     -12.692  13.427  65.383  1.00  0.00    -0.426 C  
HETATM   15  O   UNL     1     -12.254  14.460  66.253  1.00  0.00    -0.412 OA 
ENDBRANCH   4   8
ENDBRANCH   3   4
TORSDOF 3
ENDMDL
MODEL        5
REMARK 921   NORMALIZED FREE ENERGY PREDICTED BY IDOCK:   -4.88 KCAL/MOL
REMARK 922        TOTAL FREE ENERGY PREDICTED BY IDOCK:   -5.97 KCAL/MOL
REMARK 923 INTER-LIGAND FREE ENERGY PREDICTED BY IDOCK:   -5.74 KCAL/MOL
REMARK 924 INTRA-LIGAND FREE ENERGY PREDICTED BY IDOCK:   -0.23 KCAL/MOL
REMARK 927      BINDING AFFINITY PREDICTED BY RF-SCORE:    0.00 PKD
ROOT
HETATM    1 CL   UNL     1      -9.160  19.186  68.828  1.00  0.00    -0.409 Cl 
HETATM    2  C   UNL     1     -10.489  18.107  68.300  1.00  0.00    -0.317 C  
HETATM    3  C   UNL     1     -10.619  16.934  69.278  1.00  0.00    -0.325 C  
ENDROOT
BRANCH   3   4
HETATM    4  N   UNL     1     -11.669  15.885  69.052  1.00  0.00    -0.390 NA 
BRANCH   4   5
HETATM    5  C   UNL     1     -11.134  14.858  68.126  1.00  0.00    -0.283 C  
HETATM    6 CL   UNL     1     -11.266  13.026  66.114  1.00  0.00    -0.307 Cl 
HETATM    7  C   UNL     1     -12.139  14.149  67.204  1.00  0.00    -0.397 C  
ENDBRANCH   4   5
BRANCH   4   8
HETATM    8  P   UNL     1     -12.207  15.341  70.536  1.00  0.00    -0.431 P  
HETATM    9  N   UNL     1     -11.680  16.398  71.663  1.00  0.00    -0.644 NA 
HETATM   10  H   UNL     1     -11.909  17.352  71.385  1.00  0.00     0.000 HD 
HETATM   11  C   UNL     1     -12.153  16.140  73.021  1.00  0.00    -0.533 C  
HETATM   12  O   UNL     1     -11.848  13.916  70.829  1.00  0.00    -0.288 OA 
HETATM   13  C   UNL     1     -13.413  15.264  73.061  1.00  0.00    -0.580 C  
HETATM   14  C   UNL     1     -14.389  15.569  71.928  1.00  0.00    -0.472 C  
HETATM   15  O   UNL     1     -13.797  15.562  70.638  1.00  0.00    -0.361 OA 
ENDBRANCH   4   8
ENDBRANCH   3   4
TORSDOF 3
ENDMDL
MODEL        6
REMARK 921   NORMALIZED FREE ENERGY PREDICTED BY IDOCK:   -4.83 KCAL/MOL
REMARK 922        TOTAL FREE ENERGY PREDICTED BY IDOCK:   -5.91 KCAL/MOL
REMARK 923 INTER-LIGAND FREE ENERGY PREDICTED BY IDOCK:   -5.68 KCAL/MOL
REMARK 924 INTRA-LIGAND FREE ENERGY PREDICTED BY IDOCK:   -0.23 KCAL/MOL
REMARK 927      BINDING AFFINITY PREDICTED BY RF-SCORE:    0.00 PKD
ROOT
HETATM    1 CL   UNL     1     -10.095  20.506  67.175  1.00  0.00    -0.518 Cl 
HETATM    2  C   UNL     1      -9.262  19.250  66.208  1.00  0.00    -0.331 C  
HETATM    3  C   UNL     1      -9.839  17.871  66.548  1.00  0.00    -0.343 C  
ENDROOT
BRANCH   3   4
HETATM    4  N   UNL     1      -9.303  16.648  65.863  1.00  0.00    -0.505 NA 
BRANCH   4   5
HETATM    5  C   UNL     1      -8.388  15.938  66.789  1.00  0.00    -0.271 C  
HETATM    6 CL   UNL     1      -7.493  15.079  69.215  1.00  0.00    -0.175 Cl 
HETATM    7  C   UNL     1      -8.653  16.089  68.296  1.00  0.00    -0.179 C  
ENDBRANCH   4   5
BRANCH   4   8
HETATM    8  P   UNL     1     -10.589  15.765  65.266  1.00  0.00    -0.325 P  
HETATM    9  N   UNL     1      -9.999  14.333  64.751  1.00  0.00    -0.557 NA 
HETATM   10  H   UNL     1      -9.417  13.911  65.475  1.00  0.00     0.000 HD 
HETATM   11  C   UNL     1     -11.006  13.378  64.294  1.00  0.00    -0.369 C  
HETATM   12  O   UNL     1     -11.399  16.491  64.234  1.00  0.00    -1.020 OA 
HETATM   13  C   UNL     1     -12.411  13.685  64.831  1.00  0.00    -0.423 C  
HETATM   14  C   UNL     1     -12.403  14.199  66.269  1.00  0.00    -0.422 C  
HETATM   15  O   UNL     1     -11.517  15.286  66.489  1.00  0.00    -0.242 OA 
ENDBRANCH   4   8
ENDBRANCH   3   4
TORSDOF 3
ENDMDL
MODEL        7
REMARK 921   NORMALIZED FREE ENERGY PREDICTED BY IDOCK:   -4.69 KCAL/MOL
REMARK 922        TOTAL FREE ENERGY PREDICTED BY IDOCK:   -5.75 KCAL/MOL
REMARK 923 INTER-LIGAND FREE ENERGY PREDICTED BY IDOCK:   -5.49 KCAL/MOL
REMARK 924 INTRA-LIGAND FREE ENERGY PREDICTED BY IDOCK:   -0.25 KCAL/MOL
REMARK 927      BINDING AFFINITY PREDICTED BY RF-SCORE:    0.00 PKD
ROOT
HETATM    1 CL   UNL     1     -12.358  15.813  70.986  1.00  0.00    -0.460 Cl 
HETATM    2  C   UNL     1     -10.905  15.571  69.966  1.00  0.00    -0.318 C  
HETATM    3  C   UNL     1     -11.246  15.876  68.503  1.00  0.00    -0.362 C  
ENDROOT
BRANCH   3   4
HETATM    4  N   UNL     1     -10.187  15.746  67.447  1.00  0.00    -0.265 NA 
BRANCH   4   5
HETATM    5  C   UNL     1     -10.484  14.559  66.609  1.00  0.00    -0.274 C  
HETATM    6 CL   UNL     1     -12.072  12.643  65.501  1.00  0.00    -0.507 Cl 
HETATM    7  C   UNL     1     -11.918  14.007  66.652  1.00  0.00    -0.445 C  
ENDBRANCH   4   5
BRANCH   4   8
HETATM    8  P   UNL     1     -10.050  17.206  66.648  1.00  0.00    -0.310 P  
HETATM    9  N   UNL     1     -10.773  18.338  67.576  1.00  0.00    -0.406 NA 
HETATM   10  H   UNL     1     -10.432  18.278  68.535  1.00  0.00     0.000 HD 
HETATM   11  C   UNL     1     -10.653  19.709  67.083  1.00  0.00    -0.487 C  
HETATM   12  O   UNL     1     -10.547  17.175  65.234  1.00  0.00    -0.662 OA 
HETATM   13  C   UNL     1      -9.489  19.893  66.099  1.00  0.00    -0.466 C  
HETATM   14  C   UNL     1      -8.255  19.076  66.473  1.00  0.00    -0.302 C  
HETATM   15  O   UNL     1      -8.521  17.701  66.706  1.00  0.00    -0.232 OA 
ENDBRANCH   4   8
ENDBRANCH   3   4
TORSDOF 3
ENDMDL
MODEL        8
REMARK 921   NORMALIZED FREE ENERGY PREDICTED BY IDOCK:   -4.65 KCAL/MOL
REMARK 922        TOTAL FREE ENERGY PREDICTED BY IDOCK:   -5.70 KCAL/MOL
REMARK 923 INTER-LIGAND FREE ENERGY PREDICTED BY IDOCK:   -5.46 KCAL/MOL
REMARK 924 INTRA-LIGAND FREE ENERGY PREDICTED BY IDOCK:   -0.24 KCAL/MOL
REMARK 927      BINDING AFFINITY PREDICTED BY RF-SCORE:    0.00 PKD
ROOT
HETATM    1 CL   UNL     1     -10.563  18.309  67.718  1.00  0.00    -0.430 Cl 
HETATM    2  C   UNL     1     -10.210  16.717  68.458  1.00  0.00    -0.298 C  
HETATM    3  C   UNL     1     -11.480  15.858  68.465  1.00  0.00    -0.377 C  
ENDROOT
BRANCH   3   4
HETATM    4  N   UNL     1     -11.440  14.471  69.036  1.00  0.00    -0.273 NA 
BRANCH   4   5
HETATM    5  C   UNL     1     -12.456  14.362  70.111  1.00  0.00    -0.339 C  
HETATM    6 CL   UNL     1     -13.876  15.214  72.274  1.00  0.00    -0.560 Cl 
HETATM    7  C   UNL     1     -12.526  15.508  71.132  1.00  0.00    -0.432 C  
ENDBRANCH   4   5
BRANCH   4   8
HETATM    8  P   UNL     1     -11.564  13.375  67.782  1.00  0.00    -0.369 P  
HETATM    9  N   UNL     1     -12.450  14.080  66.605  1.00  0.00    -0.523 NA 
HETATM   10  H   UNL     1     -12.087  15.010  66.401  1.00  0.00     0.000 HD 
HETATM   11  C   UNL     1     -12.570  13.303  65.373  1.00  0.00    -0.468 C  
HETATM   12  O   UNL     1     -12.073  12.028  68.198  1.00  0.00    -0.480 OA 
HETATM   13  C   UNL     1     -11.471  12.242  65.223  1.00  0.00    -0.399 C  
HETATM   14  C   UNL     1     -10.111  12.714  65.731  1.00  0.00    -0.271 C  
HETATM   15  O   UNL     1     -10.138  13.246  67.047  1.00  0.00    -0.237 OA 
ENDBRANCH   4   8
ENDBRANCH   3   4
TORSDOF 3
ENDMDL
MODEL        9
REMARK 921   NORMALIZED FREE ENERGY PREDICTED BY IDOCK:   -4.64 KCAL/MOL
REMARK 922        TOTAL FREE ENERGY PREDICTED BY IDOCK:   -5.69 KCAL/MOL
REMARK 923 INTER-LIGAND FREE ENERGY PREDICTED BY IDOCK:   -5.47 KCAL/MOL
REMARK 924 INTRA-LIGAND FREE ENERGY PREDICTED BY IDOCK:   -0.21 KCAL/MOL
REMARK 927      BINDING AFFINITY PREDICTED BY RF-SCORE:    0.00 PKD
ROOT
HETATM    1 CL   UNL     1     -11.716  15.249  72.372  1.00  0.00    -0.528 Cl 
HETATM    2  C   UNL     1     -12.192  15.709  70.707  1.00  0.00    -0.418 C  
HETATM    3  C   UNL     1     -10.947  16.112  69.908  1.00  0.00    -0.362 C  
ENDROOT
BRANCH   3   4
HETATM    4  N   UNL     1     -11.085  16.539  68.476  1.00  0.00    -0.354 NA 
BRANCH   4   5
HETATM    5  C   UNL     1     -10.224  17.724  68.241  1.00  0.00    -0.382 C  
HETATM    6 CL   UNL     1      -9.664  20.249  67.387  1.00  0.00    -0.558 Cl 
HETATM    7  C   UNL     1     -10.842  18.902  67.471  1.00  0.00    -0.364 C  
ENDBRANCH   4   5
BRANCH   4   8
HETATM    8  P   UNL     1     -10.811  15.215  67.496  1.00  0.00    -0.312 P  
HETATM    9  N   UNL     1     -12.236  14.439  67.318  1.00  0.00    -0.608 NA 
HETATM   10  H   UNL     1     -12.965  15.099  67.048  1.00  0.00     0.000 HD 
HETATM   11  C   UNL     1     -12.212  13.307  66.394  1.00  0.00    -0.356 C  
HETATM   12  O   UNL     1      -9.695  14.331  67.965  1.00  0.00    -0.212 OA 
HETATM   13  C   UNL     1     -11.033  13.360  65.411  1.00  0.00    -0.297 C  
HETATM   14  C   UNL     1     -10.714  14.776  64.937  1.00  0.00    -0.417 C  
HETATM   15  O   UNL     1     -10.551  15.715  65.989  1.00  0.00    -0.307 OA 
ENDBRANCH   4   8
ENDBRANCH   3   4
TORSDOF 3
ENDMDL
MODEL       10
REMARK 921   NORMALIZED FREE ENERGY PREDICTED BY IDOCK:   -4.61 KCAL/MOL
REMARK 922        TOTAL FREE ENERGY PREDICTED BY IDOCK:   -5.66 KCAL/MOL
REMARK 923 INTER-LIGAND FREE ENERGY PREDICTED BY IDOCK:   -5.45 KCAL/MOL
REMARK 924 INTRA-LIGAND FREE ENERGY PREDICTED BY IDOCK:   -0.21 KCAL/MOL
REMARK 927      BINDING AFFINITY PREDICTED BY RF-SCORE:    0.00 PKD
ROOT
HETATM    1 CL   UNL     1     -10.051  19.633  67.901  1.00  0.00    -0.510 Cl 
HETATM    2  C   UNL     1      -9.416  17.960  67.955  1.00  0.00    -0.279 C  
HETATM    3  C   UNL     1     -10.474  16.989  67.419  1.00  0.00    -0.322 C  
ENDROOT
BRANCH   3   4
HETATM    4  N   UNL     1     -10.178  15.519  67.360  1.00  0.00    -0.251 NA 
BRANCH   4   5
HETATM    5  C   UNL     1     -10.732  14.866  68.571  1.00  0.00    -0.245 C  
HETATM    6 CL   UNL     1     -12.464  14.569  70.653  1.00  0.00    -0.386 Cl 
HETATM    7  C   UNL     1     -11.896  15.574  69.283  1.00  0.00    -0.353 C  
ENDBRANCH   4   5
BRANCH   4   8
HETATM    8  P   UNL     1     -10.703  14.927  65.890  1.00  0.00    -0.357 P  
HETATM    9  N   UNL     1      -9.831  13.587  65.564  1.00  0.00    -0.492 NA 
HETATM   10  H   UNL     1      -9.836  12.959  66.368  1.00  0.00     0.000 HD 
HETATM   11  C   UNL     1     -10.232  12.866  64.358  1.00  0.00    -0.318 C  
HETATM   12  O   UNL     1     -10.689  15.941  64.785  1.00  0.00    -0.559 OA 
HETATM   13  C   UNL     1     -11.664  13.195  63.911  1.00  0.00    -0.515 C  
HETATM   14  C   UNL     1     -12.627  13.380  65.081  1.00  0.00    -0.440 C  
HETATM   15  O   UNL     1     -12.172  14.295  66.066  1.00  0.00    -0.421 OA 
ENDBRANCH   4   8
ENDBRANCH   3   4
TORSDOF 3
ENDMDL
MODEL       11
REMARK 921   NORMALIZED FREE ENERGY PREDICTED BY IDOCK:   -4.61 KCAL/MOL
REMARK 922        TOTAL FREE ENERGY PREDICTED BY IDOCK:   -5.65 KCAL/MOL
REMARK 923 INTER-LIGAND FREE ENERGY PREDICTED BY IDOCK:   -5.41 KCAL/MOL
REMARK 924 INTRA-LIGAND FREE ENERGY PREDICTED BY IDOCK:   -0.24 KCAL/MOL
REMARK 927      BINDING AFFINITY PREDICTED BY RF-SCORE:    0.00 PKD
ROOT
HETATM    1 CL   UNL     1     -12.770  13.905  65.642  1.00  0.00    -0.560 Cl 
HETATM    2  C   UNL     1     -11.582  13.749  66.974  1.00  0.00    -0.365 C  
HETATM    3  C   UNL     1     -11.859  14.816  68.039  1.00  0.00    -0.294 C  
ENDROOT
BRANCH   3   4
HETATM    4  N   UNL     1     -10.995  14.892  69.264  1.00  0.00    -0.259 NA 
BRANCH   4   5
HETATM    5  C   UNL     1     -10.298  16.200  69.283  1.00  0.00    -0.265 C  
HETATM    6 CL   UNL     1      -9.780  18.745  68.458  1.00  0.00    -0.399 Cl 
HETATM    7  C   UNL     1     -10.668  17.212  68.187  1.00  0.00    -0.366 C  
ENDBRANCH   4   5
BRANCH   4   8
HETATM    8  P   UNL     1     -11.929  14.526  70.599  1.00  0.00    -0.321 P  
HETATM    9  N   UNL     1     -11.184  15.163  71.904  1.00  0.00    -0.548 NA 
HETATM   10  H   UNL     1     -10.947  16.140  71.732  1.00  0.00     0.000 HD 
HETATM   11  C   UNL     1     -11.921  15.037  73.159  1.00  0.00    -0.296 C  
HETATM   12  O   UNL     1     -12.250  13.069  70.737  1.00  0.00    -0.363 OA 
HETATM   13  C   UNL     1     -13.422  14.794  72.952  1.00  0.00    -0.541 C  
HETATM   14  C   UNL     1     -13.997  15.575  71.772  1.00  0.00    -0.469 C  
HETATM   15  O   UNL     1     -13.275  15.407  70.562  1.00  0.00    -0.362 OA 
ENDBRANCH   4   8
ENDBRANCH   3   4
TORSDOF 3
ENDMDL
MODEL       12
REMARK 921   NORMALIZED FREE ENERGY PREDICTED BY IDOCK:   -4.60 KCAL/MOL
REMARK 922        TOTAL FREE ENERGY PREDICTED BY IDOCK:   -5.65 KCAL/MOL
REMARK 923 INTER-LIGAND FREE ENERGY PREDICTED BY IDOCK:   -5.45 KCAL/MOL
REMARK 924 INTRA-LIGAND FREE ENERGY PREDICTED BY IDOCK:   -0.20 KCAL/MOL
REMARK 927      BINDING AFFINITY PREDICTED BY RF-SCORE:    0.00 PKD
ROOT
HETATM    1 CL   UNL     1     -12.361  13.759  71.101  1.00  0.00    -0.442 Cl 
HETATM    2  C   UNL     1     -12.124  14.715  69.605  1.00  0.00    -0.311 C  
HETATM    3  C   UNL     1     -11.902  13.770  68.419  1.00  0.00    -0.376 C  
ENDROOT
BRANCH   3   4
HETATM    4  N   UNL     1     -11.680  14.334  67.046  1.00  0.00    -0.386 NA 
BRANCH   4   5
HETATM    5  C   UNL     1     -10.506  15.240  67.081  1.00  0.00    -0.280 C  
HETATM    6 CL   UNL     1      -9.051  17.439  66.395  1.00  0.00    -0.284 Cl 
HETATM    7  C   UNL     1     -10.510  16.437  66.116  1.00  0.00    -0.314 C  
ENDBRANCH   4   5
BRANCH   4   8
HETATM    8  P   UNL     1     -11.613  13.071  65.955  1.00  0.00    -0.406 P  
HETATM    9  N   UNL     1     -12.720  13.372  64.794  1.00  0.00    -0.685 NA 
HETATM   10  H   UNL     1     -12.610  14.322  64.441  1.00  0.00     0.000 HD 
HETATM   11  C   UNL     1     -12.726  12.420  63.686  1.00  0.00    -0.354 C  
HETATM   12  O   UNL     1     -11.747  11.716  66.583  1.00  0.00    -0.523 OA 
HETATM   13  C   UNL     1     -11.413  11.635  63.561  1.00  0.00    -0.427 C  
HETATM   14  C   UNL     1     -10.180  12.481  63.870  1.00  0.00    -0.360 C  
HETATM   15  O   UNL     1     -10.251  13.175  65.106  1.00  0.00    -0.304 OA 
ENDBRANCH   4   8
ENDBRANCH   3   4
TORSDOF 3
ENDMDL
MODEL       13
REMARK 921   NORMALIZED FREE ENERGY PREDICTED BY IDOCK:   -4.55 KCAL/MOL
REMARK 922        TOTAL FREE ENERGY PREDICTED BY IDOCK:   -5.58 KCAL/MOL
REMARK 923 INTER-LIGAND FREE ENERGY PREDICTED BY IDOCK:   -5.33 KCAL/MOL
REMARK 924 INTRA-LIGAND FREE ENERGY PREDICTED BY IDOCK:   -0.25 KCAL/MOL
REMARK 927      BINDING AFFINITY PREDICTED BY RF-SCORE:    0.00 PKD
ROOT
HETATM    1 CL   UNL     1     -12.727  12.062  63.401  1.00  0.00    -0.651 Cl 
HETATM    2  C   UNL     1     -12.091  12.496  65.018  1.00  0.00    -0.446 C  
HETATM    3  C   UNL     1     -12.351  13.982  65.292  1.00  0.00    -0.465 C  
ENDROOT
BRANCH   3   4
HETATM    4  N   UNL     1     -11.909  14.590  66.591  1.00  0.00    -0.389 NA 
BRANCH   4   5
HETATM    5  C   UNL     1     -11.710  13.510  67.587  1.00  0.00    -0.363 C  
HETATM    6 CL   UNL     1     -11.794  12.374  70.062  1.00  0.00    -0.392 Cl 
HETATM    7  C   UNL     1     -12.011  13.842  69.057  1.00  0.00    -0.360 C  
ENDBRANCH   4   5
BRANCH   4   8
HETATM    8  P   UNL     1     -10.598  15.581  66.296  1.00  0.00    -0.294 P  
HETATM    9  N   UNL     1     -10.607  16.753  67.433  1.00  0.00    -0.315 NA 
HETATM   10  H   UNL     1     -10.705  16.343  68.361  1.00  0.00     0.000 HD 
HETATM   11  C   UNL     1      -9.460  17.657  67.398  1.00  0.00    -0.256 C  
HETATM   12  O   UNL     1     -10.530  16.101  64.892  1.00  0.00    -0.605 OA 
HETATM   13  C   UNL     1      -8.251  17.063  66.661  1.00  0.00    -0.295 C  
HETATM   14  C   UNL     1      -8.073  15.568  66.912  1.00  0.00    -0.249 C  
HETATM   15  O   UNL     1      -9.245  14.800  66.682  1.00  0.00    -0.247 OA 
ENDBRANCH   4   8
ENDBRANCH   3   4
TORSDOF 3
ENDMDL
MODEL       14
REMARK 921   NORMALIZED FREE ENERGY PREDICTED BY IDOCK:   -4.53 KCAL/MOL
REMARK 922        TOTAL FREE ENERGY PREDICTED BY IDOCK:   -5.56 KCAL/MOL
REMARK 923 INTER-LIGAND FREE ENERGY PREDICTED BY IDOCK:   -5.35 KCAL/MOL
REMARK 924 INTRA-LIGAND FREE ENERGY PREDICTED BY IDOCK:   -0.22 KCAL/MOL
REMARK 927      BINDING AFFINITY PREDICTED BY RF-SCORE:    0.00 PKD
ROOT
HETATM    1 CL   UNL     1     -12.127   9.551  71.851  1.00  0.00    -0.435 Cl 
HETATM    2  C   UNL     1     -12.716  11.170  71.363  1.00  0.00    -0.418 C  
HETATM    3  C   UNL     1     -11.958  11.640  70.116  1.00  0.00    -0.359 C  
ENDROOT
BRANCH   3   4
HETATM    4  N   UNL     1     -12.275  12.976  69.508  1.00  0.00    -0.203 NA 
BRANCH   4   5
HETATM    5  C   UNL     1     -11.853  14.044  70.446  1.00  0.00    -0.286 C  
HETATM    6 CL   UNL     1     -12.228  16.150  72.134  1.00  0.00    -0.557 Cl 
HETATM    7  C   UNL     1     -12.939  15.009  70.949  1.00  0.00    -0.405 C  
ENDBRANCH   4   5
BRANCH   4   8
HETATM    8  P   UNL     1     -11.620  13.032  67.974  1.00  0.00    -0.363 P  
HETATM    9  N   UNL     1     -12.275  14.317  67.211  1.00  0.00    -0.597 NA 
HETATM   10  H   UNL     1     -12.205  15.148  67.797  1.00  0.00     0.000 HD 
HETATM   11  C   UNL     1     -11.732  14.590  65.882  1.00  0.00    -0.345 C  
HETATM   12  O   UNL     1     -11.744  11.747  67.211  1.00  0.00    -0.546 OA 
HETATM   13  C   UNL     1     -10.350  13.960  65.658  1.00  0.00    -0.337 C  
HETATM   14  C   UNL     1      -9.464  14.007  66.900  1.00  0.00    -0.265 C  
HETATM   15  O   UNL     1     -10.081  13.492  68.070  1.00  0.00    -0.230 OA 
ENDBRANCH   4   8
ENDBRANCH   3   4
TORSDOF 3
ENDMDL
MODEL       15
REMARK 921   NORMALIZED FREE ENERGY PREDICTED BY IDOCK:   -4.53 KCAL/MOL
REMARK 922        TOTAL FREE ENERGY PREDICTED BY IDOCK:   -5.56 KCAL/MOL
REMARK 923 INTER-LIGAND FREE ENERGY PREDICTED BY IDOCK:   -5.34 KCAL/MOL
REMARK 924 INTRA-LIGAND FREE ENERGY PREDICTED BY IDOCK:   -0.22 KCAL/MOL
REMARK 927      BINDING AFFINITY PREDICTED BY RF-SCORE:    0.00 PKD
ROOT
HETATM    1 CL   UNL     1     -12.171  12.983  63.259  1.00  0.00    -0.589 Cl 
HETATM    2  C   UNL     1     -11.910  13.653  64.899  1.00  0.00    -0.375 C  
HETATM    3  C   UNL     1     -10.595  14.440  64.931  1.00  0.00    -0.434 C  
ENDROOT
BRANCH   3   4
HETATM    4  N   UNL     1     -10.152  15.104  66.202  1.00  0.00    -0.277 NA 
BRANCH   4   5
HETATM    5  C   UNL     1      -8.852  14.526  66.621  1.00  0.00    -0.184 C  
HETATM    6 CL   UNL     1      -7.193  12.583  67.566  1.00  0.00    -0.135 Cl 
HETATM    7  C   UNL     1      -8.870  13.112  67.223  1.00  0.00    -0.208 C  
ENDBRANCH   4   5
BRANCH   4   8
HETATM    8  P   UNL     1     -10.195  16.758  65.983  1.00  0.00    -0.254 P  
HETATM    9  N   UNL     1     -10.768  17.418  67.361  1.00  0.00    -0.301 NA 
HETATM   10  H   UNL     1     -10.261  17.050  68.165  1.00  0.00     0.000 HD 
HETATM   11  C   UNL     1     -10.771  18.879  67.392  1.00  0.00    -0.444 C  
HETATM   12  O   UNL     1     -10.934  17.191  64.752  1.00  0.00    -0.898 OA 
HETATM   13  C   UNL     1      -9.805  19.503  66.375  1.00  0.00    -0.507 C  
HETATM   14  C   UNL     1      -8.505  18.717  66.226  1.00  0.00    -0.241 C  
HETATM   15  O   UNL     1      -8.692  17.332  65.978  1.00  0.00    -0.497 OA 
ENDBRANCH   4   8
ENDBRANCH   3   4
TORSDOF 3
ENDMDL
MODEL       16
REMARK 921   NORMALIZED FREE ENERGY PREDICTED BY IDOCK:   -4.53 KCAL/MOL
REMARK 922        TOTAL FREE ENERGY PREDICTED BY IDOCK:   -5.56 KCAL/MOL
REMARK 923 INTER-LIGAND FREE ENERGY PREDICTED BY IDOCK:   -5.34 KCAL/MOL
REMARK 924 INTRA-LIGAND FREE ENERGY PREDICTED BY IDOCK:   -0.22 KCAL/MOL
REMARK 927      BINDING AFFINITY PREDICTED BY RF-SCORE:    0.00 PKD
ROOT
HETATM    1 CL   UNL     1      -6.050  14.942  67.483  1.00  0.00    -0.086 Cl 
HETATM    2  C   UNL     1      -7.750  15.353  67.868  1.00  0.00    -0.133 C  
HETATM    3  C   UNL     1      -8.526  15.607  66.570  1.00  0.00    -0.276 C  
ENDROOT
BRANCH   3   4
HETATM    4  N   UNL     1      -9.981  15.969  66.628  1.00  0.00    -0.256 NA 
BRANCH   4   5
HETATM    5  C   UNL     1     -10.111  17.446  66.625  1.00  0.00    -0.317 C  
HETATM    6 CL   UNL     1     -10.367  19.914  67.751  1.00  0.00    -0.555 Cl 
HETATM    7  C   UNL     1     -10.333  18.137  67.980  1.00  0.00    -0.391 C  
ENDBRANCH   4   5
BRANCH   4   8
HETATM    8  P   UNL     1     -10.783  15.149  65.415  1.00  0.00    -0.436 P  
HETATM    9  N   UNL     1      -9.868  13.858  65.012  1.00  0.00    -0.600 NA 
HETATM   10  H   UNL     1      -9.600  13.342  65.850  1.00  0.00     0.000 HD 
HETATM   11  C   UNL     1     -10.470  12.955  64.034  1.00  0.00    -0.368 C  
HETATM   12  O   UNL     1     -11.163  16.008  64.246  1.00  0.00    -0.517 OA 
HETATM   13  C   UNL     1     -11.996  13.098  63.944  1.00  0.00    -0.550 C  
HETATM   14  C   UNL     1     -12.653  13.349  65.299  1.00  0.00    -0.464 C  
HETATM   15  O   UNL     1     -12.077  14.419  66.032  1.00  0.00    -0.396 OA 
ENDBRANCH   4   8
ENDBRANCH   3   4
TORSDOF 3
ENDMDL
MODEL       17
REMARK 921   NORMALIZED FREE ENERGY PREDICTED BY IDOCK:   -4.52 KCAL/MOL
REMARK 922        TOTAL FREE ENERGY PREDICTED BY IDOCK:   -5.55 KCAL/MOL
REMARK 923 INTER-LIGAND FREE ENERGY PREDICTED BY IDOCK:   -5.35 KCAL/MOL
REMARK 924 INTRA-LIGAND FREE ENERGY PREDICTED BY IDOCK:   -0.20 KCAL/MOL
REMARK 927      BINDING AFFINITY PREDICTED BY RF-SCORE:    0.00 PKD
ROOT
HETATM    1 CL   UNL     1     -11.424  12.746  66.085  1.00  0.00    -0.373 Cl 
HETATM    2  C   UNL     1     -11.995  14.295  66.779  1.00  0.00    -0.436 C  
HETATM    3  C   UNL     1     -10.814  15.049  67.400  1.00  0.00    -0.305 C  
ENDROOT
BRANCH   3   4
HETATM    4  N   UNL     1     -11.038  16.384  68.049  1.00  0.00    -0.329 NA 
BRANCH   4   5
HETATM    5  C   UNL     1     -10.898  16.236  69.518  1.00  0.00    -0.342 C  
HETATM    6 CL   UNL     1     -11.610  15.368  72.000  1.00  0.00    -0.514 Cl 
HETATM    7  C   UNL     1     -12.031  15.514  70.264  1.00  0.00    -0.374 C  
ENDBRANCH   4   5
BRANCH   4   8
HETATM    8  P   UNL     1     -10.041  17.506  67.316  1.00  0.00    -0.351 P  
HETATM    9  N   UNL     1     -10.910  18.873  67.119  1.00  0.00    -0.420 NA 
HETATM   10  H   UNL     1     -11.366  19.130  67.994  1.00  0.00     0.000 HD 
HETATM   11  C   UNL     1     -10.162  20.010  66.588  1.00  0.00    -0.471 C  
HETATM   12  O   UNL     1      -9.393  17.014  66.056  1.00  0.00    -0.449 OA 
HETATM   13  C   UNL     1      -8.645  19.872  66.781  1.00  0.00    -0.394 C  
HETATM   14  C   UNL     1      -8.268  19.229  68.113  1.00  0.00    -0.318 C  
HETATM   15  O   UNL     1      -8.934  18.003  68.372  1.00  0.00    -0.269 OA 
ENDBRANCH   4   8
ENDBRANCH   3   4
TORSDOF 3
ENDMDL
MODEL       18
REMARK 921   NORMALIZED FREE ENERGY PREDICTED BY IDOCK:   -4.49 KCAL/MOL
REMARK 922        TOTAL FREE ENERGY PREDICTED BY IDOCK:   -5.51 KCAL/MOL
REMARK 923 INTER-LIGAND FREE ENERGY PREDICTED BY IDOCK:   -5.27 KCAL/MOL
REMARK 924 INTRA-LIGAND FREE ENERGY PREDICTED BY IDOCK:   -0.24 KCAL/MOL
REMARK 927      BINDING AFFINITY PREDICTED BY RF-SCORE:    0.00 PKD
ROOT
HETATM    1 CL   UNL     1     -10.263  19.687  68.095  1.00  0.00    -0.555 Cl 
HETATM    2  C   UNL     1      -9.817  17.996  68.483  1.00  0.00    -0.378 C  
HETATM    3  C   UNL     1     -11.004  17.070  68.192  1.00  0.00    -0.263 C  
ENDROOT
BRANCH   3   4
HETATM    4  N   UNL     1     -10.877  15.594  68.436  1.00  0.00    -0.277 NA 
BRANCH   4   5
HETATM    5  C   UNL     1     -11.906  15.178  69.419  1.00  0.00    -0.330 C  
HETATM    6 CL   UNL     1     -13.175  15.179  71.830  1.00  0.00    -0.430 Cl 
HETATM    7  C   UNL     1     -11.783  15.734  70.847  1.00  0.00    -0.406 C  
ENDBRANCH   4   5
BRANCH   4   8
HETATM    8  P   UNL     1     -10.893  14.807  66.964  1.00  0.00    -0.328 P  
HETATM    9  N   UNL     1     -12.390  14.191  66.757  1.00  0.00    -0.554 NA 
HETATM   10  H   UNL     1     -13.093  14.909  66.930  1.00  0.00     0.000 HD 
HETATM   11  C   UNL     1     -12.624  13.557  65.462  1.00  0.00    -0.481 C  
HETATM   12  O   UNL     1      -9.796  13.799  66.800  1.00  0.00    -0.258 OA 
HETATM   13  C   UNL     1     -11.630  14.011  64.383  1.00  0.00    -0.385 C  
HETATM   14  C   UNL     1     -11.273  15.492  64.486  1.00  0.00    -0.315 C  
HETATM   15  O   UNL     1     -10.850  15.895  65.780  1.00  0.00    -0.314 OA 
ENDBRANCH   4   8
ENDBRANCH   3   4
TORSDOF 3
ENDMDL
MODEL       19
REMARK 921   NORMALIZED FREE ENERGY PREDICTED BY IDOCK:   -4.49 KCAL/MOL
REMARK 922        TOTAL FREE ENERGY PREDICTED BY IDOCK:   -5.51 KCAL/MOL
REMARK 923 INTER-LIGAND FREE ENERGY PREDICTED BY IDOCK:   -5.27 KCAL/MOL
REMARK 924 INTRA-LIGAND FREE ENERGY PREDICTED BY IDOCK:   -0.25 KCAL/MOL
REMARK 927      BINDING AFFINITY PREDICTED BY RF-SCORE:    0.00 PKD
ROOT
HETATM    1 CL   UNL     1     -13.144  11.623  71.761  1.00  0.00    -0.554 Cl 
HETATM    2  C   UNL     1     -12.393  11.017  70.252  1.00  0.00    -0.328 C  
HETATM    3  C   UNL     1     -11.709  12.174  69.515  1.00  0.00    -0.336 C  
ENDROOT
BRANCH   3   4
HETATM    4  N   UNL     1     -11.003  11.918  68.216  1.00  0.00    -0.215 NA 
BRANCH   4   5
HETATM    5  C   UNL     1     -11.200  10.500  67.830  1.00  0.00    -0.289 C  
HETATM    6 CL   UNL     1     -10.447   8.066  66.865  1.00  0.00    -0.411 Cl 
HETATM    7  C   UNL     1     -10.020   9.782  67.156  1.00  0.00    -0.198 C  
ENDBRANCH   4   5
BRANCH   4   8
HETATM    8  P   UNL     1     -11.494  13.066  67.107  1.00  0.00    -0.369 P  
HETATM    9  N   UNL     1     -10.172  13.536  66.274  1.00  0.00    -0.292 NA 
HETATM   10  H   UNL     1      -9.662  12.721  65.934  1.00  0.00     0.000 HD 
HETATM   11  C   UNL     1     -10.431  14.465  65.176  1.00  0.00    -0.415 C  
HETATM   12  O   UNL     1     -12.266  14.202  67.708  1.00  0.00    -0.334 OA 
HETATM   13  C   UNL     1     -11.890  14.437  64.698  1.00  0.00    -0.460 C  
HETATM   14  C   UNL     1     -12.495  13.036  64.710  1.00  0.00    -0.427 C  
HETATM   15  O   UNL     1     -12.343  12.350  65.943  1.00  0.00    -0.638 OA 
ENDBRANCH   4   8
ENDBRANCH   3   4
TORSDOF 3
ENDMDL
MODEL       20
REMARK 921   NORMALIZED FREE ENERGY PREDICTED BY IDOCK:   -4.48 KCAL/MOL
REMARK 922        TOTAL FREE ENERGY PREDICTED BY IDOCK:   -5.51 KCAL/MOL
REMARK 923 INTER-LIGAND FREE ENERGY PREDICTED BY IDOCK:   -5.29 KCAL/MOL
REMARK 924 INTRA-LIGAND FREE ENERGY PREDICTED BY IDOCK:   -0.21 KCAL/MOL
REMARK 927      BINDING AFFINITY PREDICTED BY RF-SCORE:    0.00 PKD
ROOT
HETATM    1 CL   UNL     1     -13.530  14.499  72.617  1.00  0.00    -0.553 Cl 
HETATM    2  C   UNL     1     -13.355  15.372  71.063  1.00  0.00    -0.480 C  
HETATM    3  C   UNL     1     -12.234  14.731  70.236  1.00  0.00    -0.338 C  
ENDROOT
BRANCH   3   4
HETATM    4  N   UNL     1     -11.894  15.286  68.883  1.00  0.00    -0.338 NA 
BRANCH   4   5
HETATM    5  C   UNL     1     -10.753  16.223  69.019  1.00  0.00    -0.300 C  
HETATM    6 CL   UNL     1      -9.307  18.464  68.464  1.00  0.00    -0.343 Cl 
HETATM    7  C   UNL     1     -10.710  17.424  68.061  1.00  0.00    -0.359 C  
ENDBRANCH   4   5
BRANCH   4   8
HETATM    8  P   UNL     1     -11.690  14.013  67.821  1.00  0.00    -0.377 P  
HETATM    9  N   UNL     1     -12.624  14.313  66.517  1.00  0.00    -0.500 NA 
HETATM   10  H   UNL     1     -12.459  15.260  66.175  1.00  0.00     0.000 HD 
HETATM   11  C   UNL     1     -12.488  13.352  65.425  1.00  0.00    -0.494 C  
HETATM   12  O   UNL     1     -11.922  12.665  68.435  1.00  0.00    -0.317 OA 
HETATM   13  C   UNL     1     -11.177  12.555  65.487  1.00  0.00    -0.349 C  
HETATM   14  C   UNL     1      -9.990  13.394  65.957  1.00  0.00    -0.293 C  
HETATM   15  O   UNL     1     -10.223  14.099  67.166  1.00  0.00    -0.254 OA 
ENDBRANCH   4   8
ENDBRANCH   3   4
TORSDOF 3
ENDMDL
MODEL       21
REMARK 921   NORMALIZED FREE ENERGY PREDICTED BY IDOCK:   -4.48 KCAL/MOL
REMARK 922        TOTAL FREE ENERGY PREDICTED BY IDOCK:   -5.51 KCAL/MOL
REMARK 923 INTER-LIGAND FREE ENERGY PREDICTED BY IDOCK:   -5.26 KCAL/MOL
REMARK 924 INTRA-LIGAND FREE ENERGY PREDICTED BY IDOCK:   -0.24 KCAL/MOL
REMARK 927      BINDING AFFINITY PREDICTED BY RF-SCORE:    0.00 PKD
ROOT
HETATM    1 CL   UNL     1     -11.936  14.131  70.413  1.00  0.00    -0.387 Cl 
HETATM    2  C   UNL     1     -11.669  15.315  69.095  1.00  0.00    -0.335 C  
HETATM    3  C   UNL     1     -10.755  14.701  68.028  1.00  0.00    -0.246 C  
ENDROOT
BRANCH   3   4
HETATM    4  N   UNL     1     -10.383  15.501  66.814  1.00  0.00    -0.281 NA 
BRANCH   4   5
HETATM    5  C   UNL     1      -8.912  15.690  66.793  1.00  0.00    -0.261 C  
HETATM    6 CL   UNL     1      -6.598  17.099  66.504  1.00  0.00    -0.265 Cl 
HETATM    7  C   UNL     1      -8.385  17.069  66.366  1.00  0.00    -0.284 C  
ENDBRANCH   4   5
BRANCH   4   8
HETATM    8  P   UNL     1     -11.059  14.776  65.470  1.00  0.00    -0.371 P  
HETATM    9  N   UNL     1     -10.008  13.642  64.948  1.00  0.00    -0.618 NA 
HETATM   10  H   UNL     1      -9.717  13.048  65.724  1.00  0.00     0.000 HD 
HETATM   11  C   UNL     1     -10.484  12.823  63.836  1.00  0.00    -0.372 C  
HETATM   12  O   UNL     1     -11.485  15.743  64.406  1.00  0.00    -0.410 OA 
HETATM   13  C   UNL     1     -12.013  12.832  63.696  1.00  0.00    -0.616 C  
HETATM   14  C   UNL     1     -12.736  12.838  65.041  1.00  0.00    -0.380 C  
HETATM   15  O   UNL     1     -12.293  13.852  65.930  1.00  0.00    -0.436 OA 
ENDBRANCH   4   8
ENDBRANCH   3   4
TORSDOF 3
ENDMDL
MODEL       22
REMARK 921   NORMALIZED FREE ENERGY PREDICTED BY IDOCK:   -4.46 KCAL/MOL
REMARK 922        TOTAL FREE ENERGY PREDICTED BY IDOCK:   -5.48 KCAL/MOL
REMARK 923 INTER-LIGAND FREE ENERGY PREDICTED BY IDOCK:   -5.28 KCAL/MOL
REMARK 924 INTRA-LIGAND FREE ENERGY PREDICTED BY IDOCK:   -0.20 KCAL/MOL
REMARK 927      BINDING AFFINITY PREDICTED BY RF-SCORE:    0.00 PKD
ROOT
HETATM    1 CL   UNL     1     -12.179   9.781  71.267  1.00  0.00    -0.432 Cl 
HETATM    2  C   UNL     1     -12.814  11.456  71.278  1.00  0.00    -0.379 C  
HETATM    3  C   UNL     1     -12.092  12.288  70.212  1.00  0.00    -0.295 C  
ENDROOT
BRANCH   3   4
HETATM    4  N   UNL     1     -12.451  13.733  70.024  1.00  0.00    -0.286 NA 
BRANCH   4   5
HETATM    5  C   UNL     1     -12.424  14.413  71.342  1.00  0.00    -0.359 C  
HETATM    6 CL   UNL     1     -13.403  15.987  73.339  1.00  0.00    -0.661 Cl 
HETATM    7  C   UNL     1     -13.592  15.356  71.673  1.00  0.00    -0.509 C  
ENDBRANCH   4   5
BRANCH   4   8
HETATM    8  P   UNL     1     -11.468  14.376  68.837  1.00  0.00    -0.331 P  
HETATM    9  N   UNL     1     -12.259  14.226  67.417  1.00  0.00    -0.604 NA 
HETATM   10  H   UNL     1     -13.210  14.585  67.504  1.00  0.00     0.000 HD 
HETATM   11  C   UNL     1     -11.593  14.840  66.270  1.00  0.00    -0.298 C  
HETATM   12  O   UNL     1     -10.082  13.806  68.819  1.00  0.00    -0.214 OA 
HETATM   13  C   UNL     1     -10.566  15.908  66.674  1.00  0.00    -0.305 C  
HETATM   14  C   UNL     1     -11.013  16.744  67.870  1.00  0.00    -0.260 C  
HETATM   15  O   UNL     1     -11.426  15.976  68.990  1.00  0.00    -0.348 OA 
ENDBRANCH   4   8
ENDBRANCH   3   4
TORSDOF 3
ENDMDL
MODEL       23
REMARK 921   NORMALIZED FREE ENERGY PREDICTED BY IDOCK:   -4.42 KCAL/MOL
REMARK 922        TOTAL FREE ENERGY PREDICTED BY IDOCK:   -5.43 KCAL/MOL
REMARK 923 INTER-LIGAND FREE ENERGY PREDICTED BY IDOCK:   -5.16 KCAL/MOL
REMARK 924 INTRA-LIGAND FREE ENERGY PREDICTED BY IDOCK:   -0.27 KCAL/MOL
REMARK 927      BINDING AFFINITY PREDICTED BY RF-SCORE:    0.00 PKD
ROOT
HETATM    1 CL   UNL     1      -7.495  13.969  68.946  1.00  0.00    -0.117 Cl 
HETATM    2  C   UNL     1      -7.791  14.325  67.216  1.00  0.00    -0.147 C  
HETATM    3  C   UNL     1      -9.051  15.188  67.076  1.00  0.00    -0.230 C  
ENDROOT
BRANCH   3   4
HETATM    4  N   UNL     1      -9.510  15.623  65.715  1.00  0.00    -0.330 NA 
BRANCH   4   5
HETATM    5  C   UNL     1     -10.483  14.632  65.194  1.00  0.00    -0.416 C  
HETATM    6 CL   UNL     1     -12.658  12.997  65.313  1.00  0.00    -0.550 Cl 
HETATM    7  C   UNL     1     -11.540  14.100  66.174  1.00  0.00    -0.370 C  
ENDBRANCH   4   5
BRANCH   4   8
HETATM    8  P   UNL     1     -10.038  17.204  65.811  1.00  0.00     0.005 P  
HETATM    9  N   UNL     1     -10.515  17.465  67.350  1.00  0.00    -0.345 NA 
HETATM   10  H   UNL     1      -9.792  17.156  68.000  1.00  0.00     0.000 HD 
HETATM   11  C   UNL     1     -10.908  18.840  67.650  1.00  0.00    -0.317 C  
HETATM   12  O   UNL     1     -11.073  17.564  64.788  1.00  0.00    -0.959 OA 
HETATM   13  C   UNL     1     -10.344  19.858  66.648  1.00  0.00    -0.608 C  
HETATM   14  C   UNL     1      -8.927  19.522  66.190  1.00  0.00    -0.310 C  
HETATM   15  O   UNL     1      -8.773  18.193  65.717  1.00  0.00    -0.466 OA 
ENDBRANCH   4   8
ENDBRANCH   3   4
TORSDOF 3
ENDMDL
MODEL       24
REMARK 921   NORMALIZED FREE ENERGY PREDICTED BY IDOCK:   -4.41 KCAL/MOL
REMARK 922        TOTAL FREE ENERGY PREDICTED BY IDOCK:   -5.42 KCAL/MOL
REMARK 923 INTER-LIGAND FREE ENERGY PREDICTED BY IDOCK:   -5.21 KCAL/MOL
REMARK 924 INTRA-LIGAND FREE ENERGY PREDICTED BY IDOCK:   -0.21 KCAL/MOL
REMARK 927      BINDING AFFINITY PREDICTED BY RF-SCORE:    0.00 PKD
ROOT
HETATM    1 CL   UNL     1     -12.448   9.235  71.773  1.00  0.00    -0.428 Cl 
HETATM    2  C   UNL     1     -12.990  10.906  71.425  1.00  0.00    -0.424 C  
HETATM    3  C   UNL     1     -12.129  11.505  70.306  1.00  0.00    -0.359 C  
ENDROOT
BRANCH   3   4
HETATM    4  N   UNL     1     -12.390  12.904  69.831  1.00  0.00    -0.155 NA 
BRANCH   4   5
HETATM    5  C   UNL     1     -12.068  13.853  70.925  1.00  0.00    -0.313 C  
HETATM    6 CL   UNL     1     -12.207  16.213  72.279  1.00  0.00    -0.571 Cl 
HETATM    7  C   UNL     1     -12.640  15.275  70.815  1.00  0.00    -0.417 C  
ENDBRANCH   4   5
BRANCH   4   8
HETATM    8  P   UNL     1     -11.587  13.134  68.386  1.00  0.00    -0.375 P  
HETATM    9  N   UNL     1     -11.833  11.803  67.474  1.00  0.00    -0.617 NA 
HETATM   10  H   UNL     1     -12.826  11.575  67.445  1.00  0.00     0.000 HD 
HETATM   11  C   UNL     1     -11.291  11.873  66.119  1.00  0.00    -0.324 C  
HETATM   12  O   UNL     1     -10.141  13.500  68.544  1.00  0.00    -0.234 OA 
HETATM   13  C   UNL     1     -11.044  13.312  65.645  1.00  0.00    -0.299 C  
HETATM   14  C   UNL     1     -12.117  14.289  66.120  1.00  0.00    -0.406 C  
HETATM   15  O   UNL     1     -12.365  14.242  67.516  1.00  0.00    -0.287 OA 
ENDBRANCH   4   8
ENDBRANCH   3   4
TORSDOF 3
ENDMDL
MODEL       25
REMARK 921   NORMALIZED FREE ENERGY PREDICTED BY IDOCK:   -4.41 KCAL/MOL
REMARK 922        TOTAL FREE ENERGY PREDICTED BY IDOCK:   -5.42 KCAL/MOL
REMARK 923 INTER-LIGAND FREE ENERGY PREDICTED BY IDOCK:   -5.21 KCAL/MOL
REMARK 924 INTRA-LIGAND FREE ENERGY PREDICTED BY IDOCK:   -0.21 KCAL/MOL
REMARK 927      BINDING AFFINITY PREDICTED BY RF-SCORE:    0.00 PKD
ROOT
HETATM    1 CL   UNL     1     -12.827  10.185  71.338  1.00  0.00    -0.491 Cl 
HETATM    2  C   UNL     1     -13.073  11.936  71.624  1.00  0.00    -0.328 C  
HETATM    3  C   UNL     1     -12.330  12.742  70.552  1.00  0.00    -0.275 C  
ENDROOT
BRANCH   3   4
HETATM    4  N   UNL     1     -12.384  14.242  70.575  1.00  0.00    -0.338 NA 
BRANCH   4   5
HETATM    5  C   UNL     1     -12.007  14.718  71.928  1.00  0.00    -0.318 C  
HETATM    6 CL   UNL     1     -12.447  15.834  74.374  1.00  0.00    -0.783 Cl 
HETATM    7  C   UNL     1     -13.091  15.433  72.751  1.00  0.00    -0.466 C  
ENDBRANCH   4   5
BRANCH   4   8
HETATM    8  P   UNL     1     -11.476  14.827  69.302  1.00  0.00    -0.335 P  
HETATM    9  N   UNL     1     -10.092  13.963  69.252  1.00  0.00    -0.423 NA 
HETATM   10  H   UNL     1     -10.300  12.965  69.281  1.00  0.00     0.000 HD 
HETATM   11  C   UNL     1      -9.216  14.264  68.123  1.00  0.00    -0.202 C  
HETATM   12  O   UNL     1     -11.262  16.311  69.337  1.00  0.00    -0.324 OA 
HETATM   13  C   UNL     1      -9.950  14.943  66.958  1.00  0.00    -0.240 C  
HETATM   14  C   UNL     1     -11.360  14.398  66.742  1.00  0.00    -0.352 C  
HETATM   15  O   UNL     1     -12.159  14.381  67.915  1.00  0.00    -0.334 OA 
ENDBRANCH   4   8
ENDBRANCH   3   4
TORSDOF 3
ENDMDL
MODEL       26
REMARK 921   NORMALIZED FREE ENERGY PREDICTED BY IDOCK:   -4.37 KCAL/MOL
REMARK 922        TOTAL FREE ENERGY PREDICTED BY IDOCK:   -5.38 KCAL/MOL
REMARK 923 INTER-LIGAND FREE ENERGY PREDICTED BY IDOCK:   -5.13 KCAL/MOL
REMARK 924 INTRA-LIGAND FREE ENERGY PREDICTED BY IDOCK:   -0.24 KCAL/MOL
REMARK 927      BINDING AFFINITY PREDICTED BY RF-SCORE:    0.00 PKD
ROOT
HETATM    1 CL   UNL     1     -12.051  11.531  70.486  1.00  0.00    -0.464 Cl 
HETATM    2  C   UNL     1     -11.652  13.062  69.645  1.00  0.00    -0.253 C  
HETATM    3  C   UNL     1     -12.010  12.943  68.159  1.00  0.00    -0.261 C  
ENDROOT
BRANCH   3   4
HETATM    4  N   UNL     1     -11.769  14.103  67.238  1.00  0.00    -0.372 NA 
BRANCH   4   5
HETATM    5  C   UNL     1     -10.745  14.992  67.839  1.00  0.00    -0.268 C  
HETATM    6 CL   UNL     1      -9.797  17.311  68.908  1.00  0.00    -0.297 Cl 
HETATM    7  C   UNL     1     -11.146  16.453  68.098  1.00  0.00    -0.320 C  
ENDBRANCH   4   5
BRANCH   4   8
HETATM    8  P   UNL     1     -11.438  13.511  65.712  1.00  0.00    -0.338 P  
HETATM    9  N   UNL     1     -10.738  12.048  65.898  1.00  0.00    -0.266 NA 
HETATM   10  H   UNL     1     -11.292  11.471  66.531  1.00  0.00     0.000 HD 
HETATM   11  C   UNL     1     -10.477  11.325  64.656  1.00  0.00    -0.325 C  
HETATM   12  O   UNL     1     -10.651  14.453  64.851  1.00  0.00    -0.405 OA 
HETATM   13  C   UNL     1     -11.331  11.824  63.481  1.00  0.00    -0.496 C  
HETATM   14  C   UNL     1     -12.752  12.201  63.893  1.00  0.00    -0.377 C  
HETATM   15  O   UNL     1     -12.816  13.096  64.993  1.00  0.00    -0.692 OA 
ENDBRANCH   4   8
ENDBRANCH   3   4
TORSDOF 3
ENDMDL
MODEL       27
REMARK 921   NORMALIZED FREE ENERGY PREDICTED BY IDOCK:   -4.35 KCAL/MOL
REMARK 922        TOTAL FREE ENERGY PREDICTED BY IDOCK:   -5.35 KCAL/MOL
REMARK 923 INTER-LIGAND FREE ENERGY PREDICTED BY IDOCK:   -5.12 KCAL/MOL
REMARK 924 INTRA-LIGAND FREE ENERGY PREDICTED BY IDOCK:   -0.23 KCAL/MOL
REMARK 927      BINDING AFFINITY PREDICTED BY RF-SCORE:    0.00 PKD
ROOT
HETATM    1 CL   UNL     1      -9.076  17.524  66.864  1.00  0.00    -0.255 Cl 
HETATM    2  C   UNL     1     -10.571  16.710  67.420  1.00  0.00    -0.295 C  
HETATM    3  C   UNL     1     -10.738  15.377  66.682  1.00  0.00    -0.309 C  
ENDROOT
BRANCH   3   4
HETATM    4  N   UNL     1     -11.922  14.503  66.976  1.00  0.00    -0.393 NA 
BRANCH   4   5
HETATM    5  C   UNL     1     -12.334  13.812  65.730  1.00  0.00    -0.486 C  
HETATM    6 CL   UNL     1     -11.996  12.841  63.207  1.00  0.00    -0.594 Cl 
HETATM    7  C   UNL     1     -11.332  13.804  64.565  1.00  0.00    -0.380 C  
ENDBRANCH   4   5
BRANCH   4   8
HETATM    8  P   UNL     1     -11.553  13.528  68.280  1.00  0.00    -0.386 P  
HETATM    9  N   UNL     1     -12.527  13.973  69.512  1.00  0.00    -0.437 NA 
HETATM   10  H   UNL     1     -13.496  14.014  69.198  1.00  0.00     0.000 HD 
HETATM   11  C   UNL     1     -12.421  13.148  70.713  1.00  0.00    -0.308 C  
HETATM   12  O   UNL     1     -10.097  13.512  68.636  1.00  0.00    -0.226 OA 
HETATM   13  C   UNL     1     -11.815  11.764  70.439  1.00  0.00    -0.362 C  
HETATM   14  C   UNL     1     -12.263  11.169  69.106  1.00  0.00    -0.175 C  
HETATM   15  O   UNL     1     -12.089  12.038  67.997  1.00  0.00    -0.514 OA 
ENDBRANCH   4   8
ENDBRANCH   3   4
TORSDOF 3
ENDMDL
MODEL       28
REMARK 921   NORMALIZED FREE ENERGY PREDICTED BY IDOCK:   -4.34 KCAL/MOL
REMARK 922        TOTAL FREE ENERGY PREDICTED BY IDOCK:   -5.34 KCAL/MOL
REMARK 923 INTER-LIGAND FREE ENERGY PREDICTED BY IDOCK:   -5.08 KCAL/MOL
REMARK 924 INTRA-LIGAND FREE ENERGY PREDICTED BY IDOCK:   -0.26 KCAL/MOL
REMARK 927      BINDING AFFINITY PREDICTED BY RF-SCORE:    0.00 PKD
ROOT
HETATM    1 CL   UNL     1     -13.293  15.556  71.206  1.00  0.00    -0.581 Cl 
HETATM    2  C   UNL     1     -11.710  15.157  70.468  1.00  0.00    -0.302 C  
HETATM    3  C   UNL     1     -11.646  15.727  69.046  1.00  0.00    -0.400 C  
ENDROOT
BRANCH   3   4
HETATM    4  N   UNL     1     -10.412  15.525  68.216  1.00  0.00    -0.238 NA 
BRANCH   4   5
HETATM    5  C   UNL     1     -10.761  14.722  67.019  1.00  0.00    -0.300 C  
HETATM    6 CL   UNL     1     -12.440  13.440  65.299  1.00  0.00    -0.504 Cl 
HETATM    7  C   UNL     1     -12.234  14.316  66.848  1.00  0.00    -0.331 C  
ENDBRANCH   4   5
BRANCH   4   8
HETATM    8  P   UNL     1      -9.711  17.014  67.934  1.00  0.00    -0.282 P  
HETATM    9  N   UNL     1     -10.493  17.689  66.670  1.00  0.00    -0.319 NA 
HETATM   10  H   UNL     1     -11.501  17.649  66.819  1.00  0.00     0.000 HD 
HETATM   11  C   UNL     1     -10.084  19.054  66.348  1.00  0.00    -0.415 C  
HETATM   12  O   UNL     1      -8.222  16.964  67.766  1.00  0.00    -0.184 OA 
HETATM   13  C   UNL     1      -9.386  19.763  67.517  1.00  0.00    -0.443 C  
HETATM   14  C   UNL     1      -9.995  19.419  68.874  1.00  0.00    -0.445 C  
HETATM   15  O   UNL     1     -10.119  18.026  69.115  1.00  0.00    -0.337 OA 
ENDBRANCH   4   8
ENDBRANCH   3   4
TORSDOF 3
ENDMDL
MODEL       29
REMARK 921   NORMALIZED FREE ENERGY PREDICTED BY IDOCK:   -4.34 KCAL/MOL
REMARK 922        TOTAL FREE ENERGY PREDICTED BY IDOCK:   -5.34 KCAL/MOL
REMARK 923 INTER-LIGAND FREE ENERGY PREDICTED BY IDOCK:   -5.12 KCAL/MOL
REMARK 924 INTRA-LIGAND FREE ENERGY PREDICTED BY IDOCK:   -0.22 KCAL/MOL
REMARK 927      BINDING AFFINITY PREDICTED BY RF-SCORE:    0.00 PKD
ROOT
HETATM    1 CL   UNL     1     -14.082  15.705  72.301  1.00  0.00    -0.604 Cl 
HETATM    2  C   UNL     1     -12.604  14.783  71.881  1.00  0.00    -0.334 C  
HETATM    3  C   UNL     1     -12.955  13.674  70.882  1.00  0.00    -0.186 C  
ENDROOT
BRANCH   3   4
HETATM    4  N   UNL     1     -11.879  12.760  70.373  1.00  0.00    -0.239 NA 
BRANCH   4   5
HETATM    5  C   UNL     1     -12.300  11.354  70.585  1.00  0.00    -0.373 C  
HETATM    6 CL   UNL     1     -13.621   9.324  71.832  1.00  0.00    -0.467 Cl 
HETATM    7  C   UNL     1     -13.152  11.053  71.829  1.00  0.00    -0.449 C  
ENDBRANCH   4   5
BRANCH   4   8
HETATM    8  P   UNL     1     -11.507  13.197  68.805  1.00  0.00    -0.348 P  
HETATM    9  N   UNL     1      -9.892  13.041  68.626  1.00  0.00    -0.396 NA 
HETATM   10  H   UNL     1      -9.588  12.126  68.959  1.00  0.00     0.000 HD 
HETATM   11  C   UNL     1      -9.394  13.276  67.273  1.00  0.00    -0.226 C  
HETATM   12  O   UNL     1     -12.032  14.544  68.407  1.00  0.00    -0.321 OA 
HETATM   13  C   UNL     1     -10.483  13.135  66.200  1.00  0.00    -0.287 C  
HETATM   14  C   UNL     1     -11.469  12.008  66.496  1.00  0.00    -0.349 C  
HETATM   15  O   UNL     1     -12.032  12.058  67.798  1.00  0.00    -0.538 OA 
ENDBRANCH   4   8
ENDBRANCH   3   4
TORSDOF 3
ENDMDL
MODEL       30
REMARK 921   NORMALIZED FREE ENERGY PREDICTED BY IDOCK:   -4.33 KCAL/MOL
REMARK 922        TOTAL FREE ENERGY PREDICTED BY IDOCK:   -5.33 KCAL/MOL
REMARK 923 INTER-LIGAND FREE ENERGY PREDICTED BY IDOCK:   -5.09 KCAL/MOL
REMARK 924 INTRA-LIGAND FREE ENERGY PREDICTED BY IDOCK:   -0.23 KCAL/MOL
REMARK 927      BINDING AFFINITY PREDICTED BY RF-SCORE:    0.00 PKD
ROOT
HETATM    1 CL   UNL     1     -12.167  14.091  71.001  1.00  0.00    -0.423 Cl 
HETATM    2  C   UNL     1     -11.867  14.968  69.468  1.00  0.00    -0.330 C  
HETATM    3  C   UNL     1     -11.788  13.968  68.309  1.00  0.00    -0.371 C  
ENDROOT
BRANCH   3   4
HETATM    4  N   UNL     1     -11.544  14.462  66.913  1.00  0.00    -0.373 NA 
BRANCH   4   5
HETATM    5  C   UNL     1     -10.323  15.303  66.905  1.00  0.00    -0.278 C  
HETATM    6 CL   UNL     1      -8.900  17.603  66.573  1.00  0.00    -0.285 Cl 
HETATM    7  C   UNL     1     -10.467  16.750  66.407  1.00  0.00    -0.269 C  
ENDBRANCH   4   5
BRANCH   4   8
HETATM    8  P   UNL     1     -11.551  13.153  65.876  1.00  0.00    -0.394 P  
HETATM    9  N   UNL     1     -10.402  13.418  64.748  1.00  0.00    -0.490 NA 
HETATM   10  H   UNL     1      -9.523  13.676  65.195  1.00  0.00     0.000 HD 
HETATM   11  C   UNL     1     -10.188  12.317  63.812  1.00  0.00    -0.402 C  
HETATM   12  O   UNL     1     -12.900  12.838  65.303  1.00  0.00    -0.674 OA 
HETATM   13  C   UNL     1     -10.699  10.970  64.344  1.00  0.00    -0.340 C  
HETATM   14  C   UNL     1     -10.466  10.793  65.843  1.00  0.00    -0.204 C  
HETATM   15  O   UNL     1     -10.939  11.872  66.633  1.00  0.00    -0.263 OA 
ENDBRANCH   4   8
ENDBRANCH   3   4
TORSDOF 3
ENDMDL
MODEL       31
REMARK 921   NORMALIZED FREE ENERGY PREDICTED BY IDOCK:   -4.32 KCAL/MOL
REMARK 922        TOTAL FREE ENERGY PREDICTED BY IDOCK:   -5.32 KCAL/MOL
REMARK 923 INTER-LIGAND FREE ENERGY PREDICTED BY IDOCK:   -5.11 KCAL/MOL
REMARK 924 INTRA-LIGAND FREE ENERGY PREDICTED BY IDOCK:   -0.21 KCAL/MOL
REMARK 927      BINDING AFFINITY PREDICTED BY RF-SCORE:    0.00 PKD
ROOT
HETATM    1 CL   UNL     1      -8.917  18.469  67.141  1.00  0.00    -0.273 Cl 
HETATM    2  C   UNL     1     -10.524  17.820  67.592  1.00  0.00    -0.388 C  
HETATM    3  C   UNL     1     -10.495  16.288  67.543  1.00  0.00    -0.302 C  
ENDROOT
BRANCH   3   4
HETATM    4  N   UNL     1     -11.730  15.507  67.883  1.00  0.00    -0.233 NA 
BRANCH   4   5
HETATM    5  C   UNL     1     -11.811  14.321  66.996  1.00  0.00    -0.428 C  
HETATM    6 CL   UNL     1     -10.835  12.415  65.313  1.00  0.00    -0.315 Cl 
HETATM    7  C   UNL     1     -10.534  13.916  66.243  1.00  0.00    -0.287 C  
ENDBRANCH   4   5
BRANCH   4   8
HETATM    8  P   UNL     1     -11.735  15.208  69.526  1.00  0.00    -0.357 P  
HETATM    9  N   UNL     1     -13.114  15.837  70.131  1.00  0.00    -0.666 NA 
HETATM   10  H   UNL     1     -13.914  15.526  69.581  1.00  0.00     0.000 HD 
HETATM   11  C   UNL     1     -13.344  15.571  71.550  1.00  0.00    -0.509 C  
HETATM   12  O   UNL     1     -10.497  15.672  70.233  1.00  0.00    -0.315 OA 
HETATM   13  C   UNL     1     -12.541  14.372  72.074  1.00  0.00    -0.392 C  
HETATM   14  C   UNL     1     -12.439  13.234  71.062  1.00  0.00    -0.336 C  
HETATM   15  O   UNL     1     -11.983  13.639  69.780  1.00  0.00    -0.305 OA 
ENDBRANCH   4   8
ENDBRANCH   3   4
TORSDOF 3
ENDMDL
MODEL       32
REMARK 921   NORMALIZED FREE ENERGY PREDICTED BY IDOCK:   -4.31 KCAL/MOL
REMARK 922        TOTAL FREE ENERGY PREDICTED BY IDOCK:   -5.31 KCAL/MOL
REMARK 923 INTER-LIGAND FREE ENERGY PREDICTED BY IDOCK:   -5.07 KCAL/MOL
REMARK 924 INTRA-LIGAND FREE ENERGY PREDICTED BY IDOCK:   -0.24 KCAL/MOL
REMARK 927      BINDING AFFINITY PREDICTED BY RF-SCORE:    0.00 PKD
ROOT
HETATM    1 CL   UNL     1     -10.525   9.835  70.240  1.00  0.00    -0.323 Cl 
HETATM    2  C   UNL     1     -11.807  10.773  69.411  1.00  0.00    -0.298 C  
HETATM    3  C   UNL     1     -11.168  11.783  68.450  1.00  0.00    -0.251 C  
ENDROOT
BRANCH   3   4
HETATM    4  N   UNL     1     -12.040  12.691  67.633  1.00  0.00    -0.396 NA 
BRANCH   4   5
HETATM    5  C   UNL     1     -12.110  14.016  68.294  1.00  0.00    -0.277 C  
HETATM    6 CL   UNL     1     -11.218  16.046  69.877  1.00  0.00    -0.340 Cl 
HETATM    7  C   UNL     1     -10.982  14.375  69.275  1.00  0.00    -0.255 C  
ENDBRANCH   4   5
BRANCH   4   8
HETATM    8  P   UNL     1     -11.495  12.674  66.055  1.00  0.00    -0.408 P  
HETATM    9  N   UNL     1     -10.776  11.230  65.803  1.00  0.00    -0.250 NA 
HETATM   10  H   UNL     1     -11.388  10.474  66.112  1.00  0.00     0.000 HD 
HETATM   11  C   UNL     1     -10.333  10.991  64.432  1.00  0.00    -0.358 C  
HETATM   12  O   UNL     1     -10.635  13.848  65.695  1.00  0.00    -0.283 OA 
HETATM   13  C   UNL     1     -11.044  11.886  63.407  1.00  0.00    -0.463 C  
HETATM   14  C   UNL     1     -12.518  12.114  63.733  1.00  0.00    -0.514 C  
HETATM   15  O   UNL     1     -12.753  12.561  65.060  1.00  0.00    -0.649 OA 
ENDBRANCH   4   8
ENDBRANCH   3   4
TORSDOF 3
ENDMDL
MODEL       33
REMARK 921   NORMALIZED FREE ENERGY PREDICTED BY IDOCK:   -4.31 KCAL/MOL
REMARK 922        TOTAL FREE ENERGY PREDICTED BY IDOCK:   -5.31 KCAL/MOL
REMARK 923 INTER-LIGAND FREE ENERGY PREDICTED BY IDOCK:   -5.08 KCAL/MOL
REMARK 924 INTRA-LIGAND FREE ENERGY PREDICTED BY IDOCK:   -0.23 KCAL/MOL
REMARK 927      BINDING AFFINITY PREDICTED BY RF-SCORE:    0.00 PKD
ROOT
HETATM    1 CL   UNL     1     -12.380  15.952  71.213  1.00  0.00    -0.478 Cl 
HETATM    2  C   UNL     1     -12.142  14.212  70.863  1.00  0.00    -0.344 C  
HETATM    3  C   UNL     1     -11.609  14.042  69.435  1.00  0.00    -0.297 C  
ENDROOT
BRANCH   3   4
HETATM    4  N   UNL     1     -11.326  12.667  68.903  1.00  0.00    -0.278 NA 
BRANCH   4   5
HETATM    5  C   UNL     1     -12.213  11.693  69.584  1.00  0.00    -0.206 C  
HETATM    6 CL   UNL     1     -12.796   9.597  71.223  1.00  0.00    -0.420 Cl 
HETATM    7  C   UNL     1     -11.541  10.595  70.422  1.00  0.00    -0.351 C  
ENDBRANCH   4   5
BRANCH   4   8
HETATM    8  P   UNL     1     -11.413  12.714  67.236  1.00  0.00    -0.374 P  
HETATM    9  N   UNL     1     -12.503  13.861  66.837  1.00  0.00    -0.483 NA 
HETATM   10  H   UNL     1     -12.300  14.728  67.335  1.00  0.00     0.000 HD 
HETATM   11  C   UNL     1     -12.631  14.121  65.405  1.00  0.00    -0.466 C  
HETATM   12  O   UNL     1     -11.679  11.381  66.602  1.00  0.00    -0.434 OA 
HETATM   13  C   UNL     1     -11.410  13.655  64.599  1.00  0.00    -0.380 C  
HETATM   14  C   UNL     1     -10.089  13.882  65.330  1.00  0.00    -0.305 C  
HETATM   15  O   UNL     1     -10.063  13.365  66.652  1.00  0.00    -0.263 OA 
ENDBRANCH   4   8
ENDBRANCH   3   4
TORSDOF 3
ENDMDL
MODEL       34
REMARK 921   NORMALIZED FREE ENERGY PREDICTED BY IDOCK:   -4.30 KCAL/MOL
REMARK 922        TOTAL FREE ENERGY PREDICTED BY IDOCK:   -5.29 KCAL/MOL
REMARK 923 INTER-LIGAND FREE ENERGY PREDICTED BY IDOCK:   -5.07 KCAL/MOL
REMARK 924 INTRA-LIGAND FREE ENERGY PREDICTED BY IDOCK:   -0.22 KCAL/MOL
REMARK 927      BINDING AFFINITY PREDICTED BY RF-SCORE:    0.00 PKD
ROOT
HETATM    1 CL   UNL     1     -12.412  15.785  72.220  1.00  0.00    -0.487 Cl 
HETATM    2  C   UNL     1     -12.996  15.097  70.673  1.00  0.00    -0.371 C  
HETATM    3  C   UNL     1     -11.824  14.454  69.920  1.00  0.00    -0.323 C  
ENDROOT
BRANCH   3   4
HETATM    4  N   UNL     1     -12.060  13.803  68.588  1.00  0.00    -0.355 NA 
BRANCH   4   5
HETATM    5  C   UNL     1     -11.416  14.620  67.531  1.00  0.00    -0.361 C  
HETATM    6 CL   UNL     1     -11.066  15.569  65.002  1.00  0.00    -0.410 Cl 
HETATM    7  C   UNL     1     -11.910  14.423  66.089  1.00  0.00    -0.382 C  
ENDBRANCH   4   5
BRANCH   4   8
HETATM    8  P   UNL     1     -11.586  12.205  68.686  1.00  0.00    -0.343 P  
HETATM    9  N   UNL     1      -9.959  12.187  68.822  1.00  0.00    -0.402 NA 
HETATM   10  H   UNL     1      -9.661  12.826  69.558  1.00  0.00     0.000 HD 
HETATM   11  C   UNL     1      -9.371  10.866  69.031  1.00  0.00    -0.131 C  
HETATM   12  O   UNL     1     -12.109  11.346  67.574  1.00  0.00    -0.592 OA 
HETATM   13  C   UNL     1     -10.378   9.840  69.572  1.00  0.00    -0.247 C  
HETATM   14  C   UNL     1     -11.359  10.438  70.577  1.00  0.00    -0.341 C  
HETATM   15  O   UNL     1     -12.014  11.611  70.118  1.00  0.00    -0.327 OA 
ENDBRANCH   4   8
ENDBRANCH   3   4
TORSDOF 3
ENDMDL
MODEL       35
REMARK 921   NORMALIZED FREE ENERGY PREDICTED BY IDOCK:   -4.29 KCAL/MOL
REMARK 922        TOTAL FREE ENERGY PREDICTED BY IDOCK:   -5.28 KCAL/MOL
REMARK 923 INTER-LIGAND FREE ENERGY PREDICTED BY IDOCK:   -5.07 KCAL/MOL
REMARK 924 INTRA-LIGAND FREE ENERGY PREDICTED BY IDOCK:   -0.22 KCAL/MOL
REMARK 927      BINDING AFFINITY PREDICTED BY RF-SCORE:    0.00 PKD
ROOT
HETATM    1 CL   UNL     1     -10.493  18.628  67.710  1.00  0.00    -0.445 Cl 
HETATM    2  C   UNL     1     -10.162  17.213  68.757  1.00  0.00    -0.332 C  
HETATM    3  C   UNL     1     -11.417  16.336  68.850  1.00  0.00    -0.282 C  
ENDROOT
BRANCH   3   4
HETATM    4  N   UNL     1     -11.391  15.082  69.675  1.00  0.00    -0.269 NA 
BRANCH   4   5
HETATM    5  C   UNL     1     -12.465  15.153  70.695  1.00  0.00    -0.388 C  
HETATM    6 CL   UNL     1     -13.595  15.919  73.053  1.00  0.00    -0.665 Cl 
HETATM    7  C   UNL     1     -12.136  15.870  72.015  1.00  0.00    -0.506 C  
ENDBRANCH   4   5
BRANCH   4   8
HETATM    8  P   UNL     1     -11.430  13.767  68.645  1.00  0.00    -0.349 P  
HETATM    9  N   UNL     1      -9.918  13.155  68.581  1.00  0.00    -0.392 NA 
HETATM   10  H   UNL     1      -9.553  13.021  69.524  1.00  0.00     0.000 HD 
HETATM   11  C   UNL     1      -9.783  11.922  67.808  1.00  0.00    -0.189 C  
HETATM   12  O   UNL     1     -12.019  14.065  67.299  1.00  0.00    -0.390 OA 
HETATM   13  C   UNL     1     -11.114  11.179  67.627  1.00  0.00    -0.348 C  
HETATM   14  C   UNL     1     -12.008  11.244  68.863  1.00  0.00    -0.310 C  
HETATM   15  O   UNL     1     -12.214  12.558  69.359  1.00  0.00    -0.200 OA 
ENDBRANCH   4   8
ENDBRANCH   3   4
TORSDOF 3
ENDMDL
MODEL       36
REMARK 921   NORMALIZED FREE ENERGY PREDICTED BY IDOCK:   -4.27 KCAL/MOL
REMARK 922        TOTAL FREE ENERGY PREDICTED BY IDOCK:   -5.25 KCAL/MOL
REMARK 923 INTER-LIGAND FREE ENERGY PREDICTED BY IDOCK:   -5.02 KCAL/MOL
REMARK 924 INTRA-LIGAND FREE ENERGY PREDICTED BY IDOCK:   -0.23 KCAL/MOL
REMARK 927      BINDING AFFINITY PREDICTED BY RF-SCORE:    0.00 PKD
ROOT
HETATM    1 CL   UNL     1     -12.222  14.321  64.665  1.00  0.00    -0.466 Cl 
HETATM    2  C   UNL     1     -11.176  14.121  66.105  1.00  0.00    -0.326 C  
HETATM    3  C   UNL     1     -12.029  13.695  67.306  1.00  0.00    -0.381 C  
ENDROOT
BRANCH   3   4
HETATM    4  N   UNL     1     -11.378  13.462  68.639  1.00  0.00    -0.266 NA 
BRANCH   4   5
HETATM    5  C   UNL     1     -12.134  14.198  69.681  1.00  0.00    -0.349 C  
HETATM    6 CL   UNL     1     -12.439  15.919  71.771  1.00  0.00    -0.506 Cl 
HETATM    7  C   UNL     1     -11.323  15.051  70.669  1.00  0.00    -0.271 C  
ENDBRANCH   4   5
BRANCH   4   8
HETATM    8  P   UNL     1     -11.208  11.816  68.866  1.00  0.00    -0.296 P  
HETATM    9  N   UNL     1      -9.614  11.513  69.049  1.00  0.00    -0.413 NA 
HETATM   10  H   UNL     1      -9.213  12.142  69.744  1.00  0.00     0.000 HD 
HETATM   11  C   UNL     1      -9.282  10.127  69.372  1.00  0.00    -0.214 C  
HETATM   12  O   UNL     1     -11.864  10.983  67.807  1.00  0.00    -0.605 OA 
HETATM   13  C   UNL     1     -10.467   9.347  69.957  1.00  0.00    -0.266 C  
HETATM   14  C   UNL     1     -11.336  10.189  70.888  1.00  0.00    -0.340 C  
HETATM   15  O   UNL     1     -11.757  11.422  70.326  1.00  0.00    -0.322 OA 
ENDBRANCH   4   8
ENDBRANCH   3   4
TORSDOF 3
ENDMDL
MODEL       37
REMARK 921   NORMALIZED FREE ENERGY PREDICTED BY IDOCK:   -4.25 KCAL/MOL
REMARK 922        TOTAL FREE ENERGY PREDICTED BY IDOCK:   -5.23 KCAL/MOL
REMARK 923 INTER-LIGAND FREE ENERGY PREDICTED BY IDOCK:   -4.99 KCAL/MOL
REMARK 924 INTRA-LIGAND FREE ENERGY PREDICTED BY IDOCK:   -0.24 KCAL/MOL
REMARK 927      BINDING AFFINITY PREDICTED BY RF-SCORE:    0.00 PKD
ROOT
HETATM    1 CL   UNL     1      -7.853  16.885  66.270  1.00  0.00    -0.345 Cl 
HETATM    2  C   UNL     1      -8.509  15.434  67.090  1.00  0.00    -0.214 C  
HETATM    3  C   UNL     1      -9.988  15.259  66.724  1.00  0.00    -0.242 C  
ENDROOT
BRANCH   3   4
HETATM    4  N   UNL     1     -10.765  14.106  67.289  1.00  0.00    -0.277 NA 
BRANCH   4   5
HETATM    5  C   UNL     1     -11.813  14.629  68.199  1.00  0.00    -0.298 C  
HETATM    6 CL   UNL     1     -12.833  15.467  70.582  1.00  0.00    -0.499 Cl 
HETATM    7  C   UNL     1     -11.465  14.726  69.693  1.00  0.00    -0.292 C  
ENDBRANCH   4   5
BRANCH   4   8
HETATM    8  P   UNL     1     -11.288  13.147  66.026  1.00  0.00    -0.335 P  
HETATM    9  N   UNL     1     -11.702  14.140  64.799  1.00  0.00    -0.388 NA 
HETATM   10  H   UNL     1     -10.954  14.810  64.621  1.00  0.00     0.000 HD 
HETATM   11  C   UNL     1     -12.082  13.466  63.559  1.00  0.00    -0.432 C  
HETATM   12  O   UNL     1     -12.364  12.173  66.405  1.00  0.00    -0.489 OA 
HETATM   13  C   UNL     1     -11.559  12.025  63.475  1.00  0.00    -0.553 C  
HETATM   14  C   UNL     1     -10.162  11.861  64.069  1.00  0.00    -0.361 C  
HETATM   15  O   UNL     1     -10.027  12.383  65.382  1.00  0.00    -0.267 OA 
ENDBRANCH   4   8
ENDBRANCH   3   4
TORSDOF 3
ENDMDL
MODEL       38
REMARK 921   NORMALIZED FREE ENERGY PREDICTED BY IDOCK:   -4.23 KCAL/MOL
REMARK 922        TOTAL FREE ENERGY PREDICTED BY IDOCK:   -5.21 KCAL/MOL
REMARK 923 INTER-LIGAND FREE ENERGY PREDICTED BY IDOCK:   -5.00 KCAL/MOL
REMARK 924 INTRA-LIGAND FREE ENERGY PREDICTED BY IDOCK:   -0.21 KCAL/MOL
REMARK 927      BINDING AFFINITY PREDICTED BY RF-SCORE:    0.00 PKD
ROOT
HETATM    1 CL   UNL     1     -10.461   9.796  70.241  1.00  0.00    -0.323 Cl 
HETATM    2  C   UNL     1     -11.707  10.806  69.444  1.00  0.00    -0.306 C  
HETATM    3  C   UNL     1     -11.100  12.157  69.048  1.00  0.00    -0.237 C  
ENDROOT
BRANCH   3   4
HETATM    4  N   UNL     1     -11.950  13.185  68.359  1.00  0.00    -0.333 NA 
BRANCH   4   5
HETATM    5  C   UNL     1     -11.942  14.433  69.160  1.00  0.00    -0.322 C  
HETATM    6 CL   UNL     1     -12.178  15.925  71.427  1.00  0.00    -0.485 Cl 
HETATM    7  C   UNL     1     -12.349  14.325  70.638  1.00  0.00    -0.361 C  
ENDBRANCH   4   5
BRANCH   4   8
HETATM    8  P   UNL     1     -11.446  13.315  66.773  1.00  0.00    -0.389 P  
HETATM    9  N   UNL     1     -12.087  12.057  65.953  1.00  0.00    -0.493 NA 
HETATM   10  H   UNL     1     -13.088  11.990  66.139  1.00  0.00     0.000 HD 
HETATM   11  C   UNL     1     -11.842  12.069  64.513  1.00  0.00    -0.285 C  
HETATM   12  O   UNL     1      -9.961  13.446  66.614  1.00  0.00    -0.262 OA 
HETATM   13  C   UNL     1     -11.477  13.461  63.977  1.00  0.00    -0.392 C  
HETATM   14  C   UNL     1     -12.257  14.584  64.656  1.00  0.00    -0.460 C  
HETATM   15  O   UNL     1     -12.206  14.548  66.074  1.00  0.00    -0.348 OA 
ENDBRANCH   4   8
ENDBRANCH   3   4
TORSDOF 3
ENDMDL
MODEL       39
REMARK 921   NORMALIZED FREE ENERGY PREDICTED BY IDOCK:   -4.21 KCAL/MOL
REMARK 922        TOTAL FREE ENERGY PREDICTED BY IDOCK:   -5.19 KCAL/MOL
REMARK 923 INTER-LIGAND FREE ENERGY PREDICTED BY IDOCK:   -4.95 KCAL/MOL
REMARK 924 INTRA-LIGAND FREE ENERGY PREDICTED BY IDOCK:   -0.24 KCAL/MOL
REMARK 927      BINDING AFFINITY PREDICTED BY RF-SCORE:    0.00 PKD
ROOT
HETATM    1 CL   UNL     1      -8.956  17.908  68.468  1.00  0.00    -0.292 Cl 
HETATM    2  C   UNL     1     -10.601  17.240  68.234  1.00  0.00    -0.383 C  
HETATM    3  C   UNL     1     -10.748  15.940  69.033  1.00  0.00    -0.251 C  
ENDROOT
BRANCH   3   4
HETATM    4  N   UNL     1     -12.046  15.186  69.000  1.00  0.00    -0.254 NA 
BRANCH   4   5
HETATM    5  C   UNL     1     -11.839  13.899  68.292  1.00  0.00    -0.376 C  
HETATM    6 CL   UNL     1     -11.573  12.283  66.115  1.00  0.00    -0.438 Cl 
HETATM    7  C   UNL     1     -11.950  13.912  66.759  1.00  0.00    -0.438 C  
ENDBRANCH   4   5
BRANCH   4   8
HETATM    8  P   UNL     1     -12.646  15.091  70.555  1.00  0.00    -0.348 P  
HETATM    9  N   UNL     1     -12.625  13.518  70.990  1.00  0.00    -0.365 NA 
HETATM   10  H   UNL     1     -11.708  13.113  70.800  1.00  0.00     0.000 HD 
HETATM   11  C   UNL     1     -13.015  13.254  72.373  1.00  0.00    -0.229 C  
HETATM   12  O   UNL     1     -13.981  15.750  70.734  1.00  0.00    -0.302 OA 
HETATM   13  C   UNL     1     -12.890  14.489  73.278  1.00  0.00    -0.510 C  
HETATM   14  C   UNL     1     -11.673  15.349  72.950  1.00  0.00    -0.401 C  
HETATM   15  O   UNL     1     -11.566  15.701  71.579  1.00  0.00    -0.359 OA 
ENDBRANCH   4   8
ENDBRANCH   3   4
TORSDOF 3
ENDMDL
MODEL       40
REMARK 921   NORMALIZED FREE ENERGY PREDICTED BY IDOCK:   -4.16 KCAL/MOL
REMARK 922        TOTAL FREE ENERGY PREDICTED BY IDOCK:   -5.13 KCAL/MOL
REMARK 923 INTER-LIGAND FREE ENERGY PREDICTED BY IDOCK:   -5.09 KCAL/MOL
REMARK 924 INTRA-LIGAND FREE ENERGY PREDICTED BY IDOCK:   -0.04 KCAL/MOL
REMARK 927      BINDING AFFINITY PREDICTED BY RF-SCORE:    0.00 PKD
ROOT
HETATM    1 CL   UNL     1     -12.078  12.214  63.223  1.00  0.00    -0.558 Cl 
HETATM    2  C   UNL     1     -12.696  12.630  64.852  1.00  0.00    -0.370 C  
HETATM    3  C   UNL     1     -11.657  12.244  65.911  1.00  0.00    -0.393 C  
ENDROOT
BRANCH   3   4
HETATM    4  N   UNL     1     -11.943  12.496  67.363  1.00  0.00    -0.488 NA 
BRANCH   4   5
HETATM    5  C   UNL     1     -11.378  11.384  68.166  1.00  0.00    -0.304 C  
HETATM    6 CL   UNL     1     -11.256   9.663  70.274  1.00  0.00    -0.301 Cl 
HETATM    7  C   UNL     1     -12.032  11.095  69.527  1.00  0.00    -0.355 C  
ENDBRANCH   4   5
BRANCH   4   8
HETATM    8  P   UNL     1     -11.419  14.034  67.750  1.00  0.00    -0.362 P  
HETATM    9  N   UNL     1     -12.287  14.534  69.039  1.00  0.00    -0.579 NA 
HETATM   10  H   UNL     1     -12.277  13.821  69.768  1.00  0.00     0.000 HD 
HETATM   11  C   UNL     1     -11.886  15.826  69.591  1.00  0.00    -0.340 C  
HETATM   12  O   UNL     1     -11.441  14.993  66.598  1.00  0.00    -0.336 OA 
HETATM   13  C   UNL     1     -10.458  16.228  69.198  1.00  0.00    -0.280 C  
HETATM   14  C   UNL     1      -9.491  15.047  69.166  1.00  0.00    -0.195 C  
HETATM   15  O   UNL     1      -9.948  13.947  68.394  1.00  0.00    -0.225 OA 
ENDBRANCH   4   8
ENDBRANCH   3   4
TORSDOF 3
ENDMDL
MODEL       41
REMARK 921   NORMALIZED FREE ENERGY PREDICTED BY IDOCK:   -4.16 KCAL/MOL
REMARK 922        TOTAL FREE ENERGY PREDICTED BY IDOCK:   -5.13 KCAL/MOL
REMARK 923 INTER-LIGAND FREE ENERGY PREDICTED BY IDOCK:   -4.84 KCAL/MOL
REMARK 924 INTRA-LIGAND FREE ENERGY PREDICTED BY IDOCK:   -0.29 KCAL/MOL
REMARK 927      BINDING AFFINITY PREDICTED BY RF-SCORE:    0.00 PKD
ROOT
HETATM    1 CL   UNL     1     -12.396  13.267  63.309  1.00  0.00    -0.477 Cl 
HETATM    2  C   UNL     1     -12.025  14.571  64.479  1.00  0.00    -0.468 C  
HETATM    3  C   UNL     1     -10.700  14.267  65.187  1.00  0.00    -0.394 C  
ENDROOT
BRANCH   3   4
HETATM    4  N   UNL     1     -10.170  15.219  66.220  1.00  0.00    -0.272 NA 
BRANCH   4   5
HETATM    5  C   UNL     1     -10.706  16.574  65.947  1.00  0.00    -0.190 C  
HETATM    6 CL   UNL     1     -10.635  19.296  65.863  1.00  0.00    -0.560 Cl 
HETATM    7  C   UNL     1      -9.841  17.772  66.370  1.00  0.00    -0.324 C  
ENDBRANCH   4   5
BRANCH   4   8
HETATM    8  P   UNL     1     -10.479  14.588  67.734  1.00  0.00    -0.246 P  
HETATM    9  N   UNL     1     -11.796  15.353  68.322  1.00  0.00    -0.485 NA 
HETATM   10  H   UNL     1     -12.546  15.342  67.631  1.00  0.00     0.000 HD 
HETATM   11  C   UNL     1     -12.283  14.848  69.603  1.00  0.00    -0.261 C  
HETATM   12  O   UNL     1      -9.299  14.619  68.659  1.00  0.00    -0.199 OA 
HETATM   13  C   UNL     1     -11.801  13.423  69.910  1.00  0.00    -0.385 C  
HETATM   14  C   UNL     1     -11.756  12.529  68.673  1.00  0.00    -0.325 C  
HETATM   15  O   UNL     1     -11.045  13.090  67.580  1.00  0.00    -0.250 OA 
ENDBRANCH   4   8
ENDBRANCH   3   4
TORSDOF 3
ENDMDL
MODEL       42
REMARK 921   NORMALIZED FREE ENERGY PREDICTED BY IDOCK:   -4.10 KCAL/MOL
REMARK 922        TOTAL FREE ENERGY PREDICTED BY IDOCK:   -5.05 KCAL/MOL
REMARK 923 INTER-LIGAND FREE ENERGY PREDICTED BY IDOCK:   -4.83 KCAL/MOL
REMARK 924 INTRA-LIGAND FREE ENERGY PREDICTED BY IDOCK:   -0.22 KCAL/MOL
REMARK 927      BINDING AFFINITY PREDICTED BY RF-SCORE:    0.00 PKD
ROOT
HETATM    1 CL   UNL     1     -12.281  12.857  63.461  1.00  0.00    -0.597 Cl 
HETATM    2  C   UNL     1     -12.702  13.270  65.152  1.00  0.00    -0.402 C  
HETATM    3  C   UNL     1     -11.527  14.001  65.813  1.00  0.00    -0.318 C  
ENDROOT
BRANCH   3   4
HETATM    4  N   UNL     1     -11.637  14.456  67.239  1.00  0.00    -0.362 NA 
BRANCH   4   5
HETATM    5  C   UNL     1     -11.692  13.266  68.122  1.00  0.00    -0.362 C  
HETATM    6 CL   UNL     1     -12.119  11.931  70.458  1.00  0.00    -0.460 Cl 
HETATM    7  C   UNL     1     -12.012  13.504  69.606  1.00  0.00    -0.337 C  
ENDBRANCH   4   5
BRANCH   4   8
HETATM    8  P   UNL     1     -10.416  15.553  67.544  1.00  0.00    -0.292 P  
HETATM    9  N   UNL     1     -10.165  16.397  66.169  1.00  0.00    -0.333 NA 
HETATM   10  H   UNL     1     -11.051  16.748  65.806  1.00  0.00     0.000 HD 
HETATM   11  C   UNL     1      -9.199  17.488  66.281  1.00  0.00    -0.203 C  
HETATM   12  O   UNL     1      -9.172  14.937  68.110  1.00  0.00    -0.178 OA 
HETATM   13  C   UNL     1      -8.981  17.949  67.729  1.00  0.00    -0.254 C  
HETATM   14  C   UNL     1     -10.262  17.939  68.559  1.00  0.00    -0.390 C  
HETATM   15  O   UNL     1     -10.972  16.711  68.511  1.00  0.00    -0.342 OA 
ENDBRANCH   4   8
ENDBRANCH   3   4
TORSDOF 3
ENDMDL
MODEL       43
REMARK 921   NORMALIZED FREE ENERGY PREDICTED BY IDOCK:   -4.06 KCAL/MOL
REMARK 922        TOTAL FREE ENERGY PREDICTED BY IDOCK:   -5.00 KCAL/MOL
REMARK 923 INTER-LIGAND FREE ENERGY PREDICTED BY IDOCK:   -4.81 KCAL/MOL
REMARK 924 INTRA-LIGAND FREE ENERGY PREDICTED BY IDOCK:   -0.20 KCAL/MOL
REMARK 927      BINDING AFFINITY PREDICTED BY RF-SCORE:    0.00 PKD
ROOT
HETATM    1 CL   UNL     1     -11.486  11.486  68.051  1.00  0.00    -0.369 Cl 
HETATM    2  C   UNL     1     -11.987  13.205  68.004  1.00  0.00    -0.304 C  
HETATM    3  C   UNL     1     -11.242  13.989  69.090  1.00  0.00    -0.269 C  
ENDROOT
BRANCH   3   4
HETATM    4  N   UNL     1     -11.491  15.461  69.252  1.00  0.00    -0.309 NA 
BRANCH   4   5
HETATM    5  C   UNL     1     -11.877  15.733  70.658  1.00  0.00    -0.385 C  
HETATM    6 CL   UNL     1     -13.552  15.766  72.805  1.00  0.00    -0.658 Cl 
HETATM    7  C   UNL     1     -13.337  15.459  71.053  1.00  0.00    -0.480 C  
ENDBRANCH   4   5
BRANCH   4   8
HETATM    8  P   UNL     1     -10.165  16.292  68.670  1.00  0.00    -0.289 P  
HETATM    9  N   UNL     1     -10.193  16.177  67.042  1.00  0.00    -0.279 NA 
HETATM   10  H   UNL     1     -11.116  16.428  66.687  1.00  0.00     0.000 HD 
HETATM   11  C   UNL     1      -9.161  16.944  66.350  1.00  0.00    -0.283 C  
HETATM   12  O   UNL     1      -8.864  15.870  69.283  1.00  0.00    -0.243 OA 
HETATM   13  C   UNL     1      -8.578  18.076  67.208  1.00  0.00    -0.240 C  
HETATM   14  C   UNL     1      -9.625  18.764  68.080  1.00  0.00    -0.332 C  
HETATM   15  O   UNL     1     -10.402  17.872  68.863  1.00  0.00    -0.367 OA 
ENDBRANCH   4   8
ENDBRANCH   3   4
TORSDOF 3
ENDMDL
MODEL       44
REMARK 921   NORMALIZED FREE ENERGY PREDICTED BY IDOCK:   -4.06 KCAL/MOL
REMARK 922        TOTAL FREE ENERGY PREDICTED BY IDOCK:   -5.00 KCAL/MOL
REMARK 923 INTER-LIGAND FREE ENERGY PREDICTED BY IDOCK:   -4.96 KCAL/MOL
REMARK 924 INTRA-LIGAND FREE ENERGY PREDICTED BY IDOCK:   -0.05 KCAL/MOL
REMARK 927      BINDING AFFINITY PREDICTED BY RF-SCORE:    0.00 PKD
ROOT
HETATM    1 CL   UNL     1     -11.666  12.257  63.530  1.00  0.00    -0.564 Cl 
HETATM    2  C   UNL     1     -12.482  12.603  65.087  1.00  0.00    -0.463 C  
HETATM    3  C   UNL     1     -11.554  12.233  66.249  1.00  0.00    -0.385 C  
ENDROOT
BRANCH   3   4
HETATM    4  N   UNL     1     -12.014  12.433  67.664  1.00  0.00    -0.481 NA 
BRANCH   4   5
HETATM    5  C   UNL     1     -11.616  11.254  68.472  1.00  0.00    -0.315 C  
HETATM    6 CL   UNL     1     -11.575   9.667  70.686  1.00  0.00    -0.349 Cl 
HETATM    7  C   UNL     1     -12.087  11.211  69.934  1.00  0.00    -0.344 C  
ENDBRANCH   4   5
BRANCH   4   8
HETATM    8  P   UNL     1     -11.467  13.918  68.196  1.00  0.00    -0.355 P  
HETATM    9  N   UNL     1      -9.893  13.746  68.590  1.00  0.00    -0.347 NA 
HETATM   10  H   UNL     1      -9.388  13.288  67.831  1.00  0.00     0.000 HD 
HETATM   11  C   UNL     1      -9.213  14.980  68.975  1.00  0.00    -0.205 C  
HETATM   12  O   UNL     1     -12.301  14.518  69.288  1.00  0.00    -0.263 OA 
HETATM   13  C   UNL     1      -9.930  16.242  68.473  1.00  0.00    -0.234 C  
HETATM   14  C   UNL     1     -10.535  16.072  67.082  1.00  0.00    -0.308 C  
HETATM   15  O   UNL     1     -11.356  14.922  66.944  1.00  0.00    -0.345 OA 
ENDBRANCH   4   8
ENDBRANCH   3   4
TORSDOF 3
ENDMDL
MODEL       45
REMARK 921   NORMALIZED FREE ENERGY PREDICTED BY IDOCK:   -4.05 KCAL/MOL
REMARK 922        TOTAL FREE ENERGY PREDICTED BY IDOCK:   -5.00 KCAL/MOL
REMARK 923 INTER-LIGAND FREE ENERGY PREDICTED BY IDOCK:   -4.77 KCAL/MOL
REMARK 924 INTRA-LIGAND FREE ENERGY PREDICTED BY IDOCK:   -0.22 KCAL/MOL
REMARK 927      BINDING AFFINITY PREDICTED BY RF-SCORE:    0.00 PKD
ROOT
HETATM    1 CL   UNL     1      -9.733   8.980  66.130  1.00  0.00    -0.343 Cl 
HETATM    2  C   UNL     1     -10.612   9.613  67.556  1.00  0.00    -0.277 C  
HETATM    3  C   UNL     1     -11.232  10.974  67.217  1.00  0.00    -0.258 C  
ENDROOT
BRANCH   3   4
HETATM    4  N   UNL     1     -12.026  11.712  68.255  1.00  0.00    -0.560 NA 
BRANCH   4   5
HETATM    5  C   UNL     1     -11.734  11.131  69.589  1.00  0.00    -0.339 C  
HETATM    6 CL   UNL     1     -12.315   9.795  71.890  1.00  0.00    -0.447 Cl 
HETATM    7  C   UNL     1     -12.911  10.513  70.361  1.00  0.00    -0.206 C  
ENDBRANCH   4   5
BRANCH   4   8
HETATM    8  P   UNL     1     -11.743  13.348  68.078  1.00  0.00    -0.347 P  
HETATM    9  N   UNL     1     -12.371  14.095  69.387  1.00  0.00    -0.491 NA 
HETATM   10  H   UNL     1     -12.051  13.638  70.240  1.00  0.00     0.000 HD 
HETATM   11  C   UNL     1     -12.117  15.532  69.458  1.00  0.00    -0.302 C  
HETATM   12  O   UNL     1     -12.220  13.911  66.773  1.00  0.00    -0.429 OA 
HETATM   13  C   UNL     1     -10.927  15.976  68.596  1.00  0.00    -0.323 C  
HETATM   14  C   UNL     1      -9.780  14.969  68.598  1.00  0.00    -0.219 C  
HETATM   15  O   UNL     1     -10.175  13.641  68.289  1.00  0.00    -0.231 OA 
ENDBRANCH   4   8
ENDBRANCH   3   4
TORSDOF 3
ENDMDL
MODEL       46
REMARK 921   NORMALIZED FREE ENERGY PREDICTED BY IDOCK:   -4.03 KCAL/MOL
REMARK 922        TOTAL FREE ENERGY PREDICTED BY IDOCK:   -4.98 KCAL/MOL
REMARK 923 INTER-LIGAND FREE ENERGY PREDICTED BY IDOCK:   -4.75 KCAL/MOL
REMARK 924 INTRA-LIGAND FREE ENERGY PREDICTED BY IDOCK:   -0.23 KCAL/MOL
REMARK 927      BINDING AFFINITY PREDICTED BY RF-SCORE:    0.00 PKD
ROOT
HETATM    1 CL   UNL     1     -10.934  19.978  67.359  1.00  0.00    -0.278 Cl 
HETATM    2  C   UNL     1     -10.201  18.854  66.172  1.00  0.00    -0.433 C  
HETATM    3  C   UNL     1     -10.045  17.466  66.804  1.00  0.00    -0.313 C  
ENDROOT
BRANCH   3   4
HETATM    4  N   UNL     1      -9.452  16.343  66.004  1.00  0.00    -0.397 NA 
BRANCH   4   5
HETATM    5  C   UNL     1      -8.129  15.991  66.573  1.00  0.00    -0.269 C  
HETATM    6 CL   UNL     1      -6.214  15.878  68.507  1.00  0.00    -0.105 Cl 
HETATM    7  C   UNL     1      -7.814  16.497  67.990  1.00  0.00    -0.157 C  
ENDBRANCH   4   5
BRANCH   4   8
HETATM    8  P   UNL     1     -10.573  15.109  65.906  1.00  0.00    -0.379 P  
HETATM    9  N   UNL     1     -11.176  15.117  64.389  1.00  0.00    -0.676 NA 
HETATM   10  H   UNL     1     -10.416  15.136  63.709  1.00  0.00     0.000 HD 
HETATM   11  C   UNL     1     -12.098  14.026  64.085  1.00  0.00    -0.422 C  
HETATM   12  O   UNL     1     -11.624  15.155  66.975  1.00  0.00    -0.295 OA 
HETATM   13  C   UNL     1     -11.949  12.831  65.038  1.00  0.00    -0.456 C  
HETATM   14  C   UNL     1     -10.500  12.556  65.430  1.00  0.00    -0.282 C  
HETATM   15  O   UNL     1      -9.807  13.695  65.918  1.00  0.00    -0.289 OA 
ENDBRANCH   4   8
ENDBRANCH   3   4
TORSDOF 3
ENDMDL
MODEL       47
REMARK 921   NORMALIZED FREE ENERGY PREDICTED BY IDOCK:   -4.03 KCAL/MOL
REMARK 922        TOTAL FREE ENERGY PREDICTED BY IDOCK:   -4.97 KCAL/MOL
REMARK 923 INTER-LIGAND FREE ENERGY PREDICTED BY IDOCK:   -4.75 KCAL/MOL
REMARK 924 INTRA-LIGAND FREE ENERGY PREDICTED BY IDOCK:   -0.23 KCAL/MOL
REMARK 927      BINDING AFFINITY PREDICTED BY RF-SCORE:    0.00 PKD
ROOT
HETATM    1 CL   UNL     1     -12.167  14.020  70.917  1.00  0.00    -0.421 Cl 
HETATM    2  C   UNL     1     -11.945  13.772  69.157  1.00  0.00    -0.361 C  
HETATM    3  C   UNL     1     -11.961  12.272  68.842  1.00  0.00    -0.248 C  
ENDROOT
BRANCH   3   4
HETATM    4  N   UNL     1     -11.794  11.805  67.425  1.00  0.00    -0.624 NA 
BRANCH   4   5
HETATM    5  C   UNL     1     -11.622  12.986  66.545  1.00  0.00    -0.356 C  
HETATM    6 CL   UNL     1     -12.219  14.625  64.452  1.00  0.00    -0.511 Cl 
HETATM    7  C   UNL     1     -12.534  13.085  65.312  1.00  0.00    -0.499 C  
ENDBRANCH   4   5
BRANCH   4   8
HETATM    8  P   UNL     1     -10.578  10.662  67.381  1.00  0.00    -0.284 P  
HETATM    9  N   UNL     1     -11.208   9.260  67.931  1.00  0.00    -0.444 NA 
HETATM   10  H   UNL     1     -12.083   9.055  67.449  1.00  0.00     0.000 HD 
HETATM   11  C   UNL     1     -10.310   8.109  67.859  1.00  0.00    -0.220 C  
HETATM   12  O   UNL     1      -9.323  11.079  68.089  1.00  0.00    -0.160 OA 
HETATM   13  C   UNL     1      -9.165   8.303  66.855  1.00  0.00    -0.197 C  
HETATM   14  C   UNL     1      -9.595   9.051  65.596  1.00  0.00    -0.167 C  
HETATM   15  O   UNL     1     -10.269  10.273  65.851  1.00  0.00    -0.254 OA 
ENDBRANCH   4   8
ENDBRANCH   3   4
TORSDOF 3
ENDMDL
MODEL       48
REMARK 921   NORMALIZED FREE ENERGY PREDICTED BY IDOCK:   -4.02 KCAL/MOL
REMARK 922        TOTAL FREE ENERGY PREDICTED BY IDOCK:   -4.96 KCAL/MOL
REMARK 923 INTER-LIGAND FREE ENERGY PREDICTED BY IDOCK:   -4.74 KCAL/MOL
REMARK 924 INTRA-LIGAND FREE ENERGY PREDICTED BY IDOCK:   -0.22 KCAL/MOL
REMARK 927      BINDING AFFINITY PREDICTED BY RF-SCORE:    0.00 PKD
ROOT
HETATM    1 CL   UNL     1     -11.705  12.120  69.566  1.00  0.00    -0.383 Cl 
HETATM    2  C   UNL     1     -11.666  12.757  67.893  1.00  0.00    -0.357 C  
HETATM    3  C   UNL     1     -10.282  13.348  67.598  1.00  0.00    -0.228 C  
ENDROOT
BRANCH   3   4
HETATM    4  N   UNL     1      -9.997  13.947  66.252  1.00  0.00    -0.298 NA 
BRANCH   4   5
HETATM    5  C   UNL     1     -11.104  13.603  65.327  1.00  0.00    -0.301 C  
HETATM    6 CL   UNL     1     -12.373  12.128  63.420  1.00  0.00    -0.669 Cl 
HETATM    7  C   UNL     1     -10.883  12.420  64.372  1.00  0.00    -0.337 C  
ENDBRANCH   4   5
BRANCH   4   8
HETATM    8  P   UNL     1      -9.671  15.572  66.451  1.00  0.00    -0.336 P  
HETATM    9  N   UNL     1     -10.574  16.387  65.362  1.00  0.00    -0.548 NA 
HETATM   10  H   UNL     1     -11.545  16.079  65.409  1.00  0.00     0.000 HD 
HETATM   11  C   UNL     1     -10.501  17.843  65.464  1.00  0.00     0.004 C  
HETATM   12  O   UNL     1      -8.212  15.911  66.400  1.00  0.00    -0.283 OA 
HETATM   13  C   UNL     1     -10.012  18.324  66.838  1.00  0.00    -0.356 C  
HETATM   14  C   UNL     1     -10.541  17.475  67.991  1.00  0.00    -0.384 C  
HETATM   15  O   UNL     1     -10.329  16.081  67.828  1.00  0.00    -0.265 OA 
ENDBRANCH   4   8
ENDBRANCH   3   4
TORSDOF 3
ENDMDL
MODEL       49
REMARK 921   NORMALIZED FREE ENERGY PREDICTED BY IDOCK:   -4.02 KCAL/MOL
REMARK 922        TOTAL FREE ENERGY PREDICTED BY IDOCK:   -4.96 KCAL/MOL
REMARK 923 INTER-LIGAND FREE ENERGY PREDICTED BY IDOCK:   -4.80 KCAL/MOL
REMARK 924 INTRA-LIGAND FREE ENERGY PREDICTED BY IDOCK:   -0.16 KCAL/MOL
REMARK 927      BINDING AFFINITY PREDICTED BY RF-SCORE:    0.00 PKD
ROOT
HETATM    1 CL   UNL     1     -11.611   8.025  72.468  1.00  0.00    -0.447 Cl 
HETATM    2  C   UNL     1     -12.471   9.051  71.278  1.00  0.00    -0.289 C  
HETATM    3  C   UNL     1     -11.627  10.291  70.961  1.00  0.00    -0.343 C  
ENDROOT
BRANCH   3   4
HETATM    4  N   UNL     1     -12.135  11.310  69.983  1.00  0.00    -0.333 NA 
BRANCH   4   5
HETATM    5  C   UNL     1     -12.450  12.562  70.711  1.00  0.00    -0.268 C  
HETATM    6 CL   UNL     1     -13.473  14.054  72.749  1.00  0.00    -0.627 Cl 
HETATM    7  C   UNL     1     -13.297  12.441  71.988  1.00  0.00    -0.407 C  
ENDBRANCH   4   5
BRANCH   4   8
HETATM    8  P   UNL     1     -11.041  11.435  68.727  1.00  0.00    -0.286 P  
HETATM    9  N   UNL     1     -11.898  11.634  67.352  1.00  0.00    -0.630 NA 
HETATM   10  H   UNL     1     -12.586  12.377  67.471  1.00  0.00     0.000 HD 
HETATM   11  C   UNL     1     -11.097  11.873  66.154  1.00  0.00    -0.326 C  
HETATM   12  O   UNL     1     -10.053  10.309  68.666  1.00  0.00    -0.161 OA 
HETATM   13  C   UNL     1      -9.683  12.380  66.469  1.00  0.00    -0.245 C  
HETATM   14  C   UNL     1      -9.644  13.344  67.653  1.00  0.00    -0.219 C  
HETATM   15  O   UNL     1     -10.287  12.853  68.819  1.00  0.00    -0.216 OA 
ENDBRANCH   4   8
ENDBRANCH   3   4
TORSDOF 3
ENDMDL
MODEL       50
REMARK 921   NORMALIZED FREE ENERGY PREDICTED BY IDOCK:   -3.99 KCAL/MOL
REMARK 922        TOTAL FREE ENERGY PREDICTED BY IDOCK:   -4.93 KCAL/MOL
REMARK 923 INTER-LIGAND FREE ENERGY PREDICTED BY IDOCK:   -4.66 KCAL/MOL
REMARK 924 INTRA-LIGAND FREE ENERGY PREDICTED BY IDOCK:   -0.26 KCAL/MOL
REMARK 927      BINDING AFFINITY PREDICTED BY RF-SCORE:    0.00 PKD
ROOT
HETATM    1 CL   UNL     1     -12.652  10.509  70.484  1.00  0.00    -0.423 Cl 
HETATM    2  C   UNL     1     -11.075  10.815  69.693  1.00  0.00    -0.279 C  
HETATM    3  C   UNL     1     -11.183  10.511  68.194  1.00  0.00    -0.293 C  
ENDROOT
BRANCH   3   4
HETATM    4  N   UNL     1      -9.985  10.693  67.307  1.00  0.00    -0.183 NA 
BRANCH   4   5
HETATM    5  C   UNL     1      -9.511   9.362  66.857  1.00  0.00    -0.156 C  
HETATM    6 CL   UNL     1      -9.705   6.680  66.419  1.00  0.00    -0.170 Cl 
HETATM    7  C   UNL     1     -10.429   8.159  67.125  1.00  0.00    -0.326 C  
ENDBRANCH   4   5
BRANCH   4   8
HETATM    8  P   UNL     1     -10.373  11.789  66.108  1.00  0.00    -0.250 P  
HETATM    9  N   UNL     1     -10.340  10.988  64.687  1.00  0.00    -0.330 NA 
HETATM   10  H   UNL     1     -10.887  10.130  64.753  1.00  0.00     0.000 HD 
HETATM   11  C   UNL     1     -10.765  11.768  63.527  1.00  0.00    -0.436 C  
HETATM   12  O   UNL     1      -9.532  13.030  66.123  1.00  0.00    -0.238 OA 
HETATM   13  C   UNL     1     -11.614  12.990  63.905  1.00  0.00    -0.508 C  
HETATM   14  C   UNL     1     -12.564  12.720  65.069  1.00  0.00    -0.468 C  
HETATM   15  O   UNL     1     -11.936  12.156  66.210  1.00  0.00    -0.605 OA 
ENDBRANCH   4   8
ENDBRANCH   3   4
TORSDOF 3
ENDMDL
MODEL       51
REMARK 921   NORMALIZED FREE ENERGY PREDICTED BY IDOCK:   -3.95 KCAL/MOL
REMARK 922        TOTAL FREE ENERGY PREDICTED BY IDOCK:   -4.88 KCAL/MOL
REMARK 923 INTER-LIGAND FREE ENERGY PREDICTED BY IDOCK:   -4.68 KCAL/MOL
REMARK 924 INTRA-LIGAND FREE ENERGY PREDICTED BY IDOCK:   -0.20 KCAL/MOL
REMARK 927      BINDING AFFINITY PREDICTED BY RF-SCORE:    0.00 PKD
ROOT
HETATM    1 CL   UNL     1      -6.339  13.842  67.626  1.00  0.00    -0.171 Cl 
HETATM    2  C   UNL     1      -7.957  14.428  68.126  1.00  0.00    -0.136 C  
HETATM    3  C   UNL     1      -8.652  15.101  66.937  1.00  0.00    -0.257 C  
ENDROOT
BRANCH   3   4
HETATM    4  N   UNL     1     -10.029  15.675  67.105  1.00  0.00    -0.237 NA 
BRANCH   4   5
HETATM    5  C   UNL     1     -10.412  15.600  68.535  1.00  0.00    -0.236 C  
HETATM    6 CL   UNL     1     -12.086  15.119  70.630  1.00  0.00    -0.343 Cl 
HETATM    7  C   UNL     1     -11.873  15.245  68.856  1.00  0.00    -0.320 C  
ENDBRANCH   4   5
BRANCH   4   8
HETATM    8  P   UNL     1     -10.062  17.190  66.403  1.00  0.00    -0.302 P  
HETATM    9  N   UNL     1     -10.688  18.221  67.503  1.00  0.00    -0.406 NA 
HETATM   10  H   UNL     1     -10.212  18.113  68.398  1.00  0.00     0.000 HD 
HETATM   11  C   UNL     1     -10.692  19.626  67.100  1.00  0.00    -0.464 C  
HETATM   12  O   UNL     1     -10.754  17.230  65.074  1.00  0.00    -0.708 OA 
HETATM   13  C   UNL     1      -9.688  19.932  65.980  1.00  0.00    -0.469 C  
HETATM   14  C   UNL     1      -8.383  19.152  66.118  1.00  0.00    -0.244 C  
HETATM   15  O   UNL     1      -8.560  17.753  66.284  1.00  0.00    -0.384 OA 
ENDBRANCH   4   8
ENDBRANCH   3   4
TORSDOF 3
ENDMDL
MODEL       52
REMARK 921   NORMALIZED FREE ENERGY PREDICTED BY IDOCK:   -3.95 KCAL/MOL
REMARK 922        TOTAL FREE ENERGY PREDICTED BY IDOCK:   -4.88 KCAL/MOL
REMARK 923 INTER-LIGAND FREE ENERGY PREDICTED BY IDOCK:   -4.67 KCAL/MOL
REMARK 924 INTRA-LIGAND FREE ENERGY PREDICTED BY IDOCK:   -0.21 KCAL/MOL
REMARK 927      BINDING AFFINITY PREDICTED BY RF-SCORE:    0.00 PKD
ROOT
HETATM    1 CL   UNL     1     -12.176  11.279  70.707  1.00  0.00    -0.473 Cl 
HETATM    2  C   UNL     1     -11.160  11.773  69.317  1.00  0.00    -0.218 C  
HETATM    3  C   UNL     1     -11.886  12.851  68.505  1.00  0.00    -0.313 C  
ENDROOT
BRANCH   3   4
HETATM    4  N   UNL     1     -11.234  13.432  67.284  1.00  0.00    -0.285 NA 
BRANCH   4   5
HETATM    5  C   UNL     1     -12.064  13.114  66.097  1.00  0.00    -0.417 C  
HETATM    6 CL   UNL     1     -12.593  11.987  63.673  1.00  0.00    -0.640 Cl 
HETATM    7  C   UNL     1     -11.388  12.341  64.952  1.00  0.00    -0.325 C  
ENDBRANCH   4   5
BRANCH   4   8
HETATM    8  P   UNL     1     -10.925  15.049  67.563  1.00  0.00    -0.320 P  
HETATM    9  N   UNL     1      -9.373  15.170  68.056  1.00  0.00    -0.185 NA 
HETATM   10  H   UNL     1      -8.761  14.663  67.418  1.00  0.00     0.000 HD 
HETATM   11  C   UNL     1      -8.889  16.535  68.243  1.00  0.00    -0.210 C  
HETATM   12  O   UNL     1     -11.906  15.706  68.487  1.00  0.00    -0.355 OA 
HETATM   13  C   UNL     1      -9.726  17.577  67.488  1.00  0.00    -0.278 C  
HETATM   14  C   UNL     1     -10.201  17.086  66.123  1.00  0.00    -0.337 C  
HETATM   15  O   UNL     1     -10.854  15.827  66.157  1.00  0.00    -0.309 OA 
ENDBRANCH   4   8
ENDBRANCH   3   4
TORSDOF 3
ENDMDL
MODEL       53
REMARK 921   NORMALIZED FREE ENERGY PREDICTED BY IDOCK:   -3.95 KCAL/MOL
REMARK 922        TOTAL FREE ENERGY PREDICTED BY IDOCK:   -4.87 KCAL/MOL
REMARK 923 INTER-LIGAND FREE ENERGY PREDICTED BY IDOCK:   -4.63 KCAL/MOL
REMARK 924 INTRA-LIGAND FREE ENERGY PREDICTED BY IDOCK:   -0.24 KCAL/MOL
REMARK 927      BINDING AFFINITY PREDICTED BY RF-SCORE:    0.00 PKD
ROOT
HETATM    1 CL   UNL     1      -9.717  10.788  63.258  1.00  0.00    -0.362 Cl 
HETATM    2  C   UNL     1     -11.044  11.653  64.095  1.00  0.00    -0.364 C  
HETATM    3  C   UNL     1     -10.671  11.869  65.566  1.00  0.00    -0.283 C  
ENDROOT
BRANCH   3   4
HETATM    4  N   UNL     1     -11.625  12.578  66.482  1.00  0.00    -0.369 NA 
BRANCH   4   5
HETATM    5  C   UNL     1     -11.618  11.903  67.803  1.00  0.00    -0.323 C  
HETATM    6 CL   UNL     1     -10.961   9.948  69.583  1.00  0.00    -0.265 Cl 
HETATM    7  C   UNL     1     -10.934  10.529  67.888  1.00  0.00    -0.295 C  
ENDBRANCH   4   5
BRANCH   4   8
HETATM    8  P   UNL     1     -11.258  14.207  66.477  1.00  0.00    -0.351 P  
HETATM    9  N   UNL     1      -9.643  14.342  66.282  1.00  0.00    -0.352 NA 
HETATM   10  H   UNL     1      -9.336  13.774  65.493  1.00  0.00     0.000 HD 
HETATM   11  C   UNL     1      -9.150  15.710  66.141  1.00  0.00    -0.342 C  
HETATM   12  O   UNL     1     -11.789  14.954  67.663  1.00  0.00    -0.352 OA 
HETATM   13  C   UNL     1     -10.241  16.700  65.711  1.00  0.00    -0.328 C  
HETATM   14  C   UNL     1     -11.224  16.106  64.704  1.00  0.00    -0.298 C  
HETATM   15  O   UNL     1     -11.783  14.865  65.106  1.00  0.00    -0.348 OA 
ENDBRANCH   4   8
ENDBRANCH   3   4
TORSDOF 3
ENDMDL
MODEL       54
REMARK 921   NORMALIZED FREE ENERGY PREDICTED BY IDOCK:   -3.94 KCAL/MOL
REMARK 922        TOTAL FREE ENERGY PREDICTED BY IDOCK:   -4.87 KCAL/MOL
REMARK 923 INTER-LIGAND FREE ENERGY PREDICTED BY IDOCK:   -4.70 KCAL/MOL
REMARK 924 INTRA-LIGAND FREE ENERGY PREDICTED BY IDOCK:   -0.17 KCAL/MOL
REMARK 927      BINDING AFFINITY PREDICTED BY RF-SCORE:    0.00 PKD
ROOT
HETATM    1 CL   UNL     1      -7.472  15.893  68.642  1.00  0.00    -0.149 Cl 
HETATM    2  C   UNL     1      -8.387  14.359  68.783  1.00  0.00    -0.126 C  
HETATM    3  C   UNL     1      -9.880  14.627  68.555  1.00  0.00    -0.228 C  
ENDROOT
BRANCH   3   4
HETATM    4  N   UNL     1     -10.860  13.492  68.621  1.00  0.00    -0.254 NA 
BRANCH   4   5
HETATM    5  C   UNL     1     -11.945  13.846  69.568  1.00  0.00    -0.343 C  
HETATM    6 CL   UNL     1     -13.483  13.548  71.796  1.00  0.00    -0.466 Cl 
HETATM    7  C   UNL     1     -12.203  12.880  70.736  1.00  0.00    -0.260 C  
ENDBRANCH   4   5
BRANCH   4   8
HETATM    8  P   UNL     1     -11.328  13.102  67.066  1.00  0.00    -0.346 P  
HETATM    9  N   UNL     1     -12.393  14.239  66.578  1.00  0.00    -0.506 NA 
HETATM   10  H   UNL     1     -12.016  15.171  66.751  1.00  0.00     0.000 HD 
HETATM   11  C   UNL     1     -12.829  14.121  65.189  1.00  0.00    -0.294 C  
HETATM   12  O   UNL     1     -11.831  11.698  66.915  1.00  0.00    -0.577 OA 
HETATM   13  C   UNL     1     -11.867  13.293  64.325  1.00  0.00    -0.469 C  
HETATM   14  C   UNL     1     -10.399  13.526  64.677  1.00  0.00    -0.385 C  
HETATM   15  O   UNL     1     -10.106  13.383  66.058  1.00  0.00    -0.293 OA 
ENDBRANCH   4   8
ENDBRANCH   3   4
TORSDOF 3
ENDMDL
MODEL       55
REMARK 921   NORMALIZED FREE ENERGY PREDICTED BY IDOCK:   -3.92 KCAL/MOL
REMARK 922        TOTAL FREE ENERGY PREDICTED BY IDOCK:   -4.85 KCAL/MOL
REMARK 923 INTER-LIGAND FREE ENERGY PREDICTED BY IDOCK:   -4.63 KCAL/MOL
REMARK 924 INTRA-LIGAND FREE ENERGY PREDICTED BY IDOCK:   -0.22 KCAL/MOL
REMARK 927      BINDING AFFINITY PREDICTED BY RF-SCORE:    0.00 PKD
ROOT
HETATM    1 CL   UNL     1      -8.603   8.284  66.468  1.00  0.00    -0.130 Cl 
HETATM    2  C   UNL     1     -10.109   8.794  67.293  1.00  0.00    -0.236 C  
HETATM    3  C   UNL     1     -10.236  10.321  67.235  1.00  0.00    -0.218 C  
ENDROOT
BRANCH   3   4
HETATM    4  N   UNL     1     -11.423  10.995  67.859  1.00  0.00    -0.477 NA 
BRANCH   4   5
HETATM    5  C   UNL     1     -11.346  10.842  69.332  1.00  0.00    -0.285 C  
HETATM    6 CL   UNL     1     -12.320  10.330  71.824  1.00  0.00    -0.429 Cl 
HETATM    7  C   UNL     1     -12.661  10.573  70.082  1.00  0.00    -0.178 C  
ENDBRANCH   4   5
BRANCH   4   8
HETATM    8  P   UNL     1     -11.515  12.558  67.277  1.00  0.00    -0.376 P  
HETATM    9  N   UNL     1     -10.028  12.965  66.738  1.00  0.00    -0.237 NA 
HETATM   10  H   UNL     1      -9.668  12.238  66.120  1.00  0.00     0.000 HD 
HETATM   11  C   UNL     1      -9.943  14.270  66.087  1.00  0.00    -0.314 C  
HETATM   12  O   UNL     1     -12.093  13.538  68.253  1.00  0.00    -0.354 OA 
HETATM   13  C   UNL     1     -11.303  14.784  65.593  1.00  0.00    -0.343 C  
HETATM   14  C   UNL     1     -12.192  13.677  65.033  1.00  0.00    -0.421 C  
HETATM   15  O   UNL     1     -12.346  12.564  65.900  1.00  0.00    -0.626 OA 
ENDBRANCH   4   8
ENDBRANCH   3   4
TORSDOF 3
ENDMDL
MODEL       56
REMARK 921   NORMALIZED FREE ENERGY PREDICTED BY IDOCK:   -3.91 KCAL/MOL
REMARK 922        TOTAL FREE ENERGY PREDICTED BY IDOCK:   -4.83 KCAL/MOL
REMARK 923 INTER-LIGAND FREE ENERGY PREDICTED BY IDOCK:   -4.62 KCAL/MOL
REMARK 924 INTRA-LIGAND FREE ENERGY PREDICTED BY IDOCK:   -0.21 KCAL/MOL
REMARK 927      BINDING AFFINITY PREDICTED BY RF-SCORE:    0.00 PKD
ROOT
HETATM    1 CL   UNL     1     -13.054   9.754  71.557  1.00  0.00    -0.469 Cl 
HETATM    2  C   UNL     1     -11.649  10.431  70.676  1.00  0.00    -0.349 C  
HETATM    3  C   UNL     1     -12.141  11.348  69.550  1.00  0.00    -0.302 C  
ENDROOT
BRANCH   3   4
HETATM    4  N   UNL     1     -11.147  12.040  68.663  1.00  0.00    -0.233 NA 
BRANCH   4   5
HETATM    5  C   UNL     1     -11.300  11.533  67.278  1.00  0.00    -0.290 C  
HETATM    6 CL   UNL     1     -10.554  11.133  64.689  1.00  0.00    -0.395 Cl 
HETATM    7  C   UNL     1     -10.218  11.927  66.260  1.00  0.00    -0.216 C  
ENDBRANCH   4   5
BRANCH   4   8
HETATM    8  P   UNL     1     -11.304  13.689  68.874  1.00  0.00    -0.327 P  
HETATM    9  N   UNL     1     -11.691  13.946  70.438  1.00  0.00    -0.489 NA 
HETATM   10  H   UNL     1     -11.049  13.439  71.047  1.00  0.00     0.000 HD 
HETATM   11  C   UNL     1     -11.761  15.350  70.835  1.00  0.00    -0.354 C  
HETATM   12  O   UNL     1     -12.243  14.341  67.903  1.00  0.00    -0.311 OA 
HETATM   13  C   UNL     1     -10.994  16.281  69.885  1.00  0.00    -0.365 C  
HETATM   14  C   UNL     1      -9.695  15.668  69.368  1.00  0.00    -0.292 C  
HETATM   15  O   UNL     1      -9.849  14.373  68.808  1.00  0.00    -0.232 OA 
ENDBRANCH   4   8
ENDBRANCH   3   4
TORSDOF 3
ENDMDL
MODEL       57
REMARK 921   NORMALIZED FREE ENERGY PREDICTED BY IDOCK:   -3.90 KCAL/MOL
REMARK 922        TOTAL FREE ENERGY PREDICTED BY IDOCK:   -4.82 KCAL/MOL
REMARK 923 INTER-LIGAND FREE ENERGY PREDICTED BY IDOCK:   -4.59 KCAL/MOL
REMARK 924 INTRA-LIGAND FREE ENERGY PREDICTED BY IDOCK:   -0.23 KCAL/MOL
REMARK 927      BINDING AFFINITY PREDICTED BY RF-SCORE:    0.00 PKD
ROOT
HETATM    1 CL   UNL     1      -7.125   9.937  63.016  1.00  0.00    -0.119 Cl 
HETATM    2  C   UNL     1      -8.784   9.623  63.613  1.00  0.00    -0.224 C  
HETATM    3  C   UNL     1      -9.095  10.560  64.786  1.00  0.00    -0.211 C  
ENDROOT
BRANCH   3   4
HETATM    4  N   UNL     1     -10.434  10.491  65.461  1.00  0.00    -0.201 NA 
BRANCH   4   5
HETATM    5  C   UNL     1     -10.253   9.971  66.838  1.00  0.00    -0.238 C  
HETATM    6 CL   UNL     1      -9.993   8.041  68.744  1.00  0.00    -0.187 Cl 
HETATM    7  C   UNL     1     -10.331   8.448  67.032  1.00  0.00    -0.315 C  
ENDBRANCH   4   5
BRANCH   4   8
HETATM    8  P   UNL     1     -11.179  11.979  65.320  1.00  0.00    -0.270 P  
HETATM    9  N   UNL     1     -10.007  13.091  65.091  1.00  0.00    -0.488 NA 
HETATM   10  H   UNL     1      -9.378  12.792  64.346  1.00  0.00     0.000 HD 
HETATM   11  C   UNL     1     -10.484  14.448  64.834  1.00  0.00    -0.423 C  
HETATM   12  O   UNL     1     -12.109  12.304  66.450  1.00  0.00    -0.623 OA 
HETATM   13  C   UNL     1     -11.937  14.490  64.342  1.00  0.00    -0.467 C  
HETATM   14  C   UNL     1     -12.282  13.338  63.401  1.00  0.00    -0.403 C  
HETATM   15  O   UNL     1     -11.947  12.056  63.909  1.00  0.00    -0.418 OA 
ENDBRANCH   4   8
ENDBRANCH   3   4
TORSDOF 3
ENDMDL
MODEL       58
REMARK 921   NORMALIZED FREE ENERGY PREDICTED BY IDOCK:   -3.89 KCAL/MOL
REMARK 922        TOTAL FREE ENERGY PREDICTED BY IDOCK:   -4.81 KCAL/MOL
REMARK 923 INTER-LIGAND FREE ENERGY PREDICTED BY IDOCK:   -4.58 KCAL/MOL
REMARK 924 INTRA-LIGAND FREE ENERGY PREDICTED BY IDOCK:   -0.24 KCAL/MOL
REMARK 927      BINDING AFFINITY PREDICTED BY RF-SCORE:    0.00 PKD
ROOT
HETATM    1 CL   UNL     1     -11.513  16.209  70.633  1.00  0.00    -0.408 Cl 
HETATM    2  C   UNL     1     -10.188  15.525  69.640  1.00  0.00    -0.286 C  
HETATM    3  C   UNL     1     -10.764  14.527  68.629  1.00  0.00    -0.253 C  
ENDROOT
BRANCH   3   4
HETATM    4  N   UNL     1      -9.848  13.816  67.676  1.00  0.00    -0.229 NA 
BRANCH   4   5
HETATM    5  C   UNL     1      -9.492  12.493  68.243  1.00  0.00    -0.201 C  
HETATM    6 CL   UNL     1      -9.948  10.175  69.599  1.00  0.00    -0.256 Cl 
HETATM    7  C   UNL     1     -10.553  11.786  69.101  1.00  0.00    -0.069 C  
ENDBRANCH   4   5
BRANCH   4   8
HETATM    8  P   UNL     1     -10.553  13.811  66.162  1.00  0.00    -0.302 P  
HETATM    9  N   UNL     1      -9.790  12.675  65.273  1.00  0.00    -0.448 NA 
HETATM   10  H   UNL     1      -9.744  11.797  65.789  1.00  0.00     0.000 HD 
HETATM   11  C   UNL     1     -10.352  12.451  63.943  1.00  0.00    -0.423 C  
HETATM   12  O   UNL     1     -10.602  15.160  65.509  1.00  0.00    -0.314 OA 
HETATM   13  C   UNL     1     -11.803  12.936  63.815  1.00  0.00    -0.571 C  
HETATM   14  C   UNL     1     -12.629  12.688  65.075  1.00  0.00    -0.430 C  
HETATM   15  O   UNL     1     -12.026  13.173  66.266  1.00  0.00    -0.387 OA 
ENDBRANCH   4   8
ENDBRANCH   3   4
TORSDOF 3
ENDMDL
MODEL       59
REMARK 921   NORMALIZED FREE ENERGY PREDICTED BY IDOCK:   -3.89 KCAL/MOL
REMARK 922        TOTAL FREE ENERGY PREDICTED BY IDOCK:   -4.80 KCAL/MOL
REMARK 923 INTER-LIGAND FREE ENERGY PREDICTED BY IDOCK:   -4.57 KCAL/MOL
REMARK 924 INTRA-LIGAND FREE ENERGY PREDICTED BY IDOCK:   -0.24 KCAL/MOL
REMARK 927      BINDING AFFINITY PREDICTED BY RF-SCORE:    0.00 PKD
ROOT
HETATM    1 CL   UNL     1      -7.139  11.631  69.267  1.00  0.00    -0.091 Cl 
HETATM    2  C   UNL     1      -7.495  11.411  67.525  1.00  0.00    -0.113 C  
HETATM    3  C   UNL     1      -8.971  11.036  67.344  1.00  0.00    -0.141 C  
ENDROOT
BRANCH   3   4
HETATM    4  N   UNL     1      -9.517  10.799  65.966  1.00  0.00    -0.186 NA 
BRANCH   4   5
HETATM    5  C   UNL     1      -9.995   9.398  65.871  1.00  0.00    -0.256 C  
HETATM    6 CL   UNL     1     -10.865   7.006  66.840  1.00  0.00    -0.416 Cl 
HETATM    7  C   UNL     1     -10.200   8.633  67.188  1.00  0.00    -0.283 C  
ENDBRANCH   4   5
BRANCH   4   8
HETATM    8  P   UNL     1     -10.635  11.991  65.624  1.00  0.00    -0.287 P  
HETATM    9  N   UNL     1      -9.817  13.395  65.469  1.00  0.00    -0.485 NA 
HETATM   10  H   UNL     1      -9.028  13.275  64.834  1.00  0.00     0.000 HD 
HETATM   11  C   UNL     1     -10.627  14.539  65.056  1.00  0.00    -0.437 C  
HETATM   12  O   UNL     1     -11.772  12.058  66.598  1.00  0.00    -0.522 OA 
HETATM   13  C   UNL     1     -11.942  14.130  64.378  1.00  0.00    -0.478 C  
HETATM   14  C   UNL     1     -11.797  12.901  63.485  1.00  0.00    -0.536 C  
HETATM   15  O   UNL     1     -11.179  11.793  64.123  1.00  0.00    -0.339 OA 
ENDBRANCH   4   8
ENDBRANCH   3   4
TORSDOF 3
ENDMDL
MODEL       60
REMARK 921   NORMALIZED FREE ENERGY PREDICTED BY IDOCK:   -3.89 KCAL/MOL
REMARK 922        TOTAL FREE ENERGY PREDICTED BY IDOCK:   -4.80 KCAL/MOL
REMARK 923 INTER-LIGAND FREE ENERGY PREDICTED BY IDOCK:   -4.57 KCAL/MOL
REMARK 924 INTRA-LIGAND FREE ENERGY PREDICTED BY IDOCK:   -0.24 KCAL/MOL
REMARK 927      BINDING AFFINITY PREDICTED BY RF-SCORE:    0.00 PKD
ROOT
HETATM    1 CL   UNL     1     -11.218  13.396  64.327  1.00  0.00    -0.403 Cl 
HETATM    2  C   UNL     1     -11.705  13.830  65.995  1.00  0.00    -0.363 C  
HETATM    3  C   UNL     1     -10.930  15.072  66.451  1.00  0.00    -0.336 C  
ENDROOT
BRANCH   3   4
HETATM    4  N   UNL     1     -11.165  15.636  67.822  1.00  0.00    -0.322 NA 
BRANCH   4   5
HETATM    5  C   UNL     1     -11.377  14.519  68.774  1.00  0.00    -0.274 C  
HETATM    6 CL   UNL     1     -12.464  13.288  70.948  1.00  0.00    -0.445 Cl 
HETATM    7  C   UNL     1     -12.273  14.792  69.992  1.00  0.00    -0.333 C  
ENDBRANCH   4   5
BRANCH   4   8
HETATM    8  P   UNL     1      -9.925  16.695  68.181  1.00  0.00    -0.284 P  
HETATM    9  N   UNL     1      -9.322  17.238  66.765  1.00  0.00    -0.250 NA 
HETATM   10  H   UNL     1     -10.078  17.564  66.163  1.00  0.00     0.000 HD 
HETATM   11  C   UNL     1      -8.293  18.268  66.886  1.00  0.00    -0.245 C  
HETATM   12  O   UNL     1      -8.887  16.127  69.102  1.00  0.00    -0.246 OA 
HETATM   13  C   UNL     1      -8.322  18.989  68.240  1.00  0.00    -0.369 C  
HETATM   14  C   UNL     1      -9.737  19.220  68.764  1.00  0.00    -0.446 C  
HETATM   15  O   UNL     1     -10.543  18.052  68.784  1.00  0.00    -0.249 OA 
ENDBRANCH   4   8
ENDBRANCH   3   4
TORSDOF 3
ENDMDL
MODEL       61
REMARK 921   NORMALIZED FREE ENERGY PREDICTED BY IDOCK:   -3.89 KCAL/MOL
REMARK 922        TOTAL FREE ENERGY PREDICTED BY IDOCK:   -4.80 KCAL/MOL
REMARK 923 INTER-LIGAND FREE ENERGY PREDICTED BY IDOCK:   -4.59 KCAL/MOL
REMARK 924 INTRA-LIGAND FREE ENERGY PREDICTED BY IDOCK:   -0.21 KCAL/MOL
REMARK 927      BINDING AFFINITY PREDICTED BY RF-SCORE:    0.00 PKD
ROOT
HETATM    1 CL   UNL     1      -6.740  10.394  68.670  1.00  0.00    -0.052 Cl 
HETATM    2  C   UNL     1      -8.329  10.058  67.916  1.00  0.00    -0.117 C  
HETATM    3  C   UNL     1      -9.312  11.182  68.263  1.00  0.00    -0.176 C  
ENDROOT
BRANCH   3   4
HETATM    4  N   UNL     1     -10.720  11.130  67.744  1.00  0.00    -0.207 NA 
BRANCH   4   5
HETATM    5  C   UNL     1     -11.646  11.570  68.815  1.00  0.00    -0.316 C  
HETATM    6 CL   UNL     1     -12.837  11.458  71.262  1.00  0.00    -0.506 Cl 
HETATM    7  C   UNL     1     -11.739  10.691  70.072  1.00  0.00    -0.324 C  
ENDBRANCH   4   5
BRANCH   4   8
HETATM    8  P   UNL     1     -10.789  11.976  66.306  1.00  0.00    -0.302 P  
HETATM    9  N   UNL     1     -10.405  10.934  65.109  1.00  0.00    -0.286 NA 
HETATM   10  H   UNL     1     -10.956  10.081  65.196  1.00  0.00     0.000 HD 
HETATM   11  C   UNL     1     -10.522  11.476  63.758  1.00  0.00    -0.405 C  
HETATM   12  O   UNL     1      -9.971  13.233  66.299  1.00  0.00    -0.279 OA 
HETATM   13  C   UNL     1     -11.432  12.711  63.683  1.00  0.00    -0.563 C  
HETATM   14  C   UNL     1     -12.645  12.615  64.605  1.00  0.00    -0.440 C  
HETATM   15  O   UNL     1     -12.325  12.291  65.949  1.00  0.00    -0.618 OA 
ENDBRANCH   4   8
ENDBRANCH   3   4
TORSDOF 3
ENDMDL
MODEL       62
REMARK 921   NORMALIZED FREE ENERGY PREDICTED BY IDOCK:   -3.88 KCAL/MOL
REMARK 922        TOTAL FREE ENERGY PREDICTED BY IDOCK:   -4.80 KCAL/MOL
REMARK 923 INTER-LIGAND FREE ENERGY PREDICTED BY IDOCK:   -4.57 KCAL/MOL
REMARK 924 INTRA-LIGAND FREE ENERGY PREDICTED BY IDOCK:   -0.23 KCAL/MOL
REMARK 927      BINDING AFFINITY PREDICTED BY RF-SCORE:    0.00 PKD
ROOT
HETATM    1 CL   UNL     1     -11.712  10.857  68.133  1.00  0.00    -0.312 Cl 
HETATM    2  C   UNL     1     -11.697  12.257  69.251  1.00  0.00    -0.330 C  
HETATM    3  C   UNL     1     -11.874  13.555  68.455  1.00  0.00    -0.373 C  
ENDROOT
BRANCH   3   4
HETATM    4  N   UNL     1     -11.897  14.873  69.171  1.00  0.00    -0.309 NA 
BRANCH   4   5
HETATM    5  C   UNL     1     -12.141  14.634  70.614  1.00  0.00    -0.317 C  
HETATM    6 CL   UNL     1     -13.407  14.972  73.002  1.00  0.00    -0.559 Cl 
HETATM    7  C   UNL     1     -13.218  15.491  71.298  1.00  0.00    -0.515 C  
ENDBRANCH   4   5
BRANCH   4   8
HETATM    8  P   UNL     1     -10.508  15.715  68.781  1.00  0.00    -0.252 P  
HETATM    9  N   UNL     1      -9.238  14.813  69.269  1.00  0.00    -0.390 NA 
HETATM   10  H   UNL     1      -9.336  13.856  68.931  1.00  0.00     0.000 HD 
HETATM   11  C   UNL     1      -7.927  15.346  68.908  1.00  0.00    -0.177 C  
HETATM   12  O   UNL     1     -10.484  17.123  69.296  1.00  0.00    -0.337 OA 
HETATM   13  C   UNL     1      -7.985  16.346  67.745  1.00  0.00    -0.160 C  
HETATM   14  C   UNL     1      -9.005  15.961  66.676  1.00  0.00    -0.268 C  
HETATM   15  O   UNL     1     -10.301  15.686  67.186  1.00  0.00    -0.272 OA 
ENDBRANCH   4   8
ENDBRANCH   3   4
TORSDOF 3
ENDMDL
MODEL       63
REMARK 921   NORMALIZED FREE ENERGY PREDICTED BY IDOCK:   -3.88 KCAL/MOL
REMARK 922        TOTAL FREE ENERGY PREDICTED BY IDOCK:   -4.79 KCAL/MOL
REMARK 923 INTER-LIGAND FREE ENERGY PREDICTED BY IDOCK:   -4.67 KCAL/MOL
REMARK 924 INTRA-LIGAND FREE ENERGY PREDICTED BY IDOCK:   -0.12 KCAL/MOL
REMARK 927      BINDING AFFINITY PREDICTED BY RF-SCORE:    0.00 PKD
ROOT
HETATM    1 CL   UNL     1     -11.640  15.865  68.640  1.00  0.00    -0.395 Cl 
HETATM    2  C   UNL     1     -11.450  14.502  67.494  1.00  0.00    -0.356 C  
HETATM    3  C   UNL     1     -12.013  13.220  68.120  1.00  0.00    -0.304 C  
ENDROOT
BRANCH   3   4
HETATM    4  N   UNL     1     -11.971  11.933  67.350  1.00  0.00    -0.601 NA 
BRANCH   4   5
HETATM    5  C   UNL     1     -11.389  12.190  66.011  1.00  0.00    -0.358 C  
HETATM    6 CL   UNL     1     -11.448  12.841  63.366  1.00  0.00    -0.527 Cl 
HETATM    7  C   UNL     1     -12.367  12.468  64.858  1.00  0.00    -0.470 C  
ENDBRANCH   4   5
BRANCH   4   8
HETATM    8  P   UNL     1     -11.208  10.778  68.284  1.00  0.00    -0.277 P  
HETATM    9  N   UNL     1      -9.764  11.393  68.734  1.00  0.00    -0.321 NA 
HETATM   10  H   UNL     1      -9.886  12.327  69.123  1.00  0.00     0.000 HD 
HETATM   11  C   UNL     1      -8.998  10.558  69.656  1.00  0.00     0.061 C  
HETATM   12  O   UNL     1     -11.115   9.431  67.632  1.00  0.00    -0.149 OA 
HETATM   13  C   UNL     1      -9.866   9.536  70.404  1.00  0.00    -0.329 C  
HETATM   14  C   UNL     1     -11.238  10.086  70.788  1.00  0.00    -0.352 C  
HETATM   15  O   UNL     1     -11.947  10.674  69.709  1.00  0.00    -0.291 OA 
ENDBRANCH   4   8
ENDBRANCH   3   4
TORSDOF 3
ENDMDL
MODEL       64
REMARK 921   NORMALIZED FREE ENERGY PREDICTED BY IDOCK:   -3.87 KCAL/MOL
REMARK 922        TOTAL FREE ENERGY PREDICTED BY IDOCK:   -4.79 KCAL/MOL
REMARK 923 INTER-LIGAND FREE ENERGY PREDICTED BY IDOCK:   -4.56 KCAL/MOL
REMARK 924 INTRA-LIGAND FREE ENERGY PREDICTED BY IDOCK:   -0.23 KCAL/MOL
REMARK 927      BINDING AFFINITY PREDICTED BY RF-SCORE:    0.00 PKD
ROOT
HETATM    1 CL   UNL     1      -6.031  12.223  67.529  1.00  0.00    -0.121 Cl 
HETATM    2  C   UNL     1      -7.516  13.189  67.794  1.00  0.00    -0.150 C  
HETATM    3  C   UNL     1      -8.750  12.319  67.530  1.00  0.00    -0.177 C  
ENDROOT
BRANCH   3   4
HETATM    4  N   UNL     1     -10.123  12.904  67.688  1.00  0.00    -0.217 NA 
BRANCH   4   5
HETATM    5  C   UNL     1     -10.642  13.286  66.352  1.00  0.00    -0.284 C  
HETATM    6 CL   UNL     1     -12.287  14.582  64.610  1.00  0.00    -0.459 Cl 
HETATM    7  C   UNL     1     -11.898  14.171  66.310  1.00  0.00    -0.411 C  
ENDBRANCH   4   5
BRANCH   4   8
HETATM    8  P   UNL     1     -11.057  11.840  68.572  1.00  0.00    -0.289 P  
HETATM    9  N   UNL     1     -10.043  10.946  69.487  1.00  0.00    -0.437 NA 
HETATM   10  H   UNL     1      -9.395  11.553  69.988  1.00  0.00     0.000 HD 
HETATM   11  C   UNL     1     -10.696  10.028  70.417  1.00  0.00    -0.307 C  
HETATM   12  O   UNL     1     -12.001  11.023  67.742  1.00  0.00    -0.609 OA 
HETATM   13  C   UNL     1     -12.151  10.414  70.718  1.00  0.00    -0.463 C  
HETATM   14  C   UNL     1     -12.361  11.922  70.818  1.00  0.00    -0.320 C  
HETATM   15  O   UNL     1     -11.853  12.651  69.711  1.00  0.00    -0.315 OA 
ENDBRANCH   4   8
ENDBRANCH   3   4
TORSDOF 3
ENDMDL
MODEL       65
REMARK 921   NORMALIZED FREE ENERGY PREDICTED BY IDOCK:   -3.87 KCAL/MOL
REMARK 922        TOTAL FREE ENERGY PREDICTED BY IDOCK:   -4.78 KCAL/MOL
REMARK 923 INTER-LIGAND FREE ENERGY PREDICTED BY IDOCK:   -4.54 KCAL/MOL
REMARK 924 INTRA-LIGAND FREE ENERGY PREDICTED BY IDOCK:   -0.24 KCAL/MOL
REMARK 927      BINDING AFFINITY PREDICTED BY RF-SCORE:    0.00 PKD
ROOT
HETATM    1 CL   UNL     1     -10.681   4.952  73.990  1.00  0.00    -0.349 Cl 
HETATM    2  C   UNL     1     -11.524   5.613  72.555  1.00  0.00    -0.279 C  
HETATM    3  C   UNL     1     -11.119   7.077  72.348  1.00  0.00    -0.259 C  
ENDROOT
BRANCH   3   4
HETATM    4  N   UNL     1     -11.694   7.855  71.201  1.00  0.00    -0.284 NA 
BRANCH   4   5
HETATM    5  C   UNL     1     -11.851   9.272  71.609  1.00  0.00    -0.383 C  
HETATM    6 CL   UNL     1     -13.210  11.598  72.015  1.00  0.00    -0.562 Cl 
HETATM    7  C   UNL     1     -13.219   9.929  71.363  1.00  0.00    -0.400 C  
ENDBRANCH   4   5
BRANCH   4   8
HETATM    8  P   UNL     1     -10.762   7.572  69.844  1.00  0.00    -0.210 P  
HETATM    9  N   UNL     1     -11.574   6.507  68.910  1.00  0.00    -0.563 NA 
HETATM   10  H   UNL     1     -12.537   6.816  68.780  1.00  0.00     0.000 HD 
HETATM   11  C   UNL     1     -10.956   6.224  67.617  1.00  0.00    -0.342 C  
HETATM   12  O   UNL     1      -9.354   7.158  70.148  1.00  0.00    -0.159 OA 
HETATM   13  C   UNL     1      -9.967   7.311  67.172  1.00  0.00    -0.279 C  
HETATM   14  C   UNL     1     -10.426   8.720  67.538  1.00  0.00    -0.271 C  
HETATM   15  O   UNL     1     -10.785   8.876  68.902  1.00  0.00    -0.197 OA 
ENDBRANCH   4   8
ENDBRANCH   3   4
TORSDOF 3
ENDMDL
MODEL       66
REMARK 921   NORMALIZED FREE ENERGY PREDICTED BY IDOCK:   -3.87 KCAL/MOL
REMARK 922        TOTAL FREE ENERGY PREDICTED BY IDOCK:   -4.78 KCAL/MOL
REMARK 923 INTER-LIGAND FREE ENERGY PREDICTED BY IDOCK:   -4.65 KCAL/MOL
REMARK 924 INTRA-LIGAND FREE ENERGY PREDICTED BY IDOCK:   -0.13 KCAL/MOL
REMARK 927      BINDING AFFINITY PREDICTED BY RF-SCORE:    0.00 PKD
ROOT
HETATM    1 CL   UNL     1     -11.110   6.840  66.993  1.00  0.00    -0.460 Cl 
HETATM    2  C   UNL     1     -10.416   8.443  67.389  1.00  0.00    -0.283 C  
HETATM    3  C   UNL     1      -9.990   9.154  66.099  1.00  0.00    -0.268 C  
ENDROOT
BRANCH   3   4
HETATM    4  N   UNL     1      -9.378  10.522  66.168  1.00  0.00    -0.170 NA 
BRANCH   4   5
HETATM    5  C   UNL     1      -8.087  10.511  65.438  1.00  0.00    -0.141 C  
HETATM    6 CL   UNL     1      -6.456  10.105  63.294  1.00  0.00    -0.136 Cl 
HETATM    7  C   UNL     1      -8.088   9.933  64.014  1.00  0.00    -0.152 C  
ENDBRANCH   4   5
BRANCH   4   8
HETATM    8  P   UNL     1     -10.510  11.639  65.658  1.00  0.00    -0.285 P  
HETATM    9  N   UNL     1      -9.717  13.031  65.348  1.00  0.00    -0.488 NA 
HETATM   10  H   UNL     1      -8.911  12.851  64.750  1.00  0.00     0.000 HD 
HETATM   11  C   UNL     1     -10.538  14.098  64.782  1.00  0.00    -0.418 C  
HETATM   12  O   UNL     1     -11.671  11.800  66.594  1.00  0.00    -0.548 OA 
HETATM   13  C   UNL     1     -11.830  13.580  64.132  1.00  0.00    -0.483 C  
HETATM   14  C   UNL     1     -11.640  12.253  63.401  1.00  0.00    -0.447 C  
HETATM   15  O   UNL     1     -11.016  11.246  64.183  1.00  0.00    -0.372 OA 
ENDBRANCH   4   8
ENDBRANCH   3   4
TORSDOF 3
ENDMDL
MODEL       67
REMARK 921   NORMALIZED FREE ENERGY PREDICTED BY IDOCK:   -3.86 KCAL/MOL
REMARK 922        TOTAL FREE ENERGY PREDICTED BY IDOCK:   -4.77 KCAL/MOL
REMARK 923 INTER-LIGAND FREE ENERGY PREDICTED BY IDOCK:   -4.53 KCAL/MOL
REMARK 924 INTRA-LIGAND FREE ENERGY PREDICTED BY IDOCK:   -0.24 KCAL/MOL
REMARK 927      BINDING AFFINITY PREDICTED BY RF-SCORE:    0.00 PKD
ROOT
HETATM    1 CL   UNL     1     -11.128  19.887  67.253  1.00  0.00    -0.278 Cl 
HETATM    2  C   UNL     1     -10.507  18.793  65.978  1.00  0.00    -0.432 C  
HETATM    3  C   UNL     1      -9.940  17.522  66.621  1.00  0.00    -0.314 C  
ENDROOT
BRANCH   3   4
HETATM    4  N   UNL     1      -9.358  16.443  65.755  1.00  0.00    -0.491 NA 
BRANCH   4   5
HETATM    5  C   UNL     1      -7.955  16.198  66.166  1.00  0.00     0.088 C  
HETATM    6 CL   UNL     1      -5.448  16.905  66.967  1.00  0.00    -0.186 Cl 
HETATM    7  C   UNL     1      -7.061  17.429  66.389  1.00  0.00    -0.293 C  
ENDBRANCH   4   5
BRANCH   4   8
HETATM    8  P   UNL     1     -10.383  15.124  65.787  1.00  0.00    -0.402 P  
HETATM    9  N   UNL     1      -9.486  13.820  66.185  1.00  0.00    -0.471 NA 
HETATM   10  H   UNL     1      -8.926  14.018  67.014  1.00  0.00     0.000 HD 
HETATM   11  C   UNL     1     -10.242  12.584  66.370  1.00  0.00    -0.244 C  
HETATM   12  O   UNL     1     -11.186  14.947  64.533  1.00  0.00    -0.341 OA 
HETATM   13  C   UNL     1     -11.732  12.827  66.646  1.00  0.00    -0.459 C  
HETATM   14  C   UNL     1     -11.985  14.048  67.526  1.00  0.00    -0.395 C  
HETATM   15  O   UNL     1     -11.345  15.231  67.072  1.00  0.00    -0.317 OA 
ENDBRANCH   4   8
ENDBRANCH   3   4
TORSDOF 3
ENDMDL
MODEL       68
REMARK 921   NORMALIZED FREE ENERGY PREDICTED BY IDOCK:   -3.86 KCAL/MOL
REMARK 922        TOTAL FREE ENERGY PREDICTED BY IDOCK:   -4.77 KCAL/MOL
REMARK 923 INTER-LIGAND FREE ENERGY PREDICTED BY IDOCK:   -4.55 KCAL/MOL
REMARK 924 INTRA-LIGAND FREE ENERGY PREDICTED BY IDOCK:   -0.22 KCAL/MOL
REMARK 927      BINDING AFFINITY PREDICTED BY RF-SCORE:    0.00 PKD
ROOT
HETATM    1 CL   UNL     1     -13.037  13.855  72.997  1.00  0.00    -0.432 Cl 
HETATM    2  C   UNL     1     -13.406  13.982  71.249  1.00  0.00    -0.272 C  
HETATM    3  C   UNL     1     -12.102  13.955  70.443  1.00  0.00    -0.351 C  
ENDROOT
BRANCH   3   4
HETATM    4  N   UNL     1     -12.148  14.046  68.946  1.00  0.00    -0.347 NA 
BRANCH   4   5
HETATM    5  C   UNL     1     -11.430  15.270  68.515  1.00  0.00    -0.342 C  
HETATM    6 CL   UNL     1     -10.077  17.607  68.878  1.00  0.00    -0.362 Cl 
HETATM    7  C   UNL     1     -11.003  16.260  69.611  1.00  0.00    -0.346 C  
ENDBRANCH   4   5
BRANCH   4   8
HETATM    8  P   UNL     1     -11.605  12.602  68.307  1.00  0.00    -0.348 P  
HETATM    9  N   UNL     1     -11.639  12.745  66.681  1.00  0.00    -0.350 NA 
HETATM   10  H   UNL     1     -11.175  13.606  66.394  1.00  0.00     0.000 HD 
HETATM   11  C   UNL     1     -11.089  11.607  65.949  1.00  0.00    -0.264 C  
HETATM   12  O   UNL     1     -12.332  11.397  68.823  1.00  0.00    -0.480 OA 
HETATM   13  C   UNL     1     -10.155  10.739  66.804  1.00  0.00    -0.267 C  
HETATM   14  C   UNL     1      -9.291  11.555  67.762  1.00  0.00    -0.168 C  
HETATM   15  O   UNL     1     -10.023  12.469  68.564  1.00  0.00    -0.219 OA 
ENDBRANCH   4   8
ENDBRANCH   3   4
TORSDOF 3
ENDMDL
MODEL       69
REMARK 921   NORMALIZED FREE ENERGY PREDICTED BY IDOCK:   -3.86 KCAL/MOL
REMARK 922        TOTAL FREE ENERGY PREDICTED BY IDOCK:   -4.77 KCAL/MOL
REMARK 923 INTER-LIGAND FREE ENERGY PREDICTED BY IDOCK:   -4.62 KCAL/MOL
REMARK 924 INTRA-LIGAND FREE ENERGY PREDICTED BY IDOCK:   -0.15 KCAL/MOL
REMARK 927      BINDING AFFINITY PREDICTED BY RF-SCORE:    0.00 PKD
ROOT
HETATM    1 CL   UNL     1      -7.125  17.795  65.899  1.00  0.00    -0.326 Cl 
HETATM    2  C   UNL     1      -8.804  17.379  66.365  1.00  0.00    -0.242 C  
HETATM    3  C   UNL     1      -9.105  15.929  65.969  1.00  0.00    -0.328 C  
ENDROOT
BRANCH   3   4
HETATM    4  N   UNL     1     -10.455  15.342  66.258  1.00  0.00    -0.296 NA 
BRANCH   4   5
HETATM    5  C   UNL     1     -10.734  14.267  65.274  1.00  0.00    -0.366 C  
HETATM    6 CL   UNL     1     -12.127  13.025  63.290  1.00  0.00    -0.612 Cl 
HETATM    7  C   UNL     1     -12.043  14.366  64.475  1.00  0.00    -0.481 C  
ENDBRANCH   4   5
BRANCH   4   8
HETATM    8  P   UNL     1     -10.514  14.909  67.869  1.00  0.00    -0.258 P  
HETATM    9  N   UNL     1     -10.970  16.230  68.712  1.00  0.00    -0.323 NA 
HETATM   10  H   UNL     1     -11.801  16.646  68.292  1.00  0.00     0.000 HD 
HETATM   11  C   UNL     1     -11.184  16.009  70.140  1.00  0.00    -0.373 C  
HETATM   12  O   UNL     1      -9.254  14.273  68.376  1.00  0.00    -0.188 OA 
HETATM   13  C   UNL     1     -11.427  14.533  70.489  1.00  0.00    -0.240 C  
HETATM   14  C   UNL     1     -12.262  13.802  69.441  1.00  0.00    -0.278 C  
HETATM   15  O   UNL     1     -11.779  13.945  68.114  1.00  0.00    -0.313 OA 
ENDBRANCH   4   8
ENDBRANCH   3   4
TORSDOF 3
ENDMDL
MODEL       70
REMARK 921   NORMALIZED FREE ENERGY PREDICTED BY IDOCK:   -3.85 KCAL/MOL
REMARK 922        TOTAL FREE ENERGY PREDICTED BY IDOCK:   -4.77 KCAL/MOL
REMARK 923 INTER-LIGAND FREE ENERGY PREDICTED BY IDOCK:   -4.56 KCAL/MOL
REMARK 924 INTRA-LIGAND FREE ENERGY PREDICTED BY IDOCK:   -0.21 KCAL/MOL
REMARK 927      BINDING AFFINITY PREDICTED BY RF-SCORE:    0.00 PKD
ROOT
HETATM    1 CL   UNL     1     -10.545  19.122  67.569  1.00  0.00    -0.546 Cl 
HETATM    2  C   UNL     1      -9.680  17.558  67.690  1.00  0.00    -0.275 C  
HETATM    3  C   UNL     1      -9.943  16.724  66.431  1.00  0.00    -0.304 C  
ENDROOT
BRANCH   3   4
HETATM    4  N   UNL     1      -9.323  15.365  66.293  1.00  0.00    -0.293 NA 
BRANCH   4   5
HETATM    5  C   UNL     1      -8.666  15.002  67.572  1.00  0.00    -0.184 C  
HETATM    6 CL   UNL     1      -6.715  13.921  69.135  1.00  0.00    -0.110 Cl 
HETATM    7  C   UNL     1      -7.383  14.159  67.490  1.00  0.00    -0.175 C  
ENDBRANCH   4   5
BRANCH   4   8
HETATM    8  P   UNL     1     -10.483  14.306  65.725  1.00  0.00    -0.351 P  
HETATM    9  N   UNL     1      -9.935  13.693  64.315  1.00  0.00    -0.729 NA 
HETATM   10  H   UNL     1      -8.980  13.352  64.427  1.00  0.00     0.000 HD 
HETATM   11  C   UNL     1     -10.776  12.656  63.723  1.00  0.00    -0.417 C  
HETATM   12  O   UNL     1     -11.857  14.899  65.634  1.00  0.00    -0.265 OA 
HETATM   13  C   UNL     1     -11.717  11.994  64.740  1.00  0.00    -0.342 C  
HETATM   14  C   UNL     1     -11.076  11.806  66.113  1.00  0.00    -0.307 C  
HETATM   15  O   UNL     1     -10.490  12.985  66.643  1.00  0.00    -0.260 OA 
ENDBRANCH   4   8
ENDBRANCH   3   4
TORSDOF 3
ENDMDL
MODEL       71
REMARK 921   NORMALIZED FREE ENERGY PREDICTED BY IDOCK:   -3.85 KCAL/MOL
REMARK 922        TOTAL FREE ENERGY PREDICTED BY IDOCK:   -4.76 KCAL/MOL
REMARK 923 INTER-LIGAND FREE ENERGY PREDICTED BY IDOCK:   -4.51 KCAL/MOL
REMARK 924 INTRA-LIGAND FREE ENERGY PREDICTED BY IDOCK:   -0.25 KCAL/MOL
REMARK 927      BINDING AFFINITY PREDICTED BY RF-SCORE:    0.00 PKD
ROOT
HETATM    1 CL   UNL     1      -9.042  16.262  68.739  1.00  0.00    -0.234 Cl 
HETATM    2  C   UNL     1     -10.116  14.836  68.873  1.00  0.00    -0.237 C  
HETATM    3  C   UNL     1      -9.518  13.664  68.087  1.00  0.00    -0.217 C  
ENDROOT
BRANCH   3   4
HETATM    4  N   UNL     1     -10.236  12.347  68.047  1.00  0.00    -0.213 NA 
BRANCH   4   5
HETATM    5  C   UNL     1     -11.282  12.336  69.098  1.00  0.00    -0.242 C  
HETATM    6 CL   UNL     1     -12.776  11.241  71.096  1.00  0.00    -0.499 Cl 
HETATM    7  C   UNL     1     -11.551  11.001  69.811  1.00  0.00    -0.325 C  
ENDBRANCH   4   5
BRANCH   4   8
HETATM    8  P   UNL     1     -10.750  12.068  66.483  1.00  0.00    -0.282 P  
HETATM    9  N   UNL     1      -9.965  13.123  65.516  1.00  0.00    -0.426 NA 
HETATM   10  H   UNL     1      -8.964  13.097  65.709  1.00  0.00     0.000 HD 
HETATM   11  C   UNL     1     -10.208  12.950  64.086  1.00  0.00    -0.286 C  
HETATM   12  O   UNL     1     -12.240  12.091  66.318  1.00  0.00    -0.548 OA 
HETATM   13  C   UNL     1     -10.733  11.551  63.731  1.00  0.00    -0.474 C  
HETATM   14  C   UNL     1     -10.092  10.444  64.564  1.00  0.00    -0.295 C  
HETATM   15  O   UNL     1     -10.140  10.673  65.964  1.00  0.00    -0.231 OA 
ENDBRANCH   4   8
ENDBRANCH   3   4
TORSDOF 3
ENDMDL
MODEL       72
REMARK 921   NORMALIZED FREE ENERGY PREDICTED BY IDOCK:   -3.83 KCAL/MOL
REMARK 922        TOTAL FREE ENERGY PREDICTED BY IDOCK:   -4.74 KCAL/MOL
REMARK 923 INTER-LIGAND FREE ENERGY PREDICTED BY IDOCK:   -4.61 KCAL/MOL
REMARK 924 INTRA-LIGAND FREE ENERGY PREDICTED BY IDOCK:   -0.14 KCAL/MOL
REMARK 927      BINDING AFFINITY PREDICTED BY RF-SCORE:    0.00 PKD
ROOT
HETATM    1 CL   UNL     1     -10.504  16.417  66.910  1.00  0.00    -0.303 Cl 
HETATM    2  C   UNL     1     -10.603  14.662  66.563  1.00  0.00    -0.300 C  
HETATM    3  C   UNL     1     -11.748  14.041  67.371  1.00  0.00    -0.388 C  
ENDROOT
BRANCH   3   4
HETATM    4  N   UNL     1     -12.035  12.572  67.250  1.00  0.00    -0.505 NA 
BRANCH   4   5
HETATM    5  C   UNL     1     -11.660  12.117  65.890  1.00  0.00    -0.364 C  
HETATM    6 CL   UNL     1     -11.918  11.913  63.186  1.00  0.00    -0.400 Cl 
HETATM    7  C   UNL     1     -12.612  12.478  64.738  1.00  0.00    -0.413 C  
ENDBRANCH   4   5
BRANCH   4   8
HETATM    8  P   UNL     1     -11.306  11.781  68.527  1.00  0.00    -0.332 P  
HETATM    9  N   UNL     1     -11.819  10.231  68.497  1.00  0.00    -0.710 NA 
HETATM   10  H   UNL     1     -11.710   9.843  67.560  1.00  0.00     0.000 HD 
HETATM   11  C   UNL     1     -11.194   9.354  69.483  1.00  0.00    -0.033 C  
HETATM   12  O   UNL     1     -11.499  12.455  69.852  1.00  0.00    -0.215 OA 
HETATM   13  C   UNL     1      -9.859   9.898  70.010  1.00  0.00    -0.291 C  
HETATM   14  C   UNL     1      -9.031  10.594  68.933  1.00  0.00    -0.168 C  
HETATM   15  O   UNL     1      -9.742  11.585  68.207  1.00  0.00    -0.185 OA 
ENDBRANCH   4   8
ENDBRANCH   3   4
TORSDOF 3
ENDMDL
MODEL       73
REMARK 921   NORMALIZED FREE ENERGY PREDICTED BY IDOCK:   -3.82 KCAL/MOL
REMARK 922        TOTAL FREE ENERGY PREDICTED BY IDOCK:   -4.73 KCAL/MOL
REMARK 923 INTER-LIGAND FREE ENERGY PREDICTED BY IDOCK:   -4.54 KCAL/MOL
REMARK 924 INTRA-LIGAND FREE ENERGY PREDICTED BY IDOCK:   -0.19 KCAL/MOL
REMARK 927      BINDING AFFINITY PREDICTED BY RF-SCORE:    0.00 PKD
ROOT
HETATM    1 CL   UNL     1     -12.215  10.989  70.643  1.00  0.00    -0.448 Cl 
HETATM    2  C   UNL     1     -11.108  11.549  69.351  1.00  0.00    -0.226 C  
HETATM    3  C   UNL     1     -11.901  12.333  68.298  1.00  0.00    -0.310 C  
ENDROOT
BRANCH   3   4
HETATM    4  N   UNL     1     -11.192  12.910  67.108  1.00  0.00    -0.276 NA 
BRANCH   4   5
HETATM    5  C   UNL     1     -12.020  12.686  65.898  1.00  0.00    -0.438 C  
HETATM    6 CL   UNL     1     -12.486  11.954  63.315  1.00  0.00    -0.632 Cl 
HETATM    7  C   UNL     1     -11.290  12.257  64.615  1.00  0.00    -0.322 C  
ENDBRANCH   4   5
BRANCH   4   8
HETATM    8  P   UNL     1     -10.785  14.494  67.447  1.00  0.00    -0.293 P  
HETATM    9  N   UNL     1     -11.568  14.915  68.816  1.00  0.00    -0.308 NA 
HETATM   10  H   UNL     1     -11.417  14.211  69.539  1.00  0.00     0.000 HD 
HETATM   11  C   UNL     1     -11.242  16.243  69.331  1.00  0.00    -0.311 C  
HETATM   12  O   UNL     1     -11.012  15.439  66.306  1.00  0.00    -0.324 OA 
HETATM   13  C   UNL     1      -9.904  16.780  68.802  1.00  0.00    -0.264 C  
HETATM   14  C   UNL     1      -8.835  15.697  68.672  1.00  0.00    -0.201 C  
HETATM   15  O   UNL     1      -9.256  14.554  67.944  1.00  0.00    -0.187 OA 
ENDBRANCH   4   8
ENDBRANCH   3   4
TORSDOF 3
ENDMDL
MODEL       74
REMARK 921   NORMALIZED FREE ENERGY PREDICTED BY IDOCK:   -3.81 KCAL/MOL
REMARK 922        TOTAL FREE ENERGY PREDICTED BY IDOCK:   -4.71 KCAL/MOL
REMARK 923 INTER-LIGAND FREE ENERGY PREDICTED BY IDOCK:   -4.52 KCAL/MOL
REMARK 924 INTRA-LIGAND FREE ENERGY PREDICTED BY IDOCK:   -0.19 KCAL/MOL
REMARK 927      BINDING AFFINITY PREDICTED BY RF-SCORE:    0.00 PKD
ROOT
HETATM    1 CL   UNL     1      -8.551   8.360  68.680  1.00  0.00    -0.131 Cl 
HETATM    2  C   UNL     1     -10.191   8.923  68.229  1.00  0.00    -0.201 C  
HETATM    3  C   UNL     1     -10.273  10.446  68.382  1.00  0.00    -0.165 C  
ENDROOT
BRANCH   3   4
HETATM    4  N   UNL     1     -11.553  11.160  68.061  1.00  0.00    -0.509 NA 
BRANCH   4   5
HETATM    5  C   UNL     1     -12.138  11.692  69.316  1.00  0.00    -0.259 C  
HETATM    6 CL   UNL     1     -13.116  11.537  71.854  1.00  0.00    -0.564 Cl 
HETATM    7  C   UNL     1     -12.523  10.673  70.401  1.00  0.00    -0.338 C  
ENDBRANCH   4   5
BRANCH   4   8
HETATM    8  P   UNL     1     -11.254  12.272  66.851  1.00  0.00    -0.350 P  
HETATM    9  N   UNL     1     -12.522  12.226  65.824  1.00  0.00    -0.423 NA 
HETATM   10  H   UNL     1     -13.397  12.299  66.342  1.00  0.00     0.000 HD 
HETATM   11  C   UNL     1     -12.486  13.220  64.753  1.00  0.00    -0.383 C  
HETATM   12  O   UNL     1      -9.925  12.098  66.179  1.00  0.00    -0.223 OA 
HETATM   13  C   UNL     1     -11.564  14.407  65.067  1.00  0.00    -0.374 C  
HETATM   14  C   UNL     1     -11.608  14.826  66.534  1.00  0.00    -0.301 C  
HETATM   15  O   UNL     1     -11.403  13.758  67.447  1.00  0.00    -0.298 OA 
ENDBRANCH   4   8
ENDBRANCH   3   4
TORSDOF 3
ENDMDL
MODEL       75
REMARK 921   NORMALIZED FREE ENERGY PREDICTED BY IDOCK:   -3.79 KCAL/MOL
REMARK 922        TOTAL FREE ENERGY PREDICTED BY IDOCK:   -4.69 KCAL/MOL
REMARK 923 INTER-LIGAND FREE ENERGY PREDICTED BY IDOCK:   -4.47 KCAL/MOL
REMARK 924 INTRA-LIGAND FREE ENERGY PREDICTED BY IDOCK:   -0.22 KCAL/MOL
REMARK 927      BINDING AFFINITY PREDICTED BY RF-SCORE:    0.00 PKD
ROOT
HETATM    1 CL   UNL     1     -11.288   9.397  70.280  1.00  0.00    -0.274 Cl 
HETATM    2  C   UNL     1     -10.166  10.022  69.031  1.00  0.00    -0.203 C  
HETATM    3  C   UNL     1     -10.938  10.294  67.734  1.00  0.00    -0.300 C  
ENDROOT
BRANCH   3   4
HETATM    4  N   UNL     1     -10.214  10.828  66.533  1.00  0.00    -0.228 NA 
BRANCH   4   5
HETATM    5  C   UNL     1      -9.851   9.696  65.646  1.00  0.00    -0.299 C  
HETATM    6 CL   UNL     1      -8.147   8.043  64.309  1.00  0.00    -0.143 Cl 
HETATM    7  C   UNL     1      -8.362   9.515  65.309  1.00  0.00    -0.139 C  
ENDBRANCH   4   5
BRANCH   4   8
HETATM    8  P   UNL     1     -11.137  12.041  65.850  1.00  0.00    -0.314 P  
HETATM    9  N   UNL     1     -10.147  13.308  65.571  1.00  0.00    -0.380 NA 
HETATM   10  H   UNL     1      -9.311  12.999  65.076  1.00  0.00     0.000 HD 
HETATM   11  C   UNL     1     -10.763  14.431  64.869  1.00  0.00    -0.426 C  
HETATM   12  O   UNL     1     -12.361  12.393  66.641  1.00  0.00    -0.477 OA 
HETATM   13  C   UNL     1     -12.033  14.035  64.102  1.00  0.00    -0.439 C  
HETATM   14  C   UNL     1     -11.934  12.656  63.455  1.00  0.00    -0.548 C  
HETATM   15  O   UNL     1     -11.528  11.628  64.345  1.00  0.00    -0.304 OA 
ENDBRANCH   4   8
ENDBRANCH   3   4
TORSDOF 3
ENDMDL
MODEL       76
REMARK 921   NORMALIZED FREE ENERGY PREDICTED BY IDOCK:   -3.73 KCAL/MOL
REMARK 922        TOTAL FREE ENERGY PREDICTED BY IDOCK:   -4.62 KCAL/MOL
REMARK 923 INTER-LIGAND FREE ENERGY PREDICTED BY IDOCK:   -4.39 KCAL/MOL
REMARK 924 INTRA-LIGAND FREE ENERGY PREDICTED BY IDOCK:   -0.23 KCAL/MOL
REMARK 927      BINDING AFFINITY PREDICTED BY RF-SCORE:    0.00 PKD
ROOT
HETATM    1 CL   UNL     1     -10.428   3.639  73.507  1.00  0.00    -0.237 Cl 
HETATM    2  C   UNL     1      -9.824   4.998  72.508  1.00  0.00    -0.159 C  
HETATM    3  C   UNL     1     -10.958   5.533  71.626  1.00  0.00    -0.168 C  
ENDROOT
BRANCH   3   4
HETATM    4  N   UNL     1     -10.701   6.681  70.694  1.00  0.00    -0.230 NA 
BRANCH   4   5
HETATM    5  C   UNL     1     -11.210   6.332  69.345  1.00  0.00    -0.420 C  
HETATM    6 CL   UNL     1     -10.999   5.727  66.697  1.00  0.00    -0.303 Cl 
HETATM    7  C   UNL     1     -10.183   6.253  68.204  1.00  0.00    -0.169 C  
ENDBRANCH   4   5
BRANCH   4   8
HETATM    8  P   UNL     1     -11.314   8.073  71.382  1.00  0.00    -0.276 P  
HETATM    9  N   UNL     1     -11.558   9.146  70.177  1.00  0.00    -0.458 NA 
HETATM   10  H   UNL     1     -12.082   8.710  69.418  1.00  0.00     0.000 HD 
HETATM   11  C   UNL     1     -12.201  10.394  70.581  1.00  0.00    -0.347 C  
HETATM   12  O   UNL     1     -10.486   8.610  72.511  1.00  0.00    -0.299 OA 
HETATM   13  C   UNL     1     -12.960  10.276  71.910  1.00  0.00    -0.554 C  
HETATM   14  C   UNL     1     -13.666   8.932  72.077  1.00  0.00    -0.459 C  
HETATM   15  O   UNL     1     -12.827   7.808  71.859  1.00  0.00    -0.313 OA 
ENDBRANCH   4   8
ENDBRANCH   3   4
TORSDOF 3
ENDMDL
MODEL       77
REMARK 921   NORMALIZED FREE ENERGY PREDICTED BY IDOCK:   -3.72 KCAL/MOL
REMARK 922        TOTAL FREE ENERGY PREDICTED BY IDOCK:   -4.61 KCAL/MOL
REMARK 923 INTER-LIGAND FREE ENERGY PREDICTED BY IDOCK:   -4.35 KCAL/MOL
REMARK 924 INTRA-LIGAND FREE ENERGY PREDICTED BY IDOCK:   -0.26 KCAL/MOL
REMARK 927      BINDING AFFINITY PREDICTED BY RF-SCORE:    0.00 PKD
ROOT
HETATM    1 CL   UNL     1     -12.594  10.128  71.947  1.00  0.00    -0.477 Cl 
HETATM    2  C   UNL     1     -11.958  11.274  70.726  1.00  0.00    -0.279 C  
HETATM    3  C   UNL     1     -12.340  10.795  69.321  1.00  0.00     0.016 C  
ENDROOT
BRANCH   3   4
HETATM    4  N   UNL     1     -11.921  11.592  68.121  1.00  0.00    -0.590 NA 
BRANCH   4   5
HETATM    5  C   UNL     1     -11.697  13.000  68.530  1.00  0.00    -0.342 C  
HETATM    6 CL   UNL     1     -11.710  15.705  68.212  1.00  0.00    -0.321 Cl 
HETATM    7  C   UNL     1     -11.950  14.089  67.476  1.00  0.00    -0.395 C  
ENDBRANCH   4   5
BRANCH   4   8
HETATM    8  P   UNL     1     -10.636  10.816  67.389  1.00  0.00    -0.275 P  
HETATM    9  N   UNL     1     -10.907   9.211  67.504  1.00  0.00    -0.454 NA 
HETATM   10  H   UNL     1     -11.850   8.989  67.186  1.00  0.00     0.000 HD 
HETATM   11  C   UNL     1      -9.932   8.369  66.814  1.00  0.00    -0.284 C  
HETATM   12  O   UNL     1      -9.294  11.242  67.904  1.00  0.00    -0.153 OA 
HETATM   13  C   UNL     1      -9.151   9.121  65.728  1.00  0.00    -0.265 C  
HETATM   14  C   UNL     1     -10.009  10.126  64.964  1.00  0.00    -0.305 C  
HETATM   15  O   UNL     1     -10.728  11.023  65.796  1.00  0.00    -0.228 OA 
ENDBRANCH   4   8
ENDBRANCH   3   4
TORSDOF 3
ENDMDL
MODEL       78
REMARK 921   NORMALIZED FREE ENERGY PREDICTED BY IDOCK:   -3.67 KCAL/MOL
REMARK 922        TOTAL FREE ENERGY PREDICTED BY IDOCK:   -4.55 KCAL/MOL
REMARK 923 INTER-LIGAND FREE ENERGY PREDICTED BY IDOCK:   -4.30 KCAL/MOL
REMARK 924 INTRA-LIGAND FREE ENERGY PREDICTED BY IDOCK:   -0.24 KCAL/MOL
REMARK 927      BINDING AFFINITY PREDICTED BY RF-SCORE:    0.00 PKD
ROOT
HETATM    1 CL   UNL     1     -12.175  14.001  70.677  1.00  0.00    -0.421 Cl 
HETATM    2  C   UNL     1     -11.881  13.665  68.943  1.00  0.00    -0.364 C  
HETATM    3  C   UNL     1     -11.881  12.151  68.704  1.00  0.00    -0.306 C  
ENDROOT
BRANCH   3   4
HETATM    4  N   UNL     1     -11.655  11.613  67.320  1.00  0.00    -0.547 NA 
BRANCH   4   5
HETATM    5  C   UNL     1     -11.453  12.749  66.388  1.00  0.00    -0.357 C  
HETATM    6 CL   UNL     1     -12.124  14.440  64.361  1.00  0.00    -0.497 Cl 
HETATM    7  C   UNL     1     -12.521  12.970  65.305  1.00  0.00    -0.499 C  
ENDBRANCH   4   5
BRANCH   4   8
HETATM    8  P   UNL     1     -10.434  10.476  67.383  1.00  0.00    -0.278 P  
HETATM    9  N   UNL     1      -9.106  11.220  67.972  1.00  0.00    -0.150 NA 
HETATM   10  H   UNL     1      -9.337  11.730  68.824  1.00  0.00     0.000 HD 
HETATM   11  C   UNL     1      -7.959  10.345  68.203  1.00  0.00    -0.110 C  
HETATM   12  O   UNL     1     -10.202   9.760  66.087  1.00  0.00    -0.259 OA 
HETATM   13  C   UNL     1      -8.348   8.866  68.328  1.00  0.00    -0.125 C  
HETATM   14  C   UNL     1      -9.665   8.655  69.070  1.00  0.00    -0.173 C  
HETATM   15  O   UNL     1     -10.742   9.431  68.567  1.00  0.00    -0.214 OA 
ENDBRANCH   4   8
ENDBRANCH   3   4
TORSDOF 3
ENDMDL
MODEL       79
REMARK 921   NORMALIZED FREE ENERGY PREDICTED BY IDOCK:   -3.66 KCAL/MOL
REMARK 922        TOTAL FREE ENERGY PREDICTED BY IDOCK:   -4.54 KCAL/MOL
REMARK 923 INTER-LIGAND FREE ENERGY PREDICTED BY IDOCK:   -4.32 KCAL/MOL
REMARK 924 INTRA-LIGAND FREE ENERGY PREDICTED BY IDOCK:   -0.22 KCAL/MOL
REMARK 927      BINDING AFFINITY PREDICTED BY RF-SCORE:    0.00 PKD
ROOT
HETATM    1 CL   UNL     1      -6.307  15.643  68.522  1.00  0.00    -0.101 Cl 
HETATM    2  C   UNL     1      -8.059  15.953  68.729  1.00  0.00    -0.190 C  
HETATM    3  C   UNL     1      -8.788  15.694  67.406  1.00  0.00    -0.191 C  
ENDROOT
BRANCH   3   4
HETATM    4  N   UNL     1     -10.275  15.885  67.323  1.00  0.00    -0.272 NA 
BRANCH   4   5
HETATM    5  C   UNL     1     -10.561  17.121  66.555  1.00  0.00    -0.172 C  
HETATM    6 CL   UNL     1     -10.656  19.811  66.135  1.00  0.00    -0.591 Cl 
HETATM    7  C   UNL     1     -10.341  18.463  67.273  1.00  0.00    -0.392 C  
ENDBRANCH   4   5
BRANCH   4   8
HETATM    8  P   UNL     1     -10.961  14.476  66.747  1.00  0.00    -0.329 P  
HETATM    9  N   UNL     1     -11.599  14.808  65.282  1.00  0.00    -0.351 NA 
HETATM   10  H   UNL     1     -10.911  15.285  64.699  1.00  0.00     0.000 HD 
HETATM   11  C   UNL     1     -12.150  13.656  64.572  1.00  0.00    -0.419 C  
HETATM   12  O   UNL     1     -11.929  13.837  67.697  1.00  0.00    -0.358 OA 
HETATM   13  C   UNL     1     -11.599  12.317  65.082  1.00  0.00    -0.402 C  
HETATM   14  C   UNL     1     -10.121  12.383  65.457  1.00  0.00    -0.267 C  
HETATM   15  O   UNL     1      -9.795  13.445  66.340  1.00  0.00    -0.283 OA 
ENDBRANCH   4   8
ENDBRANCH   3   4
TORSDOF 3
ENDMDL
MODEL       80
REMARK 921   NORMALIZED FREE ENERGY PREDICTED BY IDOCK:   -3.66 KCAL/MOL
REMARK 922        TOTAL FREE ENERGY PREDICTED BY IDOCK:   -4.53 KCAL/MOL
REMARK 923 INTER-LIGAND FREE ENERGY PREDICTED BY IDOCK:   -4.35 KCAL/MOL
REMARK 924 INTRA-LIGAND FREE ENERGY PREDICTED BY IDOCK:   -0.19 KCAL/MOL
REMARK 927      BINDING AFFINITY PREDICTED BY RF-SCORE:    0.00 PKD
ROOT
HETATM    1 CL   UNL     1     -11.651   8.997  70.490  1.00  0.00    -0.250 Cl 
HETATM    2  C   UNL     1     -10.920  10.568  70.035  1.00  0.00    -0.286 C  
HETATM    3  C   UNL     1     -12.028  11.589  69.752  1.00  0.00    -0.346 C  
ENDROOT
BRANCH   3   4
HETATM    4  N   UNL     1     -11.667  12.990  69.351  1.00  0.00    -0.312 NA 
BRANCH   4   5
HETATM    5  C   UNL     1     -12.014  13.187  67.923  1.00  0.00    -0.303 C  
HETATM    6 CL   UNL     1     -11.781  14.298  65.446  1.00  0.00    -0.344 Cl 
HETATM    7  C   UNL     1     -11.275  14.302  67.165  1.00  0.00    -0.322 C  
ENDBRANCH   4   5
BRANCH   4   8
HETATM    8  P   UNL     1     -12.360  14.050  70.438  1.00  0.00    -0.337 P  
HETATM    9  N   UNL     1     -13.106  13.156  71.583  1.00  0.00    -0.383 NA 
HETATM   10  H   UNL     1     -12.472  12.442  71.940  1.00  0.00     0.000 HD 
HETATM   11  C   UNL     1     -13.679  13.921  72.688  1.00  0.00    -0.471 C  
HETATM   12  O   UNL     1     -13.245  15.081  69.804  1.00  0.00     0.227 OA 
HETATM   13  C   UNL     1     -13.065  15.320  72.832  1.00  0.00    -0.592 C  
HETATM   14  C   UNL     1     -11.565  15.347  72.545  1.00  0.00    -0.425 C  
HETATM   15  O   UNL     1     -11.203  14.749  71.310  1.00  0.00    -0.201 OA 
ENDBRANCH   4   8
ENDBRANCH   3   4
TORSDOF 3
ENDMDL
MODEL       81
REMARK 921   NORMALIZED FREE ENERGY PREDICTED BY IDOCK:   -3.64 KCAL/MOL
REMARK 922        TOTAL FREE ENERGY PREDICTED BY IDOCK:   -4.52 KCAL/MOL
REMARK 923 INTER-LIGAND FREE ENERGY PREDICTED BY IDOCK:   -4.29 KCAL/MOL
REMARK 924 INTRA-LIGAND FREE ENERGY PREDICTED BY IDOCK:   -0.23 KCAL/MOL
REMARK 927      BINDING AFFINITY PREDICTED BY RF-SCORE:    0.00 PKD
ROOT
HETATM    1 CL   UNL     1     -10.763  20.078  65.471  1.00  0.00    -0.426 Cl 
HETATM    2  C   UNL     1      -9.970  19.410  66.931  1.00  0.00    -0.369 C  
HETATM    3  C   UNL     1      -9.347  18.048  66.601  1.00  0.00    -0.291 C  
ENDROOT
BRANCH   3   4
HETATM    4  N   UNL     1      -8.619  17.282  67.667  1.00  0.00    -0.215 NA 
BRANCH   4   5
HETATM    5  C   UNL     1      -8.197  18.222  68.734  1.00  0.00    -0.234 C  
HETATM    6 CL   UNL     1      -6.472  19.881  70.035  1.00  0.00    -0.383 Cl 
HETATM    7  C   UNL     1      -6.732  18.687  68.724  1.00  0.00    -0.270 C  
ENDBRANCH   4   5
BRANCH   4   8
HETATM    8  P   UNL     1      -9.571  15.996  68.143  1.00  0.00    -0.213 P  
HETATM    9  N   UNL     1     -10.860  16.610  68.934  1.00  0.00    -0.325 NA 
HETATM   10  H   UNL     1     -11.290  17.353  68.384  1.00  0.00     0.000 HD 
HETATM   11  C   UNL     1     -11.867  15.628  69.331  1.00  0.00    -0.375 C  
HETATM   12  O   UNL     1      -8.832  14.944  68.915  1.00  0.00    -0.180 OA 
HETATM   13  C   UNL     1     -11.785  14.325  68.524  1.00  0.00    -0.376 C  
HETATM   14  C   UNL     1     -11.438  14.553  67.055  1.00  0.00    -0.370 C  
HETATM   15  O   UNL     1     -10.288  15.359  66.851  1.00  0.00    -0.266 OA 
ENDBRANCH   4   8
ENDBRANCH   3   4
TORSDOF 3
ENDMDL
MODEL       82
REMARK 921   NORMALIZED FREE ENERGY PREDICTED BY IDOCK:   -3.64 KCAL/MOL
REMARK 922        TOTAL FREE ENERGY PREDICTED BY IDOCK:   -4.52 KCAL/MOL
REMARK 923 INTER-LIGAND FREE ENERGY PREDICTED BY IDOCK:   -4.30 KCAL/MOL
REMARK 924 INTRA-LIGAND FREE ENERGY PREDICTED BY IDOCK:   -0.21 KCAL/MOL
REMARK 927      BINDING AFFINITY PREDICTED BY RF-SCORE:    0.00 PKD
ROOT
HETATM    1 CL   UNL     1     -10.744  19.651  67.057  1.00  0.00    -0.595 Cl 
HETATM    2  C   UNL     1     -10.192  18.504  68.317  1.00  0.00    -0.376 C  
HETATM    3  C   UNL     1     -10.844  17.135  68.089  1.00  0.00    -0.316 C  
ENDROOT
BRANCH   3   4
HETATM    4  N   UNL     1     -10.536  15.998  69.019  1.00  0.00    -0.239 NA 
BRANCH   4   5
HETATM    5  C   UNL     1     -11.807  15.466  69.568  1.00  0.00    -0.349 C  
HETATM    6 CL   UNL     1     -13.731  15.113  71.463  1.00  0.00    -0.532 Cl 
HETATM    7  C   UNL     1     -12.116  15.765  71.044  1.00  0.00    -0.418 C  
ENDBRANCH   4   5
BRANCH   4   8
HETATM    8  P   UNL     1      -9.557  14.906  68.219  1.00  0.00    -0.226 P  
HETATM    9  N   UNL     1      -8.220  14.693  69.130  1.00  0.00    -0.317 NA 
HETATM   10  H   UNL     1      -8.480  14.493  70.096  1.00  0.00     0.000 HD 
HETATM   11  C   UNL     1      -7.291  13.679  68.637  1.00  0.00    -0.113 C  
HETATM   12  O   UNL     1      -9.267  15.278  66.796  1.00  0.00    -0.217 OA 
HETATM   13  C   UNL     1      -7.950  12.680  67.674  1.00  0.00    -0.169 C  
HETATM   14  C   UNL     1      -9.378  12.319  68.074  1.00  0.00    -0.195 C  
HETATM   15  O   UNL     1     -10.215  13.441  68.304  1.00  0.00    -0.238 OA 
ENDBRANCH   4   8
ENDBRANCH   3   4
TORSDOF 3
ENDMDL
MODEL       83
REMARK 921   NORMALIZED FREE ENERGY PREDICTED BY IDOCK:   -3.64 KCAL/MOL
REMARK 922        TOTAL FREE ENERGY PREDICTED BY IDOCK:   -4.51 KCAL/MOL
REMARK 923 INTER-LIGAND FREE ENERGY PREDICTED BY IDOCK:   -4.27 KCAL/MOL
REMARK 924 INTRA-LIGAND FREE ENERGY PREDICTED BY IDOCK:   -0.24 KCAL/MOL
REMARK 927      BINDING AFFINITY PREDICTED BY RF-SCORE:    0.00 PKD
ROOT
HETATM    1 CL   UNL     1     -13.277   9.641  72.257  1.00  0.00    -0.519 Cl 
HETATM    2  C   UNL     1     -13.241  10.405  70.637  1.00  0.00    -0.127 C  
HETATM    3  C   UNL     1     -12.215  11.543  70.627  1.00  0.00    -0.378 C  
ENDROOT
BRANCH   3   4
HETATM    4  N   UNL     1     -11.998  12.342  69.374  1.00  0.00    -0.286 NA 
BRANCH   4   5
HETATM    5  C   UNL     1     -11.841  13.772  69.734  1.00  0.00    -0.331 C  
HETATM    6 CL   UNL     1     -11.904  15.930  71.395  1.00  0.00    -0.478 Cl 
HETATM    7  C   UNL     1     -12.266  14.193  71.150  1.00  0.00    -0.358 C  
ENDBRANCH   4   5
BRANCH   4   8
HETATM    8  P   UNL     1     -10.746  11.650  68.512  1.00  0.00    -0.240 P  
HETATM    9  N   UNL     1      -9.883  10.737  69.555  1.00  0.00    -0.433 NA 
HETATM   10  H   UNL     1     -10.504  10.124  70.083  1.00  0.00     0.000 HD 
HETATM   11  C   UNL     1      -8.804   9.961  68.949  1.00  0.00    -0.145 C  
HETATM   12  O   UNL     1      -9.918  12.635  67.744  1.00  0.00    -0.207 OA 
HETATM   13  C   UNL     1      -8.986   9.756  67.439  1.00  0.00    -0.144 C  
HETATM   14  C   UNL     1     -10.442   9.532  67.038  1.00  0.00    -0.232 C  
HETATM   15  O   UNL     1     -11.337  10.515  67.537  1.00  0.00    -0.396 OA 
ENDBRANCH   4   8
ENDBRANCH   3   4
TORSDOF 3
ENDMDL
MODEL       84
REMARK 921   NORMALIZED FREE ENERGY PREDICTED BY IDOCK:   -3.64 KCAL/MOL
REMARK 922        TOTAL FREE ENERGY PREDICTED BY IDOCK:   -4.51 KCAL/MOL
REMARK 923 INTER-LIGAND FREE ENERGY PREDICTED BY IDOCK:   -4.26 KCAL/MOL
REMARK 924 INTRA-LIGAND FREE ENERGY PREDICTED BY IDOCK:   -0.25 KCAL/MOL
REMARK 927      BINDING AFFINITY PREDICTED BY RF-SCORE:    0.00 PKD
ROOT
HETATM    1 CL   UNL     1      -9.532   8.592  66.087  1.00  0.00    -0.304 Cl 
HETATM    2  C   UNL     1     -10.543   7.665  67.238  1.00  0.00    -0.318 C  
HETATM    3  C   UNL     1     -10.163   8.039  68.675  1.00  0.00    -0.206 C  
ENDROOT
BRANCH   3   4
HETATM    4  N   UNL     1     -10.875   7.393  69.828  1.00  0.00    -0.247 NA 
BRANCH   4   5
HETATM    5  C   UNL     1      -9.984   6.377  70.438  1.00  0.00    -0.183 C  
HETATM    6 CL   UNL     1      -9.399   4.090  71.799  1.00  0.00    -0.182 Cl 
HETATM    7  C   UNL     1     -10.649   5.245  71.237  1.00  0.00    -0.172 C  
ENDBRANCH   4   5
BRANCH   4   8
HETATM    8  P   UNL     1     -11.441   8.592  70.844  1.00  0.00    -0.220 P  
HETATM    9  N   UNL     1     -11.752   9.903  69.923  1.00  0.00    -0.437 NA 
HETATM   10  H   UNL     1     -12.322   9.642  69.119  1.00  0.00     0.000 HD 
HETATM   11  C   UNL     1     -12.365  11.024  70.632  1.00  0.00    -0.386 C  
HETATM   12  O   UNL     1     -10.546   8.872  72.013  1.00  0.00    -0.341 OA 
HETATM   13  C   UNL     1     -13.044  10.606  71.944  1.00  0.00    -0.563 C  
HETATM   14  C   UNL     1     -13.744   9.253  71.849  1.00  0.00    -0.398 C  
HETATM   15  O   UNL     1     -12.924   8.213  71.338  1.00  0.00    -0.306 OA 
ENDBRANCH   4   8
ENDBRANCH   3   4
TORSDOF 3
ENDMDL
MODEL       85
REMARK 921   NORMALIZED FREE ENERGY PREDICTED BY IDOCK:   -3.63 KCAL/MOL
REMARK 922        TOTAL FREE ENERGY PREDICTED BY IDOCK:   -4.51 KCAL/MOL
REMARK 923 INTER-LIGAND FREE ENERGY PREDICTED BY IDOCK:   -4.35 KCAL/MOL
REMARK 924 INTRA-LIGAND FREE ENERGY PREDICTED BY IDOCK:   -0.15 KCAL/MOL
REMARK 927      BINDING AFFINITY PREDICTED BY RF-SCORE:    0.00 PKD
ROOT
HETATM    1 CL   UNL     1      -9.075   7.460  66.317  1.00  0.00    -0.200 Cl 
HETATM    2  C   UNL     1     -10.525   8.203  67.062  1.00  0.00    -0.326 C  
HETATM    3  C   UNL     1     -10.104   9.384  67.944  1.00  0.00    -0.194 C  
ENDROOT
BRANCH   3   4
HETATM    4  N   UNL     1     -11.145  10.175  68.680  1.00  0.00    -0.227 NA 
BRANCH   4   5
HETATM    5  C   UNL     1     -11.048   9.872  70.128  1.00  0.00    -0.296 C  
HETATM    6 CL   UNL     1     -10.999   8.262  72.325  1.00  0.00    -0.391 Cl 
HETATM    7  C   UNL     1     -11.252   8.411  70.558  1.00  0.00    -0.238 C  
ENDBRANCH   4   5
BRANCH   4   8
HETATM    8  P   UNL     1     -11.001  11.780  68.244  1.00  0.00    -0.273 P  
HETATM    9  N   UNL     1     -11.965  12.022  66.949  1.00  0.00    -0.609 NA 
HETATM   10  H   UNL     1     -12.898  11.652  67.131  1.00  0.00     0.000 HD 
HETATM   11  C   UNL     1     -12.052  13.408  66.494  1.00  0.00    -0.388 C  
HETATM   12  O   UNL     1      -9.586  12.231  68.037  1.00  0.00    -0.193 OA 
HETATM   13  C   UNL     1     -11.645  14.421  67.573  1.00  0.00    -0.398 C  
HETATM   14  C   UNL     1     -12.102  14.018  68.973  1.00  0.00    -0.323 C  
HETATM   15  O   UNL     1     -11.737  12.697  69.342  1.00  0.00    -0.297 OA 
ENDBRANCH   4   8
ENDBRANCH   3   4
TORSDOF 3
ENDMDL
MODEL       86
REMARK 921   NORMALIZED FREE ENERGY PREDICTED BY IDOCK:   -3.61 KCAL/MOL
REMARK 922        TOTAL FREE ENERGY PREDICTED BY IDOCK:   -4.48 KCAL/MOL
REMARK 923 INTER-LIGAND FREE ENERGY PREDICTED BY IDOCK:   -4.39 KCAL/MOL
REMARK 924 INTRA-LIGAND FREE ENERGY PREDICTED BY IDOCK:   -0.09 KCAL/MOL
REMARK 927      BINDING AFFINITY PREDICTED BY RF-SCORE:    0.00 PKD
ROOT
HETATM    1 CL   UNL     1      -7.455  14.737  67.648  1.00  0.00    -0.184 Cl 
HETATM    2  C   UNL     1      -7.549  16.258  66.707  1.00  0.00    -0.250 C  
HETATM    3  C   UNL     1      -6.585  17.292  67.301  1.00  0.00    -0.159 C  
ENDROOT
BRANCH   3   4
HETATM    4  N   UNL     1      -6.480  18.656  66.683  1.00  0.00    -0.182 NA 
BRANCH   4   5
HETATM    5  C   UNL     1      -6.204  18.509  65.233  1.00  0.00    -0.250 C  
HETATM    6 CL   UNL     1      -5.431  19.349  62.760  1.00  0.00    -0.359 Cl 
HETATM    7  C   UNL     1      -5.806  19.776  64.459  1.00  0.00    -0.252 C  
ENDBRANCH   4   5
BRANCH   4   8
HETATM    8  P   UNL     1      -7.838  19.534  67.096  1.00  0.00    -0.279 P  
HETATM    9  N   UNL     1      -9.002  19.171  66.011  1.00  0.00    -0.452 NA 
HETATM   10  H   UNL     1      -9.090  18.159  65.915  1.00  0.00     0.000 HD 
HETATM   11  C   UNL     1     -10.308  19.768  66.282  1.00  0.00    -0.519 C  
HETATM   12  O   UNL     1      -7.590  21.005  67.246  1.00  0.00    -0.340 OA 
HETATM   13  C   UNL     1     -10.480  20.196  67.746  1.00  0.00    -0.397 C  
HETATM   14  C   UNL     1      -9.833  19.227  68.732  1.00  0.00    -0.447 C  
HETATM   15  O   UNL     1      -8.478  18.923  68.439  1.00  0.00    -0.325 OA 
ENDBRANCH   4   8
ENDBRANCH   3   4
TORSDOF 3
ENDMDL
MODEL       87
REMARK 921   NORMALIZED FREE ENERGY PREDICTED BY IDOCK:   -3.61 KCAL/MOL
REMARK 922        TOTAL FREE ENERGY PREDICTED BY IDOCK:   -4.48 KCAL/MOL
REMARK 923 INTER-LIGAND FREE ENERGY PREDICTED BY IDOCK:   -4.35 KCAL/MOL
REMARK 924 INTRA-LIGAND FREE ENERGY PREDICTED BY IDOCK:   -0.13 KCAL/MOL
REMARK 927      BINDING AFFINITY PREDICTED BY RF-SCORE:    0.00 PKD
ROOT
HETATM    1 CL   UNL     1      -8.726  10.288  68.835  1.00  0.00    -0.142 Cl 
HETATM    2  C   UNL     1      -8.630  11.964  68.211  1.00  0.00    -0.162 C  
HETATM    3  C   UNL     1     -10.044  12.512  67.986  1.00  0.00    -0.220 C  
ENDROOT
BRANCH   3   4
HETATM    4  N   UNL     1     -10.230  13.907  67.464  1.00  0.00    -0.243 NA 
BRANCH   4   5
HETATM    5  C   UNL     1      -8.987  14.680  67.700  1.00  0.00    -0.187 C  
HETATM    6 CL   UNL     1      -7.310  16.311  69.097  1.00  0.00    -0.212 Cl 
HETATM    7  C   UNL     1      -8.926  15.546  68.968  1.00  0.00    -0.237 C  
ENDBRANCH   4   5
BRANCH   4   8
HETATM    8  P   UNL     1     -10.761  13.817  65.884  1.00  0.00    -0.297 P  
HETATM    9  N   UNL     1      -9.881  12.662  65.138  1.00  0.00    -0.463 NA 
HETATM   10  H   UNL     1      -9.876  11.809  65.696  1.00  0.00     0.000 HD 
HETATM   11  C   UNL     1     -10.286  12.366  63.766  1.00  0.00    -0.425 C  
HETATM   12  O   UNL     1     -10.763  15.133  65.166  1.00  0.00    -0.362 OA 
HETATM   13  C   UNL     1     -11.723  12.808  63.456  1.00  0.00    -0.597 C  
HETATM   14  C   UNL     1     -12.680  12.596  64.627  1.00  0.00    -0.377 C  
HETATM   15  O   UNL     1     -12.224  13.147  65.853  1.00  0.00    -0.425 OA 
ENDBRANCH   4   8
ENDBRANCH   3   4
TORSDOF 3
ENDMDL
MODEL       88
REMARK 921   NORMALIZED FREE ENERGY PREDICTED BY IDOCK:   -3.59 KCAL/MOL
REMARK 922        TOTAL FREE ENERGY PREDICTED BY IDOCK:   -4.46 KCAL/MOL
REMARK 923 INTER-LIGAND FREE ENERGY PREDICTED BY IDOCK:   -4.25 KCAL/MOL
REMARK 924 INTRA-LIGAND FREE ENERGY PREDICTED BY IDOCK:   -0.22 KCAL/MOL
REMARK 927      BINDING AFFINITY PREDICTED BY RF-SCORE:    0.00 PKD
ROOT
HETATM    1 CL   UNL     1     -11.548  15.319  64.583  1.00  0.00    -0.383 Cl 
HETATM    2  C   UNL     1     -10.994  14.825  66.213  1.00  0.00    -0.330 C  
HETATM    3  C   UNL     1     -10.177  13.532  66.110  1.00  0.00    -0.302 C  
ENDROOT
BRANCH   3   4
HETATM    4  N   UNL     1      -9.598  12.913  67.349  1.00  0.00    -0.198 NA 
BRANCH   4   5
HETATM    5  C   UNL     1      -8.791  13.931  68.064  1.00  0.00    -0.184 C  
HETATM    6 CL   UNL     1      -6.739  15.696  68.375  1.00  0.00    -0.112 Cl 
HETATM    7  C   UNL     1      -7.498  14.409  67.385  1.00  0.00    -0.159 C  
ENDBRANCH   4   5
BRANCH   4   8
HETATM    8  P   UNL     1     -10.835  12.200  68.216  1.00  0.00    -0.253 P  
HETATM    9  N   UNL     1     -10.157  11.114  69.228  1.00  0.00    -0.412 NA 
HETATM   10  H   UNL     1      -9.389  11.545  69.744  1.00  0.00     0.000 HD 
HETATM   11  C   UNL     1     -11.085  10.467  70.152  1.00  0.00    -0.314 C  
HETATM   12  O   UNL     1     -11.928  11.631  67.362  1.00  0.00    -0.621 OA 
HETATM   13  C   UNL     1     -12.387  11.257  70.346  1.00  0.00    -0.415 C  
HETATM   14  C   UNL     1     -12.171  12.768  70.371  1.00  0.00    -0.293 C  
HETATM   15  O   UNL     1     -11.426  13.263  69.268  1.00  0.00    -0.269 OA 
ENDBRANCH   4   8
ENDBRANCH   3   4
TORSDOF 3
ENDMDL
MODEL       89
REMARK 921   NORMALIZED FREE ENERGY PREDICTED BY IDOCK:   -3.59 KCAL/MOL
REMARK 922        TOTAL FREE ENERGY PREDICTED BY IDOCK:   -4.46 KCAL/MOL
REMARK 923 INTER-LIGAND FREE ENERGY PREDICTED BY IDOCK:   -4.23 KCAL/MOL
REMARK 924 INTRA-LIGAND FREE ENERGY PREDICTED BY IDOCK:   -0.23 KCAL/MOL
REMARK 927      BINDING AFFINITY PREDICTED BY RF-SCORE:    0.00 PKD
ROOT
HETATM    1 CL   UNL     1     -12.295  13.765  70.586  1.00  0.00    -0.430 Cl 
HETATM    2  C   UNL     1     -11.928  13.495  68.854  1.00  0.00    -0.341 C  
HETATM    3  C   UNL     1     -11.964  11.993  68.548  1.00  0.00    -0.214 C  
ENDROOT
BRANCH   3   4
HETATM    4  N   UNL     1     -11.688  11.509  67.154  1.00  0.00    -0.577 NA 
BRANCH   4   5
HETATM    5  C   UNL     1     -11.569  12.680  66.251  1.00  0.00    -0.386 C  
HETATM    6 CL   UNL     1     -12.188  14.213  64.086  1.00  0.00    -0.478 Cl 
HETATM    7  C   UNL     1     -12.419  12.671  64.970  1.00  0.00    -0.487 C  
ENDBRANCH   4   5
BRANCH   4   8
HETATM    8  P   UNL     1     -10.383  10.469  67.200  1.00  0.00    -0.258 P  
HETATM    9  N   UNL     1     -10.053  10.034  65.661  1.00  0.00    -0.277 NA 
HETATM   10  H   UNL     1      -9.992  10.861  65.067  1.00  0.00     0.000 HD 
HETATM   11  C   UNL     1      -8.861   9.205  65.496  1.00  0.00    -0.191 C  
HETATM   12  O   UNL     1     -10.562   9.308  68.131  1.00  0.00    -0.221 OA 
HETATM   13  C   UNL     1      -7.889   9.309  66.680  1.00  0.00    -0.104 C  
HETATM   14  C   UNL     1      -7.798  10.720  67.256  1.00  0.00    -0.113 C  
HETATM   15  O   UNL     1      -9.055  11.298  67.569  1.00  0.00    -0.149 OA 
ENDBRANCH   4   8
ENDBRANCH   3   4
TORSDOF 3
ENDMDL
MODEL       90
REMARK 921   NORMALIZED FREE ENERGY PREDICTED BY IDOCK:   -3.58 KCAL/MOL
REMARK 922        TOTAL FREE ENERGY PREDICTED BY IDOCK:   -4.44 KCAL/MOL
REMARK 923 INTER-LIGAND FREE ENERGY PREDICTED BY IDOCK:   -4.20 KCAL/MOL
REMARK 924 INTRA-LIGAND FREE ENERGY PREDICTED BY IDOCK:   -0.24 KCAL/MOL
REMARK 927      BINDING AFFINITY PREDICTED BY RF-SCORE:    0.00 PKD
ROOT
HETATM    1 CL   UNL     1     -11.021   6.599  66.956  1.00  0.00    -0.480 Cl 
HETATM    2  C   UNL     1     -10.790   6.127  68.668  1.00  0.00    -0.332 C  
HETATM    3  C   UNL     1     -10.420   7.362  69.498  1.00  0.00    -0.232 C  
ENDROOT
BRANCH   3   4
HETATM    4  N   UNL     1     -10.175   7.225  70.972  1.00  0.00    -0.192 NA 
BRANCH   4   5
HETATM    5  C   UNL     1      -8.857   7.818  71.300  1.00  0.00    -0.133 C  
HETATM    6 CL   UNL     1      -6.207   8.328  70.928  1.00  0.00    -0.033 Cl 
HETATM    7  C   UNL     1      -7.667   7.427  70.410  1.00  0.00    -0.093 C  
ENDBRANCH   4   5
BRANCH   4   8
HETATM    8  P   UNL     1     -11.494   7.842  71.790  1.00  0.00    -0.307 P  
HETATM    9  N   UNL     1     -11.867   9.274  71.102  1.00  0.00    -0.306 NA 
HETATM   10  H   UNL     1     -11.930   9.172  70.089  1.00  0.00     0.000 HD 
HETATM   11  C   UNL     1     -13.074   9.913  71.620  1.00  0.00    -0.437 C  
HETATM   12  O   UNL     1     -11.309   7.916  73.276  1.00  0.00    -0.312 OA 
HETATM   13  C   UNL     1     -14.016   8.931  72.330  1.00  0.00    -0.531 C  
HETATM   14  C   UNL     1     -14.073   7.564  71.652  1.00  0.00    -0.440 C  
HETATM   15  O   UNL     1     -12.800   6.981  71.419  1.00  0.00    -0.377 OA 
ENDBRANCH   4   8
ENDBRANCH   3   4
TORSDOF 3
ENDMDL
MODEL       91
REMARK 921   NORMALIZED FREE ENERGY PREDICTED BY IDOCK:   -3.57 KCAL/MOL
REMARK 922        TOTAL FREE ENERGY PREDICTED BY IDOCK:   -4.43 KCAL/MOL
REMARK 923 INTER-LIGAND FREE ENERGY PREDICTED BY IDOCK:   -4.22 KCAL/MOL
REMARK 924 INTRA-LIGAND FREE ENERGY PREDICTED BY IDOCK:   -0.21 KCAL/MOL
REMARK 927      BINDING AFFINITY PREDICTED BY RF-SCORE:    0.00 PKD
ROOT
HETATM    1 CL   UNL     1     -10.170   2.821  72.333  1.00  0.00    -0.231 Cl 
HETATM    2  C   UNL     1     -10.053   4.388  73.193  1.00  0.00    -0.150 C  
HETATM    3  C   UNL     1     -10.501   5.521  72.263  1.00  0.00    -0.217 C  
ENDROOT
BRANCH   3   4
HETATM    4  N   UNL     1     -10.494   6.939  72.757  1.00  0.00    -0.210 NA 
BRANCH   4   5
HETATM    5  C   UNL     1      -9.098   7.438  72.772  1.00  0.00    -0.143 C  
HETATM    6 CL   UNL     1      -6.800   8.336  73.928  1.00  0.00    -0.152 Cl 
HETATM    7  C   UNL     1      -8.516   7.860  74.131  1.00  0.00    -0.256 C  
ENDBRANCH   4   5
BRANCH   4   8
HETATM    8  P   UNL     1     -11.590   7.821  71.857  1.00  0.00    -0.325 P  
HETATM    9  N   UNL     1     -12.779   8.297  72.868  1.00  0.00    -0.664 NA 
HETATM   10  H   UNL     1     -12.381   8.727  73.702  1.00  0.00     0.000 HD 
HETATM   11  C   UNL     1     -13.779   9.182  72.273  1.00  0.00    -0.487 C  
HETATM   12  O   UNL     1     -12.085   7.111  70.633  1.00  0.00    -0.308 OA 
HETATM   13  C   UNL     1     -13.279   9.884  71.003  1.00  0.00    -0.375 C  
HETATM   14  C   UNL     1     -11.810  10.292  71.085  1.00  0.00    -0.362 C  
HETATM   15  O   UNL     1     -10.939   9.240  71.470  1.00  0.00    -0.336 OA 
ENDBRANCH   4   8
ENDBRANCH   3   4
TORSDOF 3
ENDMDL
MODEL       92
REMARK 921   NORMALIZED FREE ENERGY PREDICTED BY IDOCK:   -3.56 KCAL/MOL
REMARK 922        TOTAL FREE ENERGY PREDICTED BY IDOCK:   -4.42 KCAL/MOL
REMARK 923 INTER-LIGAND FREE ENERGY PREDICTED BY IDOCK:   -4.15 KCAL/MOL
REMARK 924 INTRA-LIGAND FREE ENERGY PREDICTED BY IDOCK:   -0.26 KCAL/MOL
REMARK 927      BINDING AFFINITY PREDICTED BY RF-SCORE:    0.00 PKD
ROOT
HETATM    1 CL   UNL     1     -12.748  11.883  63.430  1.00  0.00    -0.655 Cl 
HETATM    2  C   UNL     1     -11.314  12.210  64.453  1.00  0.00    -0.344 C  
HETATM    3  C   UNL     1     -11.733  12.258  65.927  1.00  0.00    -0.389 C  
ENDROOT
BRANCH   3   4
HETATM    4  N   UNL     1     -10.703  12.517  66.988  1.00  0.00    -0.239 NA 
BRANCH   4   5
HETATM    5  C   UNL     1      -9.363  12.172  66.454  1.00  0.00    -0.224 C  
HETATM    6 CL   UNL     1      -6.813  11.222  66.585  1.00  0.00    -0.141 Cl 
HETATM    7  C   UNL     1      -8.315  11.664  67.457  1.00  0.00    -0.151 C  
ENDBRANCH   4   5
BRANCH   4   8
HETATM    8  P   UNL     1     -10.900  14.077  67.551  1.00  0.00    -0.279 P  
HETATM    9  N   UNL     1     -10.607  14.056  69.157  1.00  0.00    -0.385 NA 
HETATM   10  H   UNL     1      -9.726  13.580  69.347  1.00  0.00     0.000 HD 
HETATM   11  C   UNL     1     -10.625  15.365  69.806  1.00  0.00    -0.295 C  
HETATM   12  O   UNL     1     -12.215  14.696  67.184  1.00  0.00    -0.301 OA 
HETATM   13  C   UNL     1     -10.419  16.525  68.822  1.00  0.00    -0.309 C  
HETATM   14  C   UNL     1      -9.414  16.202  67.719  1.00  0.00    -0.217 C  
HETATM   15  O   UNL     1      -9.677  14.986  67.035  1.00  0.00    -0.228 OA 
ENDBRANCH   4   8
ENDBRANCH   3   4
TORSDOF 3
ENDMDL
MODEL       93
REMARK 921   NORMALIZED FREE ENERGY PREDICTED BY IDOCK:   -3.55 KCAL/MOL
REMARK 922        TOTAL FREE ENERGY PREDICTED BY IDOCK:   -4.41 KCAL/MOL
REMARK 923 INTER-LIGAND FREE ENERGY PREDICTED BY IDOCK:   -4.20 KCAL/MOL
REMARK 924 INTRA-LIGAND FREE ENERGY PREDICTED BY IDOCK:   -0.21 KCAL/MOL
REMARK 927      BINDING AFFINITY PREDICTED BY RF-SCORE:    0.00 PKD
ROOT
HETATM    1 CL   UNL     1      -9.691   6.174  66.351  1.00  0.00    -0.178 Cl 
HETATM    2  C   UNL     1      -9.274   7.544  67.427  1.00  0.00    -0.132 C  
HETATM    3  C   UNL     1     -10.525   8.388  67.696  1.00  0.00    -0.239 C  
ENDROOT
BRANCH   3   4
HETATM    4  N   UNL     1     -10.433   9.599  68.577  1.00  0.00    -0.205 NA 
BRANCH   4   5
HETATM    5  C   UNL     1     -11.192  10.710  67.952  1.00  0.00    -0.308 C  
HETATM    6 CL   UNL     1     -11.830  12.470  65.974  1.00  0.00    -0.476 Cl 
HETATM    7  C   UNL     1     -10.719  11.199  66.574  1.00  0.00    -0.260 C  
ENDBRANCH   4   5
BRANCH   4   8
HETATM    8  P   UNL     1     -10.885   9.167  70.125  1.00  0.00    -0.233 P  
HETATM    9  N   UNL     1     -12.308   9.903  70.440  1.00  0.00    -0.483 NA 
HETATM   10  H   UNL     1     -12.966   9.737  69.679  1.00  0.00     0.000 HD 
HETATM   11  C   UNL     1     -12.917   9.549  71.720  1.00  0.00    -0.412 C  
HETATM   12  O   UNL     1      -9.832   9.420  71.161  1.00  0.00    -0.282 OA 
HETATM   13  C   UNL     1     -12.391   8.224  72.289  1.00  0.00    -0.410 C  
HETATM   14  C   UNL     1     -12.141   7.170  71.213  1.00  0.00    -0.348 C  
HETATM   15  O   UNL     1     -11.337   7.623  70.135  1.00  0.00    -0.237 OA 
ENDBRANCH   4   8
ENDBRANCH   3   4
TORSDOF 3
ENDMDL
MODEL       94
REMARK 921   NORMALIZED FREE ENERGY PREDICTED BY IDOCK:   -3.55 KCAL/MOL
REMARK 922        TOTAL FREE ENERGY PREDICTED BY IDOCK:   -4.41 KCAL/MOL
REMARK 923 INTER-LIGAND FREE ENERGY PREDICTED BY IDOCK:   -4.18 KCAL/MOL
REMARK 924 INTRA-LIGAND FREE ENERGY PREDICTED BY IDOCK:   -0.23 KCAL/MOL
REMARK 927      BINDING AFFINITY PREDICTED BY RF-SCORE:    0.00 PKD
ROOT
HETATM    1 CL   UNL     1      -8.359  10.135  67.494  1.00  0.00    -0.118 Cl 
HETATM    2  C   UNL     1      -9.669  11.061  66.697  1.00  0.00    -0.195 C  
HETATM    3  C   UNL     1      -9.254  12.530  66.564  1.00  0.00    -0.210 C  
ENDROOT
BRANCH   3   4
HETATM    4  N   UNL     1     -10.188  13.515  65.923  1.00  0.00    -0.296 NA 
BRANCH   4   5
HETATM    5  C   UNL     1     -11.280  12.774  65.246  1.00  0.00    -0.293 C  
HETATM    6 CL   UNL     1     -12.635  11.762  63.110  1.00  0.00    -0.494 Cl 
HETATM    7  C   UNL     1     -11.295  12.790  63.710  1.00  0.00    -0.461 C  
ENDBRANCH   4   5
BRANCH   4   8
HETATM    8  P   UNL     1     -10.650  14.636  67.072  1.00  0.00    -0.289 P  
HETATM    9  N   UNL     1      -9.632  14.483  68.339  1.00  0.00    -0.208 NA 
HETATM   10  H   UNL     1      -8.665  14.492  68.016  1.00  0.00     0.000 HD 
HETATM   11  C   UNL     1      -9.818  15.467  69.402  1.00  0.00    -0.283 C  
HETATM   12  O   UNL     1     -12.100  14.560  67.448  1.00  0.00    -0.380 OA 
HETATM   13  C   UNL     1     -10.563  16.725  68.933  1.00  0.00    -0.350 C  
HETATM   14  C   UNL     1     -10.182  17.152  67.518  1.00  0.00    -0.323 C  
HETATM   15  O   UNL     1     -10.270  16.111  66.557  1.00  0.00    -0.276 OA 
ENDBRANCH   4   8
ENDBRANCH   3   4
TORSDOF 3
ENDMDL
MODEL       95
REMARK 921   NORMALIZED FREE ENERGY PREDICTED BY IDOCK:   -3.55 KCAL/MOL
REMARK 922        TOTAL FREE ENERGY PREDICTED BY IDOCK:   -4.41 KCAL/MOL
REMARK 923 INTER-LIGAND FREE ENERGY PREDICTED BY IDOCK:   -4.34 KCAL/MOL
REMARK 924 INTRA-LIGAND FREE ENERGY PREDICTED BY IDOCK:   -0.07 KCAL/MOL
REMARK 927      BINDING AFFINITY PREDICTED BY RF-SCORE:    0.00 PKD
ROOT
HETATM    1 CL   UNL     1     -10.876   7.093  66.991  1.00  0.00    -0.432 Cl 
HETATM    2  C   UNL     1      -9.810   8.431  66.459  1.00  0.00    -0.268 C  
HETATM    3  C   UNL     1     -10.406   9.772  66.902  1.00  0.00    -0.234 C  
ENDROOT
BRANCH   3   4
HETATM    4  N   UNL     1      -9.692  11.051  66.574  1.00  0.00    -0.193 NA 
BRANCH   4   5
HETATM    5  C   UNL     1      -9.128  10.952  65.206  1.00  0.00    -0.197 C  
HETATM    6 CL   UNL     1      -9.217  10.937  62.483  1.00  0.00    -0.333 Cl 
HETATM    7  C   UNL     1     -10.119  10.973  64.031  1.00  0.00    -0.350 C  
ENDBRANCH   4   5
BRANCH   4   8
HETATM    8  P   UNL     1     -10.730  12.328  66.859  1.00  0.00    -0.251 P  
HETATM    9  N   UNL     1     -10.529  12.780  68.415  1.00  0.00    -0.239 NA 
HETATM   10  H   UNL     1      -9.538  12.906  68.620  1.00  0.00     0.000 HD 
HETATM   11  C   UNL     1     -11.282  13.966  68.816  1.00  0.00    -0.272 C  
HETATM   12  O   UNL     1     -12.155  12.049  66.489  1.00  0.00    -0.617 OA 
HETATM   13  C   UNL     1     -11.710  14.836  67.625  1.00  0.00    -0.364 C  
HETATM   14  C   UNL     1     -10.654  14.904  66.525  1.00  0.00    -0.306 C  
HETATM   15  O   UNL     1     -10.186  13.635  66.095  1.00  0.00    -0.289 OA 
ENDBRANCH   4   8
ENDBRANCH   3   4
TORSDOF 3
ENDMDL
MODEL       96
REMARK 921   NORMALIZED FREE ENERGY PREDICTED BY IDOCK:   -3.55 KCAL/MOL
REMARK 922        TOTAL FREE ENERGY PREDICTED BY IDOCK:   -4.41 KCAL/MOL
REMARK 923 INTER-LIGAND FREE ENERGY PREDICTED BY IDOCK:   -4.20 KCAL/MOL
REMARK 924 INTRA-LIGAND FREE ENERGY PREDICTED BY IDOCK:   -0.21 KCAL/MOL
REMARK 927      BINDING AFFINITY PREDICTED BY RF-SCORE:    0.00 PKD
ROOT
HETATM    1 CL   UNL     1     -11.929   8.188  72.382  1.00  0.00    -0.426 Cl 
HETATM    2  C   UNL     1     -10.598   9.100  71.604  1.00  0.00    -0.357 C  
HETATM    3  C   UNL     1     -11.080   9.674  70.267  1.00  0.00    -0.276 C  
ENDROOT
BRANCH   3   4
HETATM    4  N   UNL     1     -10.142  10.485  69.421  1.00  0.00    -0.225 NA 
BRANCH   4   5
HETATM    5  C   UNL     1      -9.464   9.587  68.455  1.00  0.00    -0.141 C  
HETATM    6 CL   UNL     1      -7.364   8.191  67.422  1.00  0.00    -0.088 Cl 
HETATM    7  C   UNL     1      -7.951   9.378  68.631  1.00  0.00    -0.092 C  
ENDBRANCH   4   5
BRANCH   4   8
HETATM    8  P   UNL     1     -10.986  11.772  68.773  1.00  0.00    -0.252 P  
HETATM    9  N   UNL     1     -11.493  12.698  70.018  1.00  0.00    -0.529 NA 
HETATM   10  H   UNL     1     -10.716  12.897  70.648  1.00  0.00     0.000 HD 
HETATM   11  C   UNL     1     -12.161  13.939  69.633  1.00  0.00    -0.349 C  
HETATM   12  O   UNL     1     -12.082  11.370  67.833  1.00  0.00    -0.646 OA 
HETATM   13  C   UNL     1     -11.830  14.379  68.200  1.00  0.00    -0.362 C  
HETATM   14  C   UNL     1     -10.378  14.108  67.813  1.00  0.00    -0.242 C  
HETATM   15  O   UNL     1      -9.955  12.775  68.054  1.00  0.00    -0.212 OA 
ENDBRANCH   4   8
ENDBRANCH   3   4
TORSDOF 3
ENDMDL
MODEL       97
REMARK 921   NORMALIZED FREE ENERGY PREDICTED BY IDOCK:   -3.54 KCAL/MOL
REMARK 922        TOTAL FREE ENERGY PREDICTED BY IDOCK:   -4.40 KCAL/MOL
REMARK 923 INTER-LIGAND FREE ENERGY PREDICTED BY IDOCK:   -4.16 KCAL/MOL
REMARK 924 INTRA-LIGAND FREE ENERGY PREDICTED BY IDOCK:   -0.24 KCAL/MOL
REMARK 927      BINDING AFFINITY PREDICTED BY RF-SCORE:    0.00 PKD
ROOT
HETATM    1 CL   UNL     1     -11.450  14.038  64.352  1.00  0.00    -0.377 Cl 
HETATM    2  C   UNL     1     -11.798  12.353  64.847  1.00  0.00    -0.386 C  
HETATM    3  C   UNL     1     -10.792  11.911  65.916  1.00  0.00    -0.297 C  
ENDROOT
BRANCH   3   4
HETATM    4  N   UNL     1     -10.877  10.530  66.496  1.00  0.00    -0.120 NA 
BRANCH   4   5
HETATM    5  C   UNL     1      -9.846   9.675  65.859  1.00  0.00    -0.288 C  
HETATM    6 CL   UNL     1      -7.396   9.113  64.808  1.00  0.00    -0.097 Cl 
HETATM    7  C   UNL     1      -8.518  10.343  65.469  1.00  0.00    -0.167 C  
ENDBRANCH   4   5
BRANCH   4   8
HETATM    8  P   UNL     1     -10.821  10.647  68.161  1.00  0.00    -0.288 P  
HETATM    9  N   UNL     1     -12.358  10.796  68.691  1.00  0.00    -0.786 NA 
HETATM   10  H   UNL     1     -12.945  10.073  68.275  1.00  0.00     0.000 HD 
HETATM   11  C   UNL     1     -12.513  10.800  70.143  1.00  0.00    -0.285 C  
HETATM   12  O   UNL     1      -9.900  11.717  68.666  1.00  0.00    -0.203 OA 
HETATM   13  C   UNL     1     -11.316  10.179  70.877  1.00  0.00    -0.420 C  
HETATM   14  C   UNL     1     -10.729   8.974  70.147  1.00  0.00    -0.233 C  
HETATM   15  O   UNL     1     -10.428   9.215  68.781  1.00  0.00    -0.215 OA 
ENDBRANCH   4   8
ENDBRANCH   3   4
TORSDOF 3
ENDMDL
MODEL       98
REMARK 921   NORMALIZED FREE ENERGY PREDICTED BY IDOCK:   -3.53 KCAL/MOL
REMARK 922        TOTAL FREE ENERGY PREDICTED BY IDOCK:   -4.39 KCAL/MOL
REMARK 923 INTER-LIGAND FREE ENERGY PREDICTED BY IDOCK:   -4.18 KCAL/MOL
REMARK 924 INTRA-LIGAND FREE ENERGY PREDICTED BY IDOCK:   -0.21 KCAL/MOL
REMARK 927      BINDING AFFINITY PREDICTED BY RF-SCORE:    0.00 PKD
ROOT
HETATM    1 CL   UNL     1     -10.851   8.762  69.243  1.00  0.00    -0.154 Cl 
HETATM    2  C   UNL     1     -10.524  10.493  69.571  1.00  0.00    -0.235 C  
HETATM    3  C   UNL     1     -10.387  11.251  68.245  1.00  0.00    -0.183 C  
ENDROOT
BRANCH   3   4
HETATM    4  N   UNL     1     -10.111  12.726  68.254  1.00  0.00    -0.234 NA 
BRANCH   4   5
HETATM    5  C   UNL     1      -8.655  12.946  68.079  1.00  0.00    -0.186 C  
HETATM    6 CL   UNL     1      -6.158  12.379  67.151  1.00  0.00    -0.138 Cl 
HETATM    7  C   UNL     1      -7.865  11.864  67.326  1.00  0.00    -0.168 C  
ENDBRANCH   4   5
BRANCH   4   8
HETATM    8  P   UNL     1     -11.115  13.463  67.141  1.00  0.00    -0.304 P  
HETATM    9  N   UNL     1     -10.166  14.080  65.964  1.00  0.00    -0.295 NA 
HETATM   10  H   UNL     1      -9.512  13.372  65.632  1.00  0.00     0.000 HD 
HETATM   11  C   UNL     1     -10.885  14.670  64.837  1.00  0.00    -0.419 C  
HETATM   12  O   UNL     1     -12.061  14.459  67.739  1.00  0.00    -0.356 OA 
HETATM   13  C   UNL     1     -12.333  14.174  64.723  1.00  0.00    -0.436 C  
HETATM   14  C   UNL     1     -12.487  12.696  65.072  1.00  0.00    -0.487 C  
HETATM   15  O   UNL     1     -11.915  12.334  66.320  1.00  0.00    -0.588 OA 
ENDBRANCH   4   8
ENDBRANCH   3   4
TORSDOF 3
ENDMDL
MODEL       99
REMARK 921   NORMALIZED FREE ENERGY PREDICTED BY IDOCK:   -3.50 KCAL/MOL
REMARK 922        TOTAL FREE ENERGY PREDICTED BY IDOCK:   -4.36 KCAL/MOL
REMARK 923 INTER-LIGAND FREE ENERGY PREDICTED BY IDOCK:   -4.15 KCAL/MOL
REMARK 924 INTRA-LIGAND FREE ENERGY PREDICTED BY IDOCK:   -0.21 KCAL/MOL
REMARK 927      BINDING AFFINITY PREDICTED BY RF-SCORE:    0.00 PKD
ROOT
HETATM    1 CL   UNL     1      -6.194  21.058  63.725  1.00  0.00    -0.357 Cl 
HETATM    2  C   UNL     1      -5.873  20.227  65.279  1.00  0.00    -0.193 C  
HETATM    3  C   UNL     1      -7.199  19.793  65.915  1.00  0.00    -0.306 C  
ENDROOT
BRANCH   3   4
HETATM    4  N   UNL     1      -7.196  19.071  67.230  1.00  0.00    -0.215 NA 
BRANCH   4   5
HETATM    5  C   UNL     1      -6.719  19.995  68.288  1.00  0.00    -0.289 C  
HETATM    6 CL   UNL     1      -5.188  20.756  70.408  1.00  0.00    -0.340 Cl 
HETATM    7  C   UNL     1      -5.687  19.450  69.288  1.00  0.00    -0.234 C  
ENDBRANCH   4   5
BRANCH   4   8
HETATM    8  P   UNL     1      -8.699  18.384  67.465  1.00  0.00    -0.262 P  
HETATM    9  N   UNL     1      -9.007  17.432  66.175  1.00  0.00    -0.486 NA 
HETATM   10  H   UNL     1      -8.215  16.815  65.997  1.00  0.00     0.000 HD 
HETATM   11  C   UNL     1     -10.242  16.657  66.259  1.00  0.00    -0.334 C  
HETATM   12  O   UNL     1      -9.784  19.377  67.756  1.00  0.00    -0.308 OA 
HETATM   13  C   UNL     1     -10.751  16.493  67.699  1.00  0.00    -0.311 C  
HETATM   14  C   UNL     1      -9.625  16.301  68.711  1.00  0.00    -0.242 C  
HETATM   15  O   UNL     1      -8.604  17.283  68.634  1.00  0.00    -0.269 OA 
ENDBRANCH   4   8
ENDBRANCH   3   4
TORSDOF 3
ENDMDL
MODEL      100
REMARK 921   NORMALIZED FREE ENERGY PREDICTED BY IDOCK:   -3.49 KCAL/MOL
REMARK 922        TOTAL FREE ENERGY PREDICTED BY IDOCK:   -4.34 KCAL/MOL
REMARK 923 INTER-LIGAND FREE ENERGY PREDICTED BY IDOCK:   -4.14 KCAL/MOL
REMARK 924 INTRA-LIGAND FREE ENERGY PREDICTED BY IDOCK:   -0.20 KCAL/MOL
REMARK 927      BINDING AFFINITY PREDICTED BY RF-SCORE:    0.00 PKD
ROOT
HETATM    1 CL   UNL     1     -10.462   5.650  66.793  1.00  0.00    -0.315 Cl 
HETATM    2  C   UNL     1     -10.930   6.343  68.377  1.00  0.00    -0.309 C  
HETATM    3  C   UNL     1     -10.525   7.820  68.434  1.00  0.00    -0.166 C  
ENDROOT
BRANCH   3   4
HETATM    4  N   UNL     1     -10.814   8.627  69.666  1.00  0.00    -0.201 NA 
BRANCH   4   5
HETATM    5  C   UNL     1      -9.959   8.137  70.775  1.00  0.00    -0.188 C  
HETATM    6 CL   UNL     1      -9.253   7.760  73.379  1.00  0.00    -0.315 Cl 
HETATM    7  C   UNL     1     -10.362   8.535  72.204  1.00  0.00    -0.339 C  
ENDBRANCH   4   5
BRANCH   4   8
HETATM    8  P   UNL     1     -10.681  10.247  69.285  1.00  0.00    -0.265 P  
HETATM    9  N   UNL     1     -11.437  10.475  67.857  1.00  0.00    -0.633 NA 
HETATM   10  H   UNL     1     -12.367  10.058  67.881  1.00  0.00     0.000 HD 
HETATM   11  C   UNL     1     -11.518  11.866  67.416  1.00  0.00    -0.323 C  
HETATM   12  O   UNL     1      -9.275  10.766  69.315  1.00  0.00    -0.153 OA 
HETATM   13  C   UNL     1     -11.339  12.871  68.562  1.00  0.00    -0.324 C  
HETATM   14  C   UNL     1     -11.992  12.414  69.864  1.00  0.00    -0.299 C  
HETATM   15  O   UNL     1     -11.627  11.103  70.266  1.00  0.00    -0.307 OA 
ENDBRANCH   4   8
ENDBRANCH   3   4
TORSDOF 3
ENDMDL
MODEL      101
REMARK 921   NORMALIZED FREE ENERGY PREDICTED BY IDOCK:   -3.49 KCAL/MOL
REMARK 922        TOTAL FREE ENERGY PREDICTED BY IDOCK:   -4.34 KCAL/MOL
REMARK 923 INTER-LIGAND FREE ENERGY PREDICTED BY IDOCK:   -4.12 KCAL/MOL
REMARK 924 INTRA-LIGAND FREE ENERGY PREDICTED BY IDOCK:   -0.22 KCAL/MOL
REMARK 927      BINDING AFFINITY PREDICTED BY RF-SCORE:    0.00 PKD
ROOT
HETATM    1 CL   UNL     1     -10.966  19.737  67.209  1.00  0.00    -0.468 Cl 
HETATM    2  C   UNL     1      -9.827  18.570  66.468  1.00  0.00    -0.363 C  
HETATM    3  C   UNL     1      -9.947  17.214  67.172  1.00  0.00    -0.283 C  
ENDROOT
BRANCH   3   4
HETATM    4  N   UNL     1      -9.091  16.064  66.729  1.00  0.00    -0.225 NA 
BRANCH   4   5
HETATM    5  C   UNL     1      -7.868  16.021  67.565  1.00  0.00    -0.148 C  
HETATM    6 CL   UNL     1      -6.379  16.466  69.803  1.00  0.00    -0.211 Cl 
HETATM    7  C   UNL     1      -7.924  16.723  68.932  1.00  0.00    -0.237 C  
ENDBRANCH   4   5
BRANCH   4   8
HETATM    8  P   UNL     1     -10.027  14.680  66.709  1.00  0.00    -0.279 P  
HETATM    9  N   UNL     1     -11.044  14.762  67.983  1.00  0.00    -0.275 NA 
HETATM   10  H   UNL     1     -11.516  15.666  67.998  1.00  0.00     0.000 HD 
HETATM   11  C   UNL     1     -12.022  13.680  68.062  1.00  0.00    -0.350 C  
HETATM   12  O   UNL     1      -9.234  13.410  66.648  1.00  0.00    -0.251 OA 
HETATM   13  C   UNL     1     -12.243  12.970  66.719  1.00  0.00    -0.261 C  
HETATM   14  C   UNL     1     -12.214  13.924  65.528  1.00  0.00    -0.444 C  
HETATM   15  O   UNL     1     -11.069  14.762  65.486  1.00  0.00    -0.322 OA 
ENDBRANCH   4   8
ENDBRANCH   3   4
TORSDOF 3
ENDMDL
MODEL      102
REMARK 921   NORMALIZED FREE ENERGY PREDICTED BY IDOCK:   -3.45 KCAL/MOL
REMARK 922        TOTAL FREE ENERGY PREDICTED BY IDOCK:   -4.29 KCAL/MOL
REMARK 923 INTER-LIGAND FREE ENERGY PREDICTED BY IDOCK:   -4.04 KCAL/MOL
REMARK 924 INTRA-LIGAND FREE ENERGY PREDICTED BY IDOCK:   -0.24 KCAL/MOL
REMARK 927      BINDING AFFINITY PREDICTED BY RF-SCORE:    0.00 PKD
ROOT
HETATM    1 CL   UNL     1     -12.524  14.334  64.793  1.00  0.00    -0.425 Cl 
HETATM    2  C   UNL     1     -11.253  14.081  66.029  1.00  0.00    -0.310 C  
HETATM    3  C   UNL     1     -11.863  13.413  67.267  1.00  0.00    -0.376 C  
ENDROOT
BRANCH   3   4
HETATM    4  N   UNL     1     -10.994  13.094  68.448  1.00  0.00    -0.251 NA 
BRANCH   4   5
HETATM    5  C   UNL     1     -11.834  13.054  69.669  1.00  0.00    -0.319 C  
HETATM    6 CL   UNL     1     -13.013  14.079  71.901  1.00  0.00    -0.426 Cl 
HETATM    7  C   UNL     1     -11.870  14.319  70.541  1.00  0.00    -0.294 C  
ENDBRANCH   4   5
BRANCH   4   8
HETATM    8  P   UNL     1     -10.114  11.717  68.105  1.00  0.00    -0.206 P  
HETATM    9  N   UNL     1     -10.012  10.848  69.483  1.00  0.00    -0.437 NA 
HETATM   10  H   UNL     1     -10.936  10.741  69.900  1.00  0.00     0.000 HD 
HETATM   11  C   UNL     1      -9.366   9.545  69.345  1.00  0.00    -0.180 C  
HETATM   12  O   UNL     1      -8.788  11.986  67.460  1.00  0.00    -0.159 OA 
HETATM   13  C   UNL     1      -9.355   9.030  67.899  1.00  0.00    -0.155 C  
HETATM   14  C   UNL     1     -10.636   9.362  67.137  1.00  0.00    -0.224 C  
HETATM   15  O   UNL     1     -11.003  10.732  67.194  1.00  0.00    -0.280 OA 
ENDBRANCH   4   8
ENDBRANCH   3   4
TORSDOF 3
ENDMDL
MODEL      103
REMARK 921   NORMALIZED FREE ENERGY PREDICTED BY IDOCK:   -3.44 KCAL/MOL
REMARK 922        TOTAL FREE ENERGY PREDICTED BY IDOCK:   -4.28 KCAL/MOL
REMARK 923 INTER-LIGAND FREE ENERGY PREDICTED BY IDOCK:   -4.17 KCAL/MOL
REMARK 924 INTRA-LIGAND FREE ENERGY PREDICTED BY IDOCK:   -0.11 KCAL/MOL
REMARK 927      BINDING AFFINITY PREDICTED BY RF-SCORE:    0.00 PKD
ROOT
HETATM    1 CL   UNL     1      -8.361   8.049  74.225  1.00  0.00    -0.307 Cl 
HETATM    2  C   UNL     1      -8.922   7.478  72.623  1.00  0.00    -0.144 C  
HETATM    3  C   UNL     1      -9.675   8.606  71.908  1.00  0.00    -0.313 C  
ENDROOT
BRANCH   3   4
HETATM    4  N   UNL     1     -10.245   8.373  70.540  1.00  0.00    -0.193 NA 
BRANCH   4   5
HETATM    5  C   UNL     1     -11.535   7.652  70.670  1.00  0.00    -0.258 C  
HETATM    6 CL   UNL     1     -14.050   7.228  71.627  1.00  0.00    -0.537 Cl 
HETATM    7  C   UNL     1     -12.538   8.185  71.706  1.00  0.00    -0.330 C  
ENDBRANCH   4   5
BRANCH   4   8
HETATM    8  P   UNL     1     -10.286   9.829  69.724  1.00  0.00    -0.281 P  
HETATM    9  N   UNL     1     -11.172   9.605  68.371  1.00  0.00    -0.502 NA 
HETATM   10  H   UNL     1     -12.057   9.154  68.601  1.00  0.00     0.000 HD 
HETATM   11  C   UNL     1     -11.411  10.812  67.582  1.00  0.00    -0.252 C  
HETATM   12  O   UNL     1      -8.933  10.423  69.470  1.00  0.00    -0.182 OA 
HETATM   13  C   UNL     1     -11.228  12.104  68.391  1.00  0.00    -0.314 C  
HETATM   14  C   UNL     1     -11.732  11.985  69.828  1.00  0.00    -0.319 C  
HETATM   15  O   UNL     1     -11.222  10.862  70.528  1.00  0.00    -0.240 OA 
ENDBRANCH   4   8
ENDBRANCH   3   4
TORSDOF 3
ENDMDL
MODEL      104
REMARK 921   NORMALIZED FREE ENERGY PREDICTED BY IDOCK:   -3.44 KCAL/MOL
REMARK 922        TOTAL FREE ENERGY PREDICTED BY IDOCK:   -4.28 KCAL/MOL
REMARK 923 INTER-LIGAND FREE ENERGY PREDICTED BY IDOCK:   -4.06 KCAL/MOL
REMARK 924 INTRA-LIGAND FREE ENERGY PREDICTED BY IDOCK:   -0.22 KCAL/MOL
REMARK 927      BINDING AFFINITY PREDICTED BY RF-SCORE:    0.00 PKD
ROOT
HETATM    1 CL   UNL     1     -10.376  14.144  68.650  1.00  0.00    -0.241 Cl 
HETATM    2  C   UNL     1     -11.354  12.650  68.520  1.00  0.00    -0.296 C  
HETATM    3  C   UNL     1     -10.505  11.441  68.929  1.00  0.00    -0.193 C  
ENDROOT
BRANCH   3   4
HETATM    4  N   UNL     1     -11.104  10.065  68.905  1.00  0.00    -0.208 NA 
BRANCH   4   5
HETATM    5  C   UNL     1     -10.292   9.200  68.015  1.00  0.00    -0.222 C  
HETATM    6 CL   UNL     1      -9.112   8.473  65.670  1.00  0.00    -0.219 Cl 
HETATM    7  C   UNL     1     -10.212   9.595  66.531  1.00  0.00    -0.224 C  
ENDBRANCH   4   5
BRANCH   4   8
HETATM    8  P   UNL     1     -11.296   9.540  70.479  1.00  0.00    -0.283 P  
HETATM    9  N   UNL     1     -11.923   8.034  70.417  1.00  0.00    -0.468 NA 
HETATM   10  H   UNL     1     -11.382   7.454  69.776  1.00  0.00     0.000 HD 
HETATM   11  C   UNL     1     -12.057   7.367  71.710  1.00  0.00    -0.312 C  
HETATM   12  O   UNL     1     -12.074  10.484  71.345  1.00  0.00    -0.344 OA 
HETATM   13  C   UNL     1     -11.154   7.972  72.794  1.00  0.00    -0.448 C  
HETATM   14  C   UNL     1      -9.789   8.402  72.263  1.00  0.00    -0.313 C  
HETATM   15  O   UNL     1      -9.851   9.238  71.117  1.00  0.00    -0.285 OA 
ENDBRANCH   4   8
ENDBRANCH   3   4
TORSDOF 3
ENDMDL
MODEL      105
REMARK 921   NORMALIZED FREE ENERGY PREDICTED BY IDOCK:   -3.43 KCAL/MOL
REMARK 922        TOTAL FREE ENERGY PREDICTED BY IDOCK:   -4.27 KCAL/MOL
REMARK 923 INTER-LIGAND FREE ENERGY PREDICTED BY IDOCK:   -4.07 KCAL/MOL
REMARK 924 INTRA-LIGAND FREE ENERGY PREDICTED BY IDOCK:   -0.20 KCAL/MOL
REMARK 927      BINDING AFFINITY PREDICTED BY RF-SCORE:    0.00 PKD
ROOT
HETATM    1 CL   UNL     1      -6.052  12.967  67.513  1.00  0.00    -0.155 Cl 
HETATM    2  C   UNL     1      -7.263  11.740  67.027  1.00  0.00    -0.134 C  
HETATM    3  C   UNL     1      -8.646  12.144  67.552  1.00  0.00    -0.171 C  
ENDROOT
BRANCH   3   4
HETATM    4  N   UNL     1      -9.835  11.272  67.272  1.00  0.00    -0.181 NA 
BRANCH   4   5
HETATM    5  C   UNL     1     -10.405  10.805  68.559  1.00  0.00    -0.185 C  
HETATM    6 CL   UNL     1     -10.603   9.181  70.737  1.00  0.00    -0.296 Cl 
HETATM    7  C   UNL     1      -9.841   9.502  69.147  1.00  0.00    -0.176 C  
ENDBRANCH   4   5
BRANCH   4   8
HETATM    8  P   UNL     1     -10.871  12.096  66.255  1.00  0.00    -0.309 P  
HETATM    9  N   UNL     1     -10.121  13.476  65.809  1.00  0.00    -0.303 NA 
HETATM   10  H   UNL     1      -9.178  13.272  65.478  1.00  0.00     0.000 HD 
HETATM   11  C   UNL     1     -10.840  14.279  64.822  1.00  0.00    -0.405 C  
HETATM   12  O   UNL     1     -12.242  12.310  66.824  1.00  0.00    -0.558 OA 
HETATM   13  C   UNL     1     -11.882  13.471  64.035  1.00  0.00    -0.476 C  
HETATM   14  C   UNL     1     -11.420  12.051  63.716  1.00  0.00    -0.461 C  
HETATM   15  O   UNL     1     -10.952  11.328  64.843  1.00  0.00    -0.262 OA 
ENDBRANCH   4   8
ENDBRANCH   3   4
TORSDOF 3
ENDMDL
MODEL      106
REMARK 921   NORMALIZED FREE ENERGY PREDICTED BY IDOCK:   -3.42 KCAL/MOL
REMARK 922        TOTAL FREE ENERGY PREDICTED BY IDOCK:   -4.25 KCAL/MOL
REMARK 923 INTER-LIGAND FREE ENERGY PREDICTED BY IDOCK:   -4.16 KCAL/MOL
REMARK 924 INTRA-LIGAND FREE ENERGY PREDICTED BY IDOCK:   -0.09 KCAL/MOL
REMARK 927      BINDING AFFINITY PREDICTED BY RF-SCORE:    0.00 PKD
ROOT
HETATM    1 CL   UNL     1      -7.706  10.597  68.671  1.00  0.00    -0.102 Cl 
HETATM    2  C   UNL     1      -8.635  12.073  68.262  1.00  0.00    -0.174 C  
HETATM    3  C   UNL     1     -10.102  11.704  68.008  1.00  0.00    -0.189 C  
ENDROOT
BRANCH   3   4
HETATM    4  N   UNL     1     -11.089  12.775  67.647  1.00  0.00    -0.247 NA 
BRANCH   4   5
HETATM    5  C   UNL     1     -10.762  14.008  68.404  1.00  0.00    -0.251 C  
HETATM    6 CL   UNL     1     -11.256  16.072  70.111  1.00  0.00    -0.350 Cl 
HETATM    7  C   UNL     1     -11.895  14.663  69.209  1.00  0.00    -0.321 C  
ENDBRANCH   4   5
BRANCH   4   8
HETATM    8  P   UNL     1     -11.140  12.914  65.984  1.00  0.00    -0.302 P  
HETATM    9  N   UNL     1     -12.369  11.979  65.454  1.00  0.00    -0.369 NA 
HETATM   10  H   UNL     1     -13.217  12.181  65.983  1.00  0.00     0.000 HD 
HETATM   11  C   UNL     1     -12.636  12.064  64.021  1.00  0.00    -0.359 C  
HETATM   12  O   UNL     1      -9.831  12.633  65.309  1.00  0.00    -0.224 OA 
HETATM   13  C   UNL     1     -12.074  13.341  63.380  1.00  0.00    -0.508 C  
HETATM   14  C   UNL     1     -12.199  14.567  64.282  1.00  0.00    -0.415 C  
HETATM   15  O   UNL     1     -11.684  14.376  65.590  1.00  0.00    -0.347 OA 
ENDBRANCH   4   8
ENDBRANCH   3   4
TORSDOF 3
ENDMDL
MODEL      107
REMARK 921   NORMALIZED FREE ENERGY PREDICTED BY IDOCK:   -3.42 KCAL/MOL
REMARK 922        TOTAL FREE ENERGY PREDICTED BY IDOCK:   -4.25 KCAL/MOL
REMARK 923 INTER-LIGAND FREE ENERGY PREDICTED BY IDOCK:   -4.05 KCAL/MOL
REMARK 924 INTRA-LIGAND FREE ENERGY PREDICTED BY IDOCK:   -0.20 KCAL/MOL
REMARK 927      BINDING AFFINITY PREDICTED BY RF-SCORE:    0.00 PKD
ROOT
HETATM    1 CL   UNL     1      -7.595  10.387  66.857  1.00  0.00    -0.104 Cl 
HETATM    2  C   UNL     1      -9.197  11.187  66.816  1.00  0.00    -0.171 C  
HETATM    3  C   UNL     1      -9.013  12.708  66.760  1.00  0.00    -0.197 C  
ENDROOT
BRANCH   3   4
HETATM    4  N   UNL     1     -10.216  13.604  66.717  1.00  0.00    -0.264 NA 
BRANCH   4   5
HETATM    5  C   UNL     1     -11.277  12.950  65.915  1.00  0.00    -0.293 C  
HETATM    6 CL   UNL     1     -12.634  12.331  63.635  1.00  0.00    -0.620 Cl 
HETATM    7  C   UNL     1     -11.349  13.301  64.420  1.00  0.00    -0.383 C  
ENDBRANCH   4   5
BRANCH   4   8
HETATM    8  P   UNL     1     -10.620  14.028  68.281  1.00  0.00    -0.260 P  
HETATM    9  N   UNL     1     -11.913  15.022  68.197  1.00  0.00    -0.538 NA 
HETATM   10  H   UNL     1     -12.634  14.611  67.605  1.00  0.00     0.000 HD 
HETATM   11  C   UNL     1     -12.479  15.409  69.487  1.00  0.00    -0.075 C  
HETATM   12  O   UNL     1      -9.478  14.587  69.075  1.00  0.00    -0.179 OA 
HETATM   13  C   UNL     1     -12.093  14.451  70.624  1.00  0.00    -0.404 C  
HETATM   14  C   UNL     1     -12.051  12.990  70.185  1.00  0.00    -0.307 C  
HETATM   15  O   UNL     1     -11.266  12.757  69.025  1.00  0.00    -0.254 OA 
ENDBRANCH   4   8
ENDBRANCH   3   4
TORSDOF 3
ENDMDL
MODEL      108
REMARK 921   NORMALIZED FREE ENERGY PREDICTED BY IDOCK:   -3.39 KCAL/MOL
REMARK 922        TOTAL FREE ENERGY PREDICTED BY IDOCK:   -4.23 KCAL/MOL
REMARK 923 INTER-LIGAND FREE ENERGY PREDICTED BY IDOCK:   -3.99 KCAL/MOL
REMARK 924 INTRA-LIGAND FREE ENERGY PREDICTED BY IDOCK:   -0.23 KCAL/MOL
REMARK 927      BINDING AFFINITY PREDICTED BY RF-SCORE:    0.00 PKD
ROOT
HETATM    1 CL   UNL     1      -6.312  11.240  69.776  1.00  0.00    -0.123 Cl 
HETATM    2  C   UNL     1      -7.279  11.054  68.280  1.00  0.00    -0.085 C  
HETATM    3  C   UNL     1      -8.771  11.028  68.631  1.00  0.00    -0.161 C  
ENDROOT
BRANCH   3   4
HETATM    4  N   UNL     1      -9.792  10.880  67.541  1.00  0.00    -0.167 NA 
BRANCH   4   5
HETATM    5  C   UNL     1     -10.465   9.567  67.684  1.00  0.00    -0.263 C  
HETATM    6 CL   UNL     1     -10.984   6.967  67.057  1.00  0.00    -0.457 Cl 
HETATM    7  C   UNL     1     -10.138   8.490  66.637  1.00  0.00    -0.294 C  
ENDBRANCH   4   5
BRANCH   4   8
HETATM    8  P   UNL     1     -10.780  12.227  67.550  1.00  0.00    -0.242 P  
HETATM    9  N   UNL     1     -11.050  12.621  69.111  1.00  0.00    -0.387 NA 
HETATM   10  H   UNL     1     -10.168  12.664  69.621  1.00  0.00     0.000 HD 
HETATM   11  C   UNL     1     -11.811  13.852  69.314  1.00  0.00    -0.348 C  
HETATM   12  O   UNL     1     -12.031  12.070  66.740  1.00  0.00    -0.616 OA 
HETATM   13  C   UNL     1     -11.783  14.783  68.093  1.00  0.00    -0.353 C  
HETATM   14  C   UNL     1     -10.432  14.796  67.383  1.00  0.00    -0.256 C  
HETATM   15  O   UNL     1      -9.937  13.506  67.059  1.00  0.00    -0.238 OA 
ENDBRANCH   4   8
ENDBRANCH   3   4
TORSDOF 3
ENDMDL
MODEL      109
REMARK 921   NORMALIZED FREE ENERGY PREDICTED BY IDOCK:   -3.38 KCAL/MOL
REMARK 922        TOTAL FREE ENERGY PREDICTED BY IDOCK:   -4.21 KCAL/MOL
REMARK 923 INTER-LIGAND FREE ENERGY PREDICTED BY IDOCK:   -3.98 KCAL/MOL
REMARK 924 INTRA-LIGAND FREE ENERGY PREDICTED BY IDOCK:   -0.23 KCAL/MOL
REMARK 927      BINDING AFFINITY PREDICTED BY RF-SCORE:    0.00 PKD
ROOT
HETATM    1 CL   UNL     1     -10.658  10.915  65.824  1.00  0.00    -0.268 Cl 
HETATM    2  C   UNL     1     -10.231  11.307  67.519  1.00  0.00    -0.189 C  
HETATM    3  C   UNL     1     -11.307  10.756  68.462  1.00  0.00    -0.295 C  
ENDROOT
BRANCH   3   4
HETATM    4  N   UNL     1     -11.174  10.955  69.944  1.00  0.00    -0.285 NA 
BRANCH   4   5
HETATM    5  C   UNL     1     -12.122  12.012  70.375  1.00  0.00    -0.321 C  
HETATM    6 CL   UNL     1     -12.965  14.571  70.777  1.00  0.00    -0.415 Cl 
HETATM    7  C   UNL     1     -11.635  13.468  70.302  1.00  0.00    -0.066 C  
ENDBRANCH   4   5
BRANCH   4   8
HETATM    8  P   UNL     1     -11.321   9.472  70.697  1.00  0.00    -0.332 P  
HETATM    9  N   UNL     1     -12.915   9.156  70.844  1.00  0.00    -0.521 NA 
HETATM   10  H   UNL     1     -13.385   9.294  69.949  1.00  0.00     0.000 HD 
HETATM   11  C   UNL     1     -13.237   7.838  71.385  1.00  0.00    -0.267 C  
HETATM   12  O   UNL     1     -10.562   9.365  71.985  1.00  0.00    -0.156 OA 
HETATM   13  C   UNL     1     -12.082   6.835  71.248  1.00  0.00    -0.421 C  
HETATM   14  C   UNL     1     -11.311   6.987  69.939  1.00  0.00    -0.216 C  
HETATM   15  O   UNL     1     -10.878   8.312  69.674  1.00  0.00    -0.226 OA 
ENDBRANCH   4   8
ENDBRANCH   3   4
TORSDOF 3
ENDMDL
MODEL      110
REMARK 921   NORMALIZED FREE ENERGY PREDICTED BY IDOCK:   -3.38 KCAL/MOL
REMARK 922        TOTAL FREE ENERGY PREDICTED BY IDOCK:   -4.21 KCAL/MOL
REMARK 923 INTER-LIGAND FREE ENERGY PREDICTED BY IDOCK:   -4.05 KCAL/MOL
REMARK 924 INTRA-LIGAND FREE ENERGY PREDICTED BY IDOCK:   -0.16 KCAL/MOL
REMARK 927      BINDING AFFINITY PREDICTED BY RF-SCORE:    0.00 PKD
ROOT
HETATM    1 CL   UNL     1      -9.090  17.237  68.323  1.00  0.00    -0.254 Cl 
HETATM    2  C   UNL     1     -10.693  16.438  68.292  1.00  0.00    -0.337 C  
HETATM    3  C   UNL     1     -10.510  14.919  68.193  1.00  0.00    -0.242 C  
ENDROOT
BRANCH   3   4
HETATM    4  N   UNL     1     -11.714  14.024  68.152  1.00  0.00    -0.333 NA 
BRANCH   4   5
HETATM    5  C   UNL     1     -12.290  14.052  66.786  1.00  0.00    -0.332 C  
HETATM    6 CL   UNL     1     -12.211  14.091  64.063  1.00  0.00    -0.462 Cl 
HETATM    7  C   UNL     1     -11.309  14.171  65.609  1.00  0.00    -0.319 C  
ENDBRANCH   4   5
BRANCH   4   8
HETATM    8  P   UNL     1     -11.282  12.524  68.747  1.00  0.00    -0.299 P  
HETATM    9  N   UNL     1     -11.791  11.408  67.670  1.00  0.00    -0.636 NA 
HETATM   10  H   UNL     1     -11.487  11.662  66.730  1.00  0.00     0.000 HD 
HETATM   11  C   UNL     1     -11.399  10.034  67.973  1.00  0.00     0.004 C  
HETATM   12  O   UNL     1     -11.748  12.268  70.149  1.00  0.00    -0.293 OA 
HETATM   13  C   UNL     1     -10.203   9.948  68.931  1.00  0.00    -0.209 C  
HETATM   14  C   UNL     1      -9.157  11.031  68.679  1.00  0.00    -0.174 C  
HETATM   15  O   UNL     1      -9.688  12.347  68.633  1.00  0.00    -0.166 OA 
ENDBRANCH   4   8
ENDBRANCH   3   4
TORSDOF 3
ENDMDL
MODEL      111
REMARK 921   NORMALIZED FREE ENERGY PREDICTED BY IDOCK:   -3.35 KCAL/MOL
REMARK 922        TOTAL FREE ENERGY PREDICTED BY IDOCK:   -4.18 KCAL/MOL
REMARK 923 INTER-LIGAND FREE ENERGY PREDICTED BY IDOCK:   -3.93 KCAL/MOL
REMARK 924 INTRA-LIGAND FREE ENERGY PREDICTED BY IDOCK:   -0.25 KCAL/MOL
REMARK 927      BINDING AFFINITY PREDICTED BY RF-SCORE:    0.00 PKD
ROOT
HETATM    1 CL   UNL     1     -12.115  14.198  67.193  1.00  0.00    -0.464 Cl 
HETATM    2  C   UNL     1     -11.356  15.283  68.399  1.00  0.00    -0.329 C  
HETATM    3  C   UNL     1      -9.994  15.758  67.879  1.00  0.00    -0.227 C  
ENDROOT
BRANCH   3   4
HETATM    4  N   UNL     1      -9.158  16.684  68.714  1.00  0.00    -0.250 NA 
BRANCH   4   5
HETATM    5  C   UNL     1      -8.028  15.921  69.298  1.00  0.00    -0.229 C  
HETATM    6 CL   UNL     1      -5.933  14.181  69.264  1.00  0.00    -0.092 Cl 
HETATM    7  C   UNL     1      -7.312  14.913  68.385  1.00  0.00    -0.114 C  
ENDBRANCH   4   5
BRANCH   4   8
HETATM    8  P   UNL     1      -8.757  18.017  67.791  1.00  0.00    -0.259 P  
HETATM    9  N   UNL     1      -9.831  19.194  68.142  1.00  0.00    -0.346 NA 
HETATM   10  H   UNL     1      -9.907  19.310  69.153  1.00  0.00     0.000 HD 
HETATM   11  C   UNL     1      -9.567  20.482  67.505  1.00  0.00    -0.405 C  
HETATM   12  O   UNL     1      -8.635  17.728  66.325  1.00  0.00    -0.384 OA 
HETATM   13  C   UNL     1      -8.111  20.636  67.045  1.00  0.00    -0.278 C  
HETATM   14  C   UNL     1      -7.109  20.013  68.013  1.00  0.00    -0.287 C  
HETATM   15  O   UNL     1      -7.400  18.668  68.360  1.00  0.00    -0.267 OA 
ENDBRANCH   4   8
ENDBRANCH   3   4
TORSDOF 3
ENDMDL
MODEL      112
REMARK 921   NORMALIZED FREE ENERGY PREDICTED BY IDOCK:   -3.34 KCAL/MOL
REMARK 922        TOTAL FREE ENERGY PREDICTED BY IDOCK:   -4.16 KCAL/MOL
REMARK 923 INTER-LIGAND FREE ENERGY PREDICTED BY IDOCK:   -3.91 KCAL/MOL
REMARK 924 INTRA-LIGAND FREE ENERGY PREDICTED BY IDOCK:   -0.25 KCAL/MOL
REMARK 927      BINDING AFFINITY PREDICTED BY RF-SCORE:    0.00 PKD
ROOT
HETATM    1 CL   UNL     1     -13.686   9.411  72.224  1.00  0.00    -0.510 Cl 
HETATM    2  C   UNL     1     -12.307   8.642  71.378  1.00  0.00    -0.304 C  
HETATM    3  C   UNL     1     -12.573   7.141  71.216  1.00  0.00    -0.380 C  
ENDROOT
BRANCH   3   4
HETATM    4  N   UNL     1     -11.558   6.272  70.532  1.00  0.00    -0.344 NA 
BRANCH   4   5
HETATM    5  C   UNL     1     -10.980   7.016  69.387  1.00  0.00    -0.201 C  
HETATM    6 CL   UNL     1     -10.324   7.423  66.774  1.00  0.00    -0.346 Cl 
HETATM    7  C   UNL     1     -10.977   6.313  68.020  1.00  0.00    -0.327 C  
ENDBRANCH   4   5
BRANCH   4   8
HETATM    8  P   UNL     1     -10.479   5.712  71.677  1.00  0.00    -0.229 P  
HETATM    9  N   UNL     1     -11.325   5.417  73.041  1.00  0.00    -0.410 NA 
HETATM   10  H   UNL     1     -12.145   4.849  72.830  1.00  0.00     0.000 HD 
HETATM   11  C   UNL     1     -10.557   4.811  74.126  1.00  0.00    -0.296 C  
HETATM   12  O   UNL     1      -9.292   6.605  71.883  1.00  0.00    -0.148 OA 
HETATM   13  C   UNL     1      -9.274   4.122  73.640  1.00  0.00    -0.104 C  
HETATM   14  C   UNL     1      -9.448   3.410  72.301  1.00  0.00    -0.123 C  
HETATM   15  O   UNL     1     -10.014   4.223  71.284  1.00  0.00    -0.186 OA 
ENDBRANCH   4   8
ENDBRANCH   3   4
TORSDOF 3
ENDMDL
MODEL      113
REMARK 921   NORMALIZED FREE ENERGY PREDICTED BY IDOCK:   -3.32 KCAL/MOL
REMARK 922        TOTAL FREE ENERGY PREDICTED BY IDOCK:   -4.14 KCAL/MOL
REMARK 923 INTER-LIGAND FREE ENERGY PREDICTED BY IDOCK:   -3.92 KCAL/MOL
REMARK 924 INTRA-LIGAND FREE ENERGY PREDICTED BY IDOCK:   -0.22 KCAL/MOL
REMARK 927      BINDING AFFINITY PREDICTED BY RF-SCORE:    0.00 PKD
ROOT
HETATM    1 CL   UNL     1      -6.854   8.733  71.839  1.00  0.00    -0.084 Cl 
HETATM    2  C   UNL     1      -8.197   7.547  71.850  1.00  0.00    -0.106 C  
HETATM    3  C   UNL     1      -9.314   8.025  70.914  1.00  0.00    -0.153 C  
ENDROOT
BRANCH   3   4
HETATM    4  N   UNL     1     -10.555   7.197  70.749  1.00  0.00    -0.220 NA 
BRANCH   4   5
HETATM    5  C   UNL     1     -10.221   5.773  70.992  1.00  0.00    -0.217 C  
HETATM    6 CL   UNL     1      -9.546   3.230  70.284  1.00  0.00    -0.233 Cl 
HETATM    7  C   UNL     1     -10.033   4.873  69.760  1.00  0.00    -0.244 C  
ENDBRANCH   4   5
BRANCH   4   8
HETATM    8  P   UNL     1     -11.761   7.851  71.700  1.00  0.00    -0.313 P  
HETATM    9  N   UNL     1     -12.010   9.381  71.188  1.00  0.00    -0.317 NA 
HETATM   10  H   UNL     1     -12.129   9.399  70.175  1.00  0.00     0.000 HD 
HETATM   11  C   UNL     1     -13.117  10.079  71.837  1.00  0.00    -0.460 C  
HETATM   12  O   UNL     1     -11.504   7.741  73.172  1.00  0.00    -0.330 OA 
HETATM   13  C   UNL     1     -14.126   9.124  72.491  1.00  0.00    -0.387 C  
HETATM   14  C   UNL     1     -14.359   7.853  71.678  1.00  0.00    -0.479 C  
HETATM   15  O   UNL     1     -13.168   7.173  71.313  1.00  0.00    -0.377 OA 
ENDBRANCH   4   8
ENDBRANCH   3   4
TORSDOF 3
ENDMDL
MODEL      114
REMARK 921   NORMALIZED FREE ENERGY PREDICTED BY IDOCK:   -3.32 KCAL/MOL
REMARK 922        TOTAL FREE ENERGY PREDICTED BY IDOCK:   -4.14 KCAL/MOL
REMARK 923 INTER-LIGAND FREE ENERGY PREDICTED BY IDOCK:   -3.93 KCAL/MOL
REMARK 924 INTRA-LIGAND FREE ENERGY PREDICTED BY IDOCK:   -0.21 KCAL/MOL
REMARK 927      BINDING AFFINITY PREDICTED BY RF-SCORE:    0.00 PKD
ROOT
HETATM    1 CL   UNL     1     -11.015  19.674  66.505  1.00  0.00    -0.446 Cl 
HETATM    2  C   UNL     1     -10.120  18.148  66.225  1.00  0.00    -0.371 C  
HETATM    3  C   UNL     1      -9.982  17.381  67.545  1.00  0.00    -0.298 C  
ENDROOT
BRANCH   3   4
HETATM    4  N   UNL     1      -9.267  16.062  67.571  1.00  0.00    -0.210 NA 
BRANCH   4   5
HETATM    5  C   UNL     1      -8.131  16.148  68.520  1.00  0.00    -0.181 C  
HETATM    6 CL   UNL     1      -6.091  17.382  69.839  1.00  0.00    -0.231 Cl 
HETATM    7  C   UNL     1      -7.350  17.471  68.567  1.00  0.00    -0.243 C  
ENDBRANCH   4   5
BRANCH   4   8
HETATM    8  P   UNL     1     -10.385  14.856  67.857  1.00  0.00    -0.241 P  
HETATM    9  N   UNL     1      -9.556  13.475  68.121  1.00  0.00    -0.211 NA 
HETATM   10  H   UNL     1      -8.824  13.631  68.813  1.00  0.00     0.000 HD 
HETATM   11  C   UNL     1     -10.374  12.325  68.500  1.00  0.00    -0.223 C  
HETATM   12  O   UNL     1     -11.437  14.736  66.796  1.00  0.00    -0.351 OA 
HETATM   13  C   UNL     1     -11.748  12.724  69.056  1.00  0.00    -0.371 C  
HETATM   14  C   UNL     1     -11.700  13.982  69.921  1.00  0.00    -0.303 C  
HETATM   15  O   UNL     1     -11.055  15.084  69.302  1.00  0.00    -0.246 OA 
ENDBRANCH   4   8
ENDBRANCH   3   4
TORSDOF 3
ENDMDL
MODEL      115
REMARK 921   NORMALIZED FREE ENERGY PREDICTED BY IDOCK:   -3.31 KCAL/MOL
REMARK 922        TOTAL FREE ENERGY PREDICTED BY IDOCK:   -4.12 KCAL/MOL
REMARK 923 INTER-LIGAND FREE ENERGY PREDICTED BY IDOCK:   -3.92 KCAL/MOL
REMARK 924 INTRA-LIGAND FREE ENERGY PREDICTED BY IDOCK:   -0.20 KCAL/MOL
REMARK 927      BINDING AFFINITY PREDICTED BY RF-SCORE:    0.00 PKD
ROOT
HETATM    1 CL   UNL     1      -8.924   8.514  72.644  1.00  0.00    -0.297 Cl 
HETATM    2  C   UNL     1      -9.095   8.337  70.870  1.00  0.00    -0.152 C  
HETATM    3  C   UNL     1      -9.887   9.523  70.308  1.00  0.00    -0.261 C  
ENDROOT
BRANCH   3   4
HETATM    4  N   UNL     1     -10.164   9.604  68.835  1.00  0.00    -0.193 NA 
BRANCH   4   5
HETATM    5  C   UNL     1     -10.796   8.338  68.391  1.00  0.00     0.092 C  
HETATM    6 CL   UNL     1     -11.073   6.118  66.837  1.00  0.00    -0.383 Cl 
HETATM    7  C   UNL     1     -10.226   7.670  67.130  1.00  0.00    -0.290 C  
ENDBRANCH   4   5
BRANCH   4   8
HETATM    8  P   UNL     1     -11.016  11.008  68.530  1.00  0.00    -0.279 P  
HETATM    9  N   UNL     1      -9.957  12.248  68.611  1.00  0.00    -0.374 NA 
HETATM   10  H   UNL     1      -9.135  12.046  68.041  1.00  0.00     0.000 HD 
HETATM   11  C   UNL     1     -10.507  13.554  68.259  1.00  0.00    -0.253 C  
HETATM   12  O   UNL     1     -12.224  11.188  69.398  1.00  0.00    -0.333 OA 
HETATM   13  C   UNL     1     -11.791  13.459  67.422  1.00  0.00    -0.418 C  
HETATM   14  C   UNL     1     -11.762  12.315  66.412  1.00  0.00    -0.365 C  
HETATM   15  O   UNL     1     -11.418  11.057  66.973  1.00  0.00    -0.415 OA 
ENDBRANCH   4   8
ENDBRANCH   3   4
TORSDOF 3
ENDMDL
MODEL      116
REMARK 921   NORMALIZED FREE ENERGY PREDICTED BY IDOCK:   -3.30 KCAL/MOL
REMARK 922        TOTAL FREE ENERGY PREDICTED BY IDOCK:   -4.12 KCAL/MOL
REMARK 923 INTER-LIGAND FREE ENERGY PREDICTED BY IDOCK:   -4.02 KCAL/MOL
REMARK 924 INTRA-LIGAND FREE ENERGY PREDICTED BY IDOCK:   -0.10 KCAL/MOL
REMARK 927      BINDING AFFINITY PREDICTED BY RF-SCORE:    0.00 PKD
ROOT
HETATM    1 CL   UNL     1      -6.320  20.025  64.978  1.00  0.00    -0.297 Cl 
HETATM    2  C   UNL     1      -6.195  18.263  65.270  1.00  0.00    -0.163 C  
HETATM    3  C   UNL     1      -7.455  17.769  65.990  1.00  0.00    -0.249 C  
ENDROOT
BRANCH   3   4
HETATM    4  N   UNL     1      -7.591  16.317  66.346  1.00  0.00    -0.188 NA 
BRANCH   4   5
HETATM    5  C   UNL     1      -6.899  16.069  67.634  1.00  0.00    -0.159 C  
HETATM    6 CL   UNL     1      -6.174  16.615  70.203  1.00  0.00    -0.088 Cl 
HETATM    7  C   UNL     1      -6.998  17.163  68.709  1.00  0.00    -0.217 C  
ENDBRANCH   4   5
BRANCH   4   8
HETATM    8  P   UNL     1      -9.206  15.900  66.278  1.00  0.00    -0.359 P  
HETATM    9  N   UNL     1      -9.288  14.341  65.802  1.00  0.00    -0.525 NA 
HETATM   10  H   UNL     1      -8.663  13.767  66.369  1.00  0.00     0.000 HD 
HETATM   11  C   UNL     1     -10.631  13.767  65.793  1.00  0.00    -0.293 C  
HETATM   12  O   UNL     1     -10.040  16.830  65.448  1.00  0.00    -0.587 OA 
HETATM   13  C   UNL     1     -11.620  14.539  66.678  1.00  0.00    -0.385 C  
HETATM   14  C   UNL     1     -10.988  15.055  67.969  1.00  0.00    -0.284 C  
HETATM   15  O   UNL     1      -9.790  15.789  67.773  1.00  0.00    -0.222 OA 
ENDBRANCH   4   8
ENDBRANCH   3   4
TORSDOF 3
ENDMDL
MODEL      117
REMARK 921   NORMALIZED FREE ENERGY PREDICTED BY IDOCK:   -3.29 KCAL/MOL
REMARK 922        TOTAL FREE ENERGY PREDICTED BY IDOCK:   -4.10 KCAL/MOL
REMARK 923 INTER-LIGAND FREE ENERGY PREDICTED BY IDOCK:   -3.87 KCAL/MOL
REMARK 924 INTRA-LIGAND FREE ENERGY PREDICTED BY IDOCK:   -0.23 KCAL/MOL
REMARK 927      BINDING AFFINITY PREDICTED BY RF-SCORE:    0.00 PKD
ROOT
HETATM    1 CL   UNL     1      -8.302   7.795  65.450  1.00  0.00    -0.144 Cl 
HETATM    2  C   UNL     1      -9.527   9.084  65.662  1.00  0.00    -0.203 C  
HETATM    3  C   UNL     1      -8.842  10.375  66.125  1.00  0.00    -0.158 C  
ENDROOT
BRANCH   3   4
HETATM    4  N   UNL     1      -9.662  11.608  66.373  1.00  0.00    -0.208 NA 
BRANCH   4   5
HETATM    5  C   UNL     1     -10.695  11.722  65.314  1.00  0.00    -0.287 C  
HETATM    6 CL   UNL     1     -12.096  12.977  63.344  1.00  0.00    -0.630 Cl 
HETATM    7  C   UNL     1     -10.871  13.095  64.647  1.00  0.00    -0.366 C  
ENDBRANCH   4   5
BRANCH   4   8
HETATM    8  P   UNL     1     -10.213  11.574  67.949  1.00  0.00    -0.197 P  
HETATM    9  N   UNL     1     -11.726  10.961  67.923  1.00  0.00    -0.682 NA 
HETATM   10  H   UNL     1     -11.746  10.095  67.384  1.00  0.00     0.000 HD 
HETATM   11  C   UNL     1     -12.331  10.752  69.236  1.00  0.00     0.016 C  
HETATM   12  O   UNL     1     -10.105  12.889  68.661  1.00  0.00    -0.212 OA 
HETATM   13  C   UNL     1     -11.296  10.669  70.367  1.00  0.00    -0.389 C  
HETATM   14  C   UNL     1     -10.021   9.937  69.957  1.00  0.00    -0.254 C  
HETATM   15  O   UNL     1      -9.436  10.420  68.758  1.00  0.00    -0.158 OA 
ENDBRANCH   4   8
ENDBRANCH   3   4
TORSDOF 3
ENDMDL
MODEL      118
REMARK 921   NORMALIZED FREE ENERGY PREDICTED BY IDOCK:   -3.23 KCAL/MOL
REMARK 922        TOTAL FREE ENERGY PREDICTED BY IDOCK:   -4.03 KCAL/MOL
REMARK 923 INTER-LIGAND FREE ENERGY PREDICTED BY IDOCK:   -3.81 KCAL/MOL
REMARK 924 INTRA-LIGAND FREE ENERGY PREDICTED BY IDOCK:   -0.21 KCAL/MOL
REMARK 927      BINDING AFFINITY PREDICTED BY RF-SCORE:    0.00 PKD
ROOT
HETATM    1 CL   UNL     1     -10.471   7.625  68.800  1.00  0.00    -0.219 Cl 
HETATM    2  C   UNL     1      -9.312   8.897  68.303  1.00  0.00    -0.143 C  
HETATM    3  C   UNL     1     -10.031   9.940  67.439  1.00  0.00    -0.189 C  
ENDROOT
BRANCH   3   4
HETATM    4  N   UNL     1      -9.269  11.114  66.898  1.00  0.00    -0.166 NA 
BRANCH   4   5
HETATM    5  C   UNL     1      -8.604  10.716  65.633  1.00  0.00    -0.182 C  
HETATM    6 CL   UNL     1      -8.429   9.504  63.200  1.00  0.00    -0.184 Cl 
HETATM    7  C   UNL     1      -9.376   9.773  64.697  1.00  0.00    -0.256 C  
ENDBRANCH   4   5
BRANCH   4   8
HETATM    8  P   UNL     1     -10.299  12.425  66.816  1.00  0.00    -0.227 P  
HETATM    9  N   UNL     1      -9.635  13.503  65.784  1.00  0.00    -0.493 NA 
HETATM   10  H   UNL     1      -9.370  13.040  64.915  1.00  0.00     0.000 HD 
HETATM   11  C   UNL     1     -10.459  14.675  65.501  1.00  0.00    -0.356 C  
HETATM   12  O   UNL     1     -10.653  13.006  68.152  1.00  0.00    -0.231 OA 
HETATM   13  C   UNL     1     -11.947  14.453  65.809  1.00  0.00    -0.362 C  
HETATM   14  C   UNL     1     -12.425  13.046  65.457  1.00  0.00    -0.438 C  
HETATM   15  O   UNL     1     -11.624  12.010  66.004  1.00  0.00    -0.371 OA 
ENDBRANCH   4   8
ENDBRANCH   3   4
TORSDOF 3
ENDMDL
MODEL      119
REMARK 921   NORMALIZED FREE ENERGY PREDICTED BY IDOCK:   -3.22 KCAL/MOL
REMARK 922        TOTAL FREE ENERGY PREDICTED BY IDOCK:   -4.03 KCAL/MOL
REMARK 923 INTER-LIGAND FREE ENERGY PREDICTED BY IDOCK:   -3.84 KCAL/MOL
REMARK 924 INTRA-LIGAND FREE ENERGY PREDICTED BY IDOCK:   -0.19 KCAL/MOL
REMARK 927      BINDING AFFINITY PREDICTED BY RF-SCORE:    0.00 PKD
ROOT
HETATM    1 CL   UNL     1      -9.964  17.889  66.703  1.00  0.00    -0.337 Cl 
HETATM    2  C   UNL     1     -10.516  16.306  66.073  1.00  0.00    -0.331 C  
HETATM    3  C   UNL     1     -10.386  15.241  67.169  1.00  0.00    -0.265 C  
ENDROOT
BRANCH   3   4
HETATM    4  N   UNL     1     -10.791  13.824  66.885  1.00  0.00    -0.283 NA 
BRANCH   4   5
HETATM    5  C   UNL     1     -11.071  13.683  65.436  1.00  0.00    -0.298 C  
HETATM    6 CL   UNL     1     -12.263  12.607  63.235  1.00  0.00    -0.596 Cl 
HETATM    7  C   UNL     1     -11.989  12.528  65.004  1.00  0.00    -0.427 C  
ENDBRANCH   4   5
BRANCH   4   8
HETATM    8  P   UNL     1      -9.633  12.802  67.521  1.00  0.00    -0.205 P  
HETATM    9  N   UNL     1      -8.820  12.146  66.267  1.00  0.00    -0.387 NA 
HETATM   10  H   UNL     1      -8.519  12.876  65.622  1.00  0.00     0.000 HD 
HETATM   11  C   UNL     1      -7.686  11.303  66.639  1.00  0.00    -0.148 C  
HETATM   12  O   UNL     1     -10.177  11.791  68.485  1.00  0.00    -0.203 OA 
HETATM   13  C   UNL     1      -7.172  11.580  68.059  1.00  0.00    -0.085 C  
HETATM   14  C   UNL     1      -7.213  13.061  68.430  1.00  0.00    -0.110 C  
HETATM   15  O   UNL     1      -8.471  13.678  68.207  1.00  0.00    -0.161 OA 
ENDBRANCH   4   8
ENDBRANCH   3   4
TORSDOF 3
ENDMDL
MODEL      120
REMARK 921   NORMALIZED FREE ENERGY PREDICTED BY IDOCK:   -3.21 KCAL/MOL
REMARK 922        TOTAL FREE ENERGY PREDICTED BY IDOCK:   -4.01 KCAL/MOL
REMARK 923 INTER-LIGAND FREE ENERGY PREDICTED BY IDOCK:   -3.74 KCAL/MOL
REMARK 924 INTRA-LIGAND FREE ENERGY PREDICTED BY IDOCK:   -0.26 KCAL/MOL
REMARK 927      BINDING AFFINITY PREDICTED BY RF-SCORE:    0.00 PKD
ROOT
HETATM    1 CL   UNL     1      -7.295  15.403  67.810  1.00  0.00    -0.160 Cl 
HETATM    2  C   UNL     1      -9.013  14.918  67.662  1.00  0.00    -0.180 C  
HETATM    3  C   UNL     1      -9.105  13.549  66.977  1.00  0.00    -0.244 C  
ENDROOT
BRANCH   3   4
HETATM    4  N   UNL     1     -10.448  12.923  66.738  1.00  0.00    -0.252 NA 
BRANCH   4   5
HETATM    5  C   UNL     1     -10.748  12.963  65.286  1.00  0.00    -0.296 C  
HETATM    6 CL   UNL     1     -12.356  13.061  63.090  1.00  0.00    -0.438 Cl 
HETATM    7  C   UNL     1     -12.226  12.904  64.870  1.00  0.00    -0.453 C  
ENDBRANCH   4   5
BRANCH   4   8
HETATM    8  P   UNL     1     -10.469  11.417  67.461  1.00  0.00    -0.224 P  
HETATM    9  N   UNL     1      -9.873  10.350  66.380  1.00  0.00    -0.204 NA 
HETATM   10  H   UNL     1      -8.991  10.691  65.999  1.00  0.00     0.000 HD 
HETATM   11  C   UNL     1      -9.712   8.987  66.882  1.00  0.00    -0.200 C  
HETATM   12  O   UNL     1     -11.805  11.029  68.020  1.00  0.00    -0.593 OA 
HETATM   13  C   UNL     1      -9.654   8.915  68.414  1.00  0.00    -0.157 C  
HETATM   14  C   UNL     1      -8.895  10.083  69.039  1.00  0.00    -0.159 C  
HETATM   15  O   UNL     1      -9.334  11.359  68.599  1.00  0.00    -0.185 OA 
ENDBRANCH   4   8
ENDBRANCH   3   4
TORSDOF 3
ENDMDL
MODEL      121
REMARK 921   NORMALIZED FREE ENERGY PREDICTED BY IDOCK:   -3.21 KCAL/MOL
REMARK 922        TOTAL FREE ENERGY PREDICTED BY IDOCK:   -4.01 KCAL/MOL
REMARK 923 INTER-LIGAND FREE ENERGY PREDICTED BY IDOCK:   -3.76 KCAL/MOL
REMARK 924 INTRA-LIGAND FREE ENERGY PREDICTED BY IDOCK:   -0.24 KCAL/MOL
REMARK 927      BINDING AFFINITY PREDICTED BY RF-SCORE:    0.00 PKD
ROOT
HETATM    1 CL   UNL     1     -10.964  11.650  65.801  1.00  0.00    -0.343 Cl 
HETATM    2  C   UNL     1      -9.998  11.052  67.185  1.00  0.00    -0.187 C  
HETATM    3  C   UNL     1     -10.903  10.272  68.146  1.00  0.00    -0.265 C  
ENDROOT
BRANCH   3   4
HETATM    4  N   UNL     1     -10.323   9.665  69.391  1.00  0.00    -0.201 NA 
BRANCH   4   5
HETATM    5  C   UNL     1     -11.089  10.150  70.565  1.00  0.00    -0.327 C  
HETATM    6 CL   UNL     1     -13.189  11.325  71.841  1.00  0.00    -0.566 Cl 
HETATM    7  C   UNL     1     -12.389  10.921  70.290  1.00  0.00    -0.330 C  
ENDBRANCH   4   5
BRANCH   4   8
HETATM    8  P   UNL     1     -10.241   8.010  69.188  1.00  0.00    -0.213 P  
HETATM    9  N   UNL     1      -8.842   7.506  69.861  1.00  0.00    -0.140 NA 
HETATM   10  H   UNL     1      -8.749   7.884  70.804  1.00  0.00     0.000 HD 
HETATM   11  C   UNL     1      -8.650   6.058  69.876  1.00  0.00    -0.131 C  
HETATM   12  O   UNL     1     -10.426   7.560  67.770  1.00  0.00    -0.210 OA 
HETATM   13  C   UNL     1      -9.963   5.277  69.726  1.00  0.00    -0.306 C  
HETATM   14  C   UNL     1     -11.132   5.928  70.461  1.00  0.00    -0.277 C  
HETATM   15  O   UNL     1     -11.312   7.302  70.157  1.00  0.00    -0.266 OA 
ENDBRANCH   4   8
ENDBRANCH   3   4
TORSDOF 3
ENDMDL
MODEL      122
REMARK 921   NORMALIZED FREE ENERGY PREDICTED BY IDOCK:   -3.20 KCAL/MOL
REMARK 922        TOTAL FREE ENERGY PREDICTED BY IDOCK:   -4.00 KCAL/MOL
REMARK 923 INTER-LIGAND FREE ENERGY PREDICTED BY IDOCK:   -4.09 KCAL/MOL
REMARK 924 INTRA-LIGAND FREE ENERGY PREDICTED BY IDOCK:    0.09 KCAL/MOL
REMARK 927      BINDING AFFINITY PREDICTED BY RF-SCORE:    0.00 PKD
ROOT
HETATM    1 CL   UNL     1      -8.304  11.053  69.002  1.00  0.00    -0.126 Cl 
HETATM    2  C   UNL     1      -9.343  12.210  68.113  1.00  0.00    -0.204 C  
HETATM    3  C   UNL     1     -10.813  11.801  68.260  1.00  0.00    -0.220 C  
ENDROOT
BRANCH   3   4
HETATM    4  N   UNL     1     -11.885  12.620  67.602  1.00  0.00    -0.359 NA 
BRANCH   4   5
HETATM    5  C   UNL     1     -11.865  13.989  68.172  1.00  0.00    -0.367 C  
HETATM    6 CL   UNL     1     -12.019  15.850  70.155  1.00  0.00    -0.340 Cl 
HETATM    7  C   UNL     1     -12.195  14.136  69.666  1.00  0.00    -0.326 C  
ENDBRANCH   4   5
BRANCH   4   8
HETATM    8  P   UNL     1     -11.706  12.500  65.946  1.00  0.00    -0.392 P  
HETATM    9  N   UNL     1     -10.605  13.618  65.494  1.00  0.00    -0.287 NA 
HETATM   10  H   UNL     1      -9.772  13.548  66.077  1.00  0.00     0.000 HD 
HETATM   11  C   UNL     1     -10.236  13.584  64.080  1.00  0.00     0.213 C  
HETATM   12  O   UNL     1     -12.996  12.579  65.187  1.00  0.00    -0.700 OA 
HETATM   13  C   UNL     1     -10.550  12.239  63.410  1.00  0.00    -0.427 C  
HETATM   14  C   UNL     1     -10.294  11.043  64.323  1.00  0.00    -0.364 C  
HETATM   15  O   UNL     1     -10.917  11.143  65.595  1.00  0.00    -0.195 OA 
ENDBRANCH   4   8
ENDBRANCH   3   4
TORSDOF 3
ENDMDL
MODEL      123
REMARK 921   NORMALIZED FREE ENERGY PREDICTED BY IDOCK:   -3.20 KCAL/MOL
REMARK 922        TOTAL FREE ENERGY PREDICTED BY IDOCK:   -4.00 KCAL/MOL
REMARK 923 INTER-LIGAND FREE ENERGY PREDICTED BY IDOCK:   -3.77 KCAL/MOL
REMARK 924 INTRA-LIGAND FREE ENERGY PREDICTED BY IDOCK:   -0.23 KCAL/MOL
REMARK 927      BINDING AFFINITY PREDICTED BY RF-SCORE:    0.00 PKD
ROOT
HETATM    1 CL   UNL     1     -11.633  15.344  72.121  1.00  0.00    -0.531 Cl 
HETATM    2  C   UNL     1     -11.578  15.483  70.336  1.00  0.00    -0.337 C  
HETATM    3  C   UNL     1     -10.144  15.787  69.886  1.00  0.00    -0.228 C  
ENDROOT
BRANCH   3   4
HETATM    4  N   UNL     1      -9.838  15.949  68.425  1.00  0.00    -0.211 NA 
BRANCH   4   5
HETATM    5  C   UNL     1      -9.532  17.374  68.151  1.00  0.00    -0.288 C  
HETATM    6 CL   UNL     1     -10.120  19.958  67.520  1.00  0.00    -0.538 Cl 
HETATM    7  C   UNL     1     -10.696  18.271  67.702  1.00  0.00    -0.348 C  
ENDBRANCH   4   5
BRANCH   4   8
HETATM    8  P   UNL     1      -8.664  14.841  68.002  1.00  0.00    -0.185 P  
HETATM    9  N   UNL     1      -7.800  14.508  69.346  1.00  0.00    -0.357 NA 
HETATM   10  H   UNL     1      -8.426  14.279  70.119  1.00  0.00     0.000 HD 
HETATM   11  C   UNL     1      -6.790  13.464  69.190  1.00  0.00    -0.076 C  
HETATM   12  O   UNL     1      -7.824  15.260  66.832  1.00  0.00    -0.209 OA 
HETATM   13  C   UNL     1      -7.052  12.551  67.983  1.00  0.00    -0.103 C  
HETATM   14  C   UNL     1      -8.534  12.256  67.769  1.00  0.00    -0.163 C  
HETATM   15  O   UNL     1      -9.354  13.414  67.727  1.00  0.00    -0.195 OA 
ENDBRANCH   4   8
ENDBRANCH   3   4
TORSDOF 3
ENDMDL
MODEL      124
REMARK 921   NORMALIZED FREE ENERGY PREDICTED BY IDOCK:   -3.20 KCAL/MOL
REMARK 922        TOTAL FREE ENERGY PREDICTED BY IDOCK:   -3.99 KCAL/MOL
REMARK 923 INTER-LIGAND FREE ENERGY PREDICTED BY IDOCK:   -3.79 KCAL/MOL
REMARK 924 INTRA-LIGAND FREE ENERGY PREDICTED BY IDOCK:   -0.20 KCAL/MOL
REMARK 927      BINDING AFFINITY PREDICTED BY RF-SCORE:    0.00 PKD
ROOT
HETATM    1 CL   UNL     1      -8.778  10.264  66.069  1.00  0.00    -0.155 Cl 
HETATM    2  C   UNL     1     -10.076   9.115  66.519  1.00  0.00    -0.287 C  
HETATM    3  C   UNL     1      -9.633   8.286  67.730  1.00  0.00    -0.148 C  
ENDROOT
BRANCH   3   4
HETATM    4  N   UNL     1     -10.555   7.247  68.301  1.00  0.00    -0.195 NA 
BRANCH   4   5
HETATM    5  C   UNL     1     -10.066   5.902  67.912  1.00  0.00    -0.162 C  
HETATM    6 CL   UNL     1      -9.692   3.792  66.230  1.00  0.00    -0.179 Cl 
HETATM    7  C   UNL     1     -10.465   5.382  66.522  1.00  0.00    -0.294 C  
ENDBRANCH   4   5
BRANCH   4   8
HETATM    8  P   UNL     1     -10.728   7.531  69.937  1.00  0.00    -0.210 P  
HETATM    9  N   UNL     1     -11.621   8.888  70.104  1.00  0.00    -0.462 NA 
HETATM   10  H   UNL     1     -12.462   8.828  69.531  1.00  0.00     0.000 HD 
HETATM   11  C   UNL     1     -11.971   9.232  71.480  1.00  0.00    -0.368 C  
HETATM   12  O   UNL     1      -9.433   7.563  70.691  1.00  0.00    -0.164 OA 
HETATM   13  C   UNL     1     -11.876   8.037  72.440  1.00  0.00    -0.429 C  
HETATM   14  C   UNL     1     -12.340   6.727  71.810  1.00  0.00    -0.356 C  
HETATM   15  O   UNL     1     -11.727   6.436  70.563  1.00  0.00    -0.386 OA 
ENDBRANCH   4   8
ENDBRANCH   3   4
TORSDOF 3
ENDMDL
MODEL      125
REMARK 921   NORMALIZED FREE ENERGY PREDICTED BY IDOCK:   -3.19 KCAL/MOL
REMARK 922        TOTAL FREE ENERGY PREDICTED BY IDOCK:   -3.99 KCAL/MOL
REMARK 923 INTER-LIGAND FREE ENERGY PREDICTED BY IDOCK:   -3.75 KCAL/MOL
REMARK 924 INTRA-LIGAND FREE ENERGY PREDICTED BY IDOCK:   -0.24 KCAL/MOL
REMARK 927      BINDING AFFINITY PREDICTED BY RF-SCORE:    0.00 PKD
ROOT
HETATM    1 CL   UNL     1      -9.750   4.814  66.126  1.00  0.00    -0.181 Cl 
HETATM    2  C   UNL     1     -10.799   5.934  67.050  1.00  0.00    -0.295 C  
HETATM    3  C   UNL     1      -9.983   7.152  67.499  1.00  0.00    -0.167 C  
ENDROOT
BRANCH   3   4
HETATM    4  N   UNL     1     -10.643   8.241  68.293  1.00  0.00    -0.152 NA 
BRANCH   4   5
HETATM    5  C   UNL     1     -10.156   8.180  69.693  1.00  0.00    -0.199 C  
HETATM    6 CL   UNL     1     -10.395   8.270  72.405  1.00  0.00    -0.381 Cl 
HETATM    7  C   UNL     1     -11.170   8.494  70.805  1.00  0.00    -0.257 C  
ENDBRANCH   4   5
BRANCH   4   8
HETATM    8  P   UNL     1     -10.425   9.690  67.493  1.00  0.00    -0.247 P  
HETATM    9  N   UNL     1     -11.672  10.662  67.897  1.00  0.00    -0.724 NA 
HETATM   10  H   UNL     1     -11.789  10.682  68.910  1.00  0.00     0.000 HD 
HETATM   11  C   UNL     1     -11.590  12.024  67.372  1.00  0.00    -0.318 C  
HETATM   12  O   UNL     1     -10.226   9.545  66.014  1.00  0.00    -0.272 OA 
HETATM   13  C   UNL     1     -10.163  12.430  66.978  1.00  0.00    -0.232 C  
HETATM   14  C   UNL     1      -9.102  11.883  67.930  1.00  0.00    -0.183 C  
HETATM   15  O   UNL     1      -9.196  10.486  68.159  1.00  0.00    -0.142 OA 
ENDBRANCH   4   8
ENDBRANCH   3   4
TORSDOF 3
ENDMDL
MODEL      126
REMARK 921   NORMALIZED FREE ENERGY PREDICTED BY IDOCK:   -3.17 KCAL/MOL
REMARK 922        TOTAL FREE ENERGY PREDICTED BY IDOCK:   -3.96 KCAL/MOL
REMARK 923 INTER-LIGAND FREE ENERGY PREDICTED BY IDOCK:   -3.87 KCAL/MOL
REMARK 924 INTRA-LIGAND FREE ENERGY PREDICTED BY IDOCK:   -0.09 KCAL/MOL
REMARK 927      BINDING AFFINITY PREDICTED BY RF-SCORE:    0.00 PKD
ROOT
HETATM    1 CL   UNL     1     -12.365  12.595  63.281  1.00  0.00    -0.559 Cl 
HETATM    2  C   UNL     1     -11.239  12.226  64.624  1.00  0.00    -0.315 C  
HETATM    3  C   UNL     1     -11.863  12.663  65.954  1.00  0.00    -0.444 C  
ENDROOT
BRANCH   3   4
HETATM    4  N   UNL     1     -11.108  12.457  67.235  1.00  0.00    -0.266 NA 
BRANCH   4   5
HETATM    5  C   UNL     1     -10.823  11.011  67.400  1.00  0.00    -0.274 C  
HETATM    6 CL   UNL     1     -10.572   8.677  68.781  1.00  0.00    -0.206 Cl 
HETATM    7  C   UNL     1     -10.849  10.446  68.829  1.00  0.00    -0.232 C  
ENDBRANCH   4   5
BRANCH   4   8
HETATM    8  P   UNL     1      -9.790  13.482  67.248  1.00  0.00    -0.249 P  
HETATM    9  N   UNL     1      -9.621  14.038  68.774  1.00  0.00    -0.372 NA 
HETATM   10  H   UNL     1      -9.637  13.262  69.435  1.00  0.00     0.000 HD 
HETATM   11  C   UNL     1      -8.441  14.870  69.000  1.00  0.00    -0.178 C  
HETATM   12  O   UNL     1      -9.850  14.565  66.213  1.00  0.00    -0.276 OA 
HETATM   13  C   UNL     1      -7.349  14.664  67.941  1.00  0.00    -0.164 C  
HETATM   14  C   UNL     1      -7.218  13.210  67.493  1.00  0.00    -0.151 C  
HETATM   15  O   UNL     1      -8.443  12.617  67.093  1.00  0.00    -0.184 OA 
ENDBRANCH   4   8
ENDBRANCH   3   4
TORSDOF 3
ENDMDL
MODEL      127
REMARK 921   NORMALIZED FREE ENERGY PREDICTED BY IDOCK:   -3.16 KCAL/MOL
REMARK 922        TOTAL FREE ENERGY PREDICTED BY IDOCK:   -3.95 KCAL/MOL
REMARK 923 INTER-LIGAND FREE ENERGY PREDICTED BY IDOCK:   -3.72 KCAL/MOL
REMARK 924 INTRA-LIGAND FREE ENERGY PREDICTED BY IDOCK:   -0.23 KCAL/MOL
REMARK 927      BINDING AFFINITY PREDICTED BY RF-SCORE:    0.00 PKD
ROOT
HETATM    1 CL   UNL     1      -8.663   9.406  64.601  1.00  0.00    -0.214 Cl 
HETATM    2  C   UNL     1      -9.997   9.469  65.796  1.00  0.00    -0.245 C  
HETATM    3  C   UNL     1      -9.458   9.961  67.144  1.00  0.00    -0.158 C  
ENDROOT
BRANCH   3   4
HETATM    4  N   UNL     1     -10.389  10.102  68.313  1.00  0.00    -0.176 NA 
BRANCH   4   5
HETATM    5  C   UNL     1      -9.667   9.724  69.553  1.00  0.00    -0.212 C  
HETATM    6 CL   UNL     1      -8.008   8.206  71.090  1.00  0.00    -0.092 Cl 
HETATM    7  C   UNL     1      -8.868   8.412  69.531  1.00  0.00    -0.145 C  
ENDBRANCH   4   5
BRANCH   4   8
HETATM    8  P   UNL     1     -11.059  11.630  68.279  1.00  0.00    -0.287 P  
HETATM    9  N   UNL     1     -11.524  11.993  69.801  1.00  0.00    -0.476 NA 
HETATM   10  H   UNL     1     -10.762  11.813  70.454  1.00  0.00     0.000 HD 
HETATM   11  C   UNL     1     -12.037  13.349  69.984  1.00  0.00    -0.334 C  
HETATM   12  O   UNL     1     -12.146  11.796  67.259  1.00  0.00    -0.595 OA 
HETATM   13  C   UNL     1     -11.593  14.313  68.875  1.00  0.00    -0.340 C  
HETATM   14  C   UNL     1     -10.161  14.065  68.406  1.00  0.00    -0.239 C  
HETATM   15  O   UNL     1      -9.894  12.716  68.054  1.00  0.00    -0.205 OA 
ENDBRANCH   4   8
ENDBRANCH   3   4
TORSDOF 3
ENDMDL
MODEL      128
REMARK 921   NORMALIZED FREE ENERGY PREDICTED BY IDOCK:   -3.12 KCAL/MOL
REMARK 922        TOTAL FREE ENERGY PREDICTED BY IDOCK:   -3.90 KCAL/MOL
REMARK 923 INTER-LIGAND FREE ENERGY PREDICTED BY IDOCK:   -4.19 KCAL/MOL
REMARK 924 INTRA-LIGAND FREE ENERGY PREDICTED BY IDOCK:    0.29 KCAL/MOL
REMARK 927      BINDING AFFINITY PREDICTED BY RF-SCORE:    0.00 PKD
ROOT
HETATM    1 CL   UNL     1      -9.696   8.605  72.239  1.00  0.00    -0.377 Cl 
HETATM    2  C   UNL     1      -9.129   9.043  70.598  1.00  0.00    -0.235 C  
HETATM    3  C   UNL     1     -10.184   9.912  69.903  1.00  0.00    -0.257 C  
ENDROOT
BRANCH   3   4
HETATM    4  N   UNL     1      -9.940  10.411  68.509  1.00  0.00    -0.161 NA 
BRANCH   4   5
HETATM    5  C   UNL     1     -10.167   9.302  67.552  1.00  0.00    -0.242 C  
HETATM    6 CL   UNL     1     -10.845   6.770  66.809  1.00  0.00    -0.365 Cl 
HETATM    7  C   UNL     1     -10.525   7.927  68.139  1.00  0.00    -0.173 C  
ENDBRANCH   4   5
BRANCH   4   8
HETATM    8  P   UNL     1     -10.845  11.795  68.272  1.00  0.00    -0.255 P  
HETATM    9  N   UNL     1     -10.983  12.539  69.718  1.00  0.00    -0.405 NA 
HETATM   10  H   UNL     1     -10.067  12.629  70.157  1.00  0.00     0.000 HD 
HETATM   11  C   UNL     1     -11.656  13.836  69.684  1.00  0.00    -0.281 C  
HETATM   12  O   UNL     1     -12.156  11.555  67.587  1.00  0.00    -0.623 OA 
HETATM   13  C   UNL     1     -11.659  14.473  68.287  1.00  0.00    -0.358 C  
HETATM   14  C   UNL     1     -10.362  14.234  67.519  1.00  0.00    -0.248 C  
HETATM   15  O   UNL     1      -9.966  12.872  67.463  1.00  0.00    -0.209 OA 
ENDBRANCH   4   8
ENDBRANCH   3   4
TORSDOF 3
ENDMDL
MODEL      129
REMARK 921   NORMALIZED FREE ENERGY PREDICTED BY IDOCK:   -3.11 KCAL/MOL
REMARK 922        TOTAL FREE ENERGY PREDICTED BY IDOCK:   -3.90 KCAL/MOL
REMARK 923 INTER-LIGAND FREE ENERGY PREDICTED BY IDOCK:   -3.65 KCAL/MOL
REMARK 924 INTRA-LIGAND FREE ENERGY PREDICTED BY IDOCK:   -0.25 KCAL/MOL
REMARK 927      BINDING AFFINITY PREDICTED BY RF-SCORE:    0.00 PKD
ROOT
HETATM    1 CL   UNL     1     -12.860  10.259  72.050  1.00  0.00    -0.500 Cl 
HETATM    2  C   UNL     1     -13.134  10.383  70.284  1.00  0.00     0.046 C  
HETATM    3  C   UNL     1     -11.864  10.905  69.601  1.00  0.00    -0.344 C  
ENDROOT
BRANCH   3   4
HETATM    4  N   UNL     1     -11.842  11.095  68.113  1.00  0.00    -0.607 NA 
BRANCH   4   5
HETATM    5  C   UNL     1     -11.990  12.539  67.808  1.00  0.00    -0.223 C  
HETATM    6 CL   UNL     1     -11.764  15.210  68.294  1.00  0.00    -0.356 Cl 
HETATM    7  C   UNL     1     -11.594  13.536  68.909  1.00  0.00    -0.323 C  
ENDBRANCH   4   5
BRANCH   4   8
HETATM    8  P   UNL     1     -10.484  10.342  67.500  1.00  0.00    -0.277 P  
HETATM    9  N   UNL     1     -10.098  11.093  66.103  1.00  0.00    -0.230 NA 
HETATM   10  H   UNL     1     -10.070  12.103  66.242  1.00  0.00     0.000 HD 
HETATM   11  C   UNL     1      -8.860  10.635  65.476  1.00  0.00    -0.188 C  
HETATM   12  O   UNL     1     -10.619   8.854  67.369  1.00  0.00    -0.277 OA 
HETATM   13  C   UNL     1      -7.920   9.921  66.457  1.00  0.00    -0.110 C  
HETATM   14  C   UNL     1      -7.917  10.550  67.848  1.00  0.00    -0.106 C  
HETATM   15  O   UNL     1      -9.210  10.722  68.406  1.00  0.00    -0.150 OA 
ENDBRANCH   4   8
ENDBRANCH   3   4
TORSDOF 3
ENDMDL
MODEL      130
REMARK 921   NORMALIZED FREE ENERGY PREDICTED BY IDOCK:   -3.11 KCAL/MOL
REMARK 922        TOTAL FREE ENERGY PREDICTED BY IDOCK:   -3.90 KCAL/MOL
REMARK 923 INTER-LIGAND FREE ENERGY PREDICTED BY IDOCK:   -3.75 KCAL/MOL
REMARK 924 INTRA-LIGAND FREE ENERGY PREDICTED BY IDOCK:   -0.14 KCAL/MOL
REMARK 927      BINDING AFFINITY PREDICTED BY RF-SCORE:    0.00 PKD
ROOT
HETATM    1 CL   UNL     1      -6.491  12.193  67.968  1.00  0.00    -0.062 Cl 
HETATM    2  C   UNL     1      -8.252  12.182  68.297  1.00  0.00    -0.168 C  
HETATM    3  C   UNL     1      -8.782  13.620  68.317  1.00  0.00    -0.171 C  
ENDROOT
BRANCH   3   4
HETATM    4  N   UNL     1     -10.238  13.875  68.574  1.00  0.00    -0.239 NA 
BRANCH   4   5
HETATM    5  C   UNL     1     -10.369  14.886  69.652  1.00  0.00    -0.128 C  
HETATM    6 CL   UNL     1     -11.624  16.187  71.690  1.00  0.00    -0.529 Cl 
HETATM    7  C   UNL     1     -11.723  14.975  70.374  1.00  0.00    -0.291 C  
ENDBRANCH   4   5
BRANCH   4   8
HETATM    8  P   UNL     1     -10.979  14.237  67.122  1.00  0.00    -0.320 P  
HETATM    9  N   UNL     1     -10.376  15.664  66.609  1.00  0.00    -0.282 NA 
HETATM   10  H   UNL     1      -9.356  15.647  66.642  1.00  0.00     0.000 HD 
HETATM   11  C   UNL     1     -10.831  16.089  65.288  1.00  0.00    -0.362 C  
HETATM   12  O   UNL     1     -12.477  14.198  67.176  1.00  0.00    -0.284 OA 
HETATM   13  C   UNL     1     -11.372  14.930  64.438  1.00  0.00    -0.211 C  
HETATM   14  C   UNL     1     -10.586  13.635  64.625  1.00  0.00    -0.430 C  
HETATM   15  O   UNL     1     -10.423  13.249  65.981  1.00  0.00    -0.276 OA 
ENDBRANCH   4   8
ENDBRANCH   3   4
TORSDOF 3
ENDMDL
MODEL      131
REMARK 921   NORMALIZED FREE ENERGY PREDICTED BY IDOCK:   -3.09 KCAL/MOL
REMARK 922        TOTAL FREE ENERGY PREDICTED BY IDOCK:   -3.87 KCAL/MOL
REMARK 923 INTER-LIGAND FREE ENERGY PREDICTED BY IDOCK:   -3.68 KCAL/MOL
REMARK 924 INTRA-LIGAND FREE ENERGY PREDICTED BY IDOCK:   -0.20 KCAL/MOL
REMARK 927      BINDING AFFINITY PREDICTED BY RF-SCORE:    0.00 PKD
ROOT
HETATM    1 CL   UNL     1      -6.979  19.386  69.000  1.00  0.00    -0.378 Cl 
HETATM    2  C   UNL     1      -7.471  17.967  68.025  1.00  0.00    -0.238 C  
HETATM    3  C   UNL     1      -8.080  16.899  68.940  1.00  0.00    -0.219 C  
ENDROOT
BRANCH   3   4
HETATM    4  N   UNL     1      -8.574  15.608  68.355  1.00  0.00    -0.168 NA 
BRANCH   4   5
HETATM    5  C   UNL     1      -7.630  14.522  68.716  1.00  0.00    -0.131 C  
HETATM    6 CL   UNL     1      -5.477  13.427  69.976  1.00  0.00    -0.097 Cl 
HETATM    7  C   UNL     1      -6.423  14.899  69.589  1.00  0.00    -0.154 C  
ENDBRANCH   4   5
BRANCH   4   8
HETATM    8  P   UNL     1     -10.166  15.391  68.811  1.00  0.00    -0.236 P  
HETATM    9  N   UNL     1     -10.373  13.801  69.117  1.00  0.00    -0.430 NA 
HETATM   10  H   UNL     1      -9.640  13.465  69.742  1.00  0.00     0.000 HD 
HETATM   11  C   UNL     1     -11.688  13.438  69.640  1.00  0.00    -0.310 C  
HETATM   12  O   UNL     1     -11.159  15.954  67.840  1.00  0.00    -0.331 OA 
HETATM   13  C   UNL     1     -12.435  14.627  70.262  1.00  0.00    -0.401 C  
HETATM   14  C   UNL     1     -11.515  15.578  71.023  1.00  0.00    -0.383 C  
HETATM   15  O   UNL     1     -10.387  16.010  70.279  1.00  0.00    -0.200 OA 
ENDBRANCH   4   8
ENDBRANCH   3   4
TORSDOF 3
ENDMDL
MODEL      132
REMARK 921   NORMALIZED FREE ENERGY PREDICTED BY IDOCK:   -3.07 KCAL/MOL
REMARK 922        TOTAL FREE ENERGY PREDICTED BY IDOCK:   -3.85 KCAL/MOL
REMARK 923 INTER-LIGAND FREE ENERGY PREDICTED BY IDOCK:   -3.59 KCAL/MOL
REMARK 924 INTRA-LIGAND FREE ENERGY PREDICTED BY IDOCK:   -0.26 KCAL/MOL
REMARK 927      BINDING AFFINITY PREDICTED BY RF-SCORE:    0.00 PKD
ROOT
HETATM    1 CL   UNL     1     -10.822  10.884  69.730  1.00  0.00    -0.279 Cl 
HETATM    2  C   UNL     1     -11.413  10.859  68.039  1.00  0.00    -0.281 C  
HETATM    3  C   UNL     1     -10.281  11.268  67.091  1.00  0.00    -0.201 C  
ENDROOT
BRANCH   3   4
HETATM    4  N   UNL     1     -10.528  11.322  65.611  1.00  0.00    -0.259 NA 
BRANCH   4   5
HETATM    5  C   UNL     1     -10.555  12.740  65.178  1.00  0.00    -0.302 C  
HETATM    6 CL   UNL     1     -10.077  15.412  65.411  1.00  0.00    -0.397 Cl 
HETATM    7  C   UNL     1     -10.041  13.791  66.174  1.00  0.00    -0.307 C  
ENDBRANCH   4   5
BRANCH   4   8
HETATM    8  P   UNL     1      -9.420  10.332  64.849  1.00  0.00    -0.328 P  
HETATM    9  N   UNL     1      -7.932  10.874  65.242  1.00  0.00    -0.359 NA 
HETATM   10  H   UNL     1      -7.857  10.997  66.252  1.00  0.00     0.000 HD 
HETATM   11  C   UNL     1      -6.826  10.056  64.750  1.00  0.00    -0.133 C  
HETATM   12  O   UNL     1      -9.643  10.192  63.373  1.00  0.00    -0.296 OA 
HETATM   13  C   UNL     1      -7.250   8.621  64.403  1.00  0.00    -0.097 C  
HETATM   14  C   UNL     1      -8.286   8.054  65.370  1.00  0.00    -0.151 C  
HETATM   15  O   UNL     1      -9.414   8.892  65.566  1.00  0.00    -0.202 OA 
ENDBRANCH   4   8
ENDBRANCH   3   4
TORSDOF 3
ENDMDL
MODEL      133
REMARK 921   NORMALIZED FREE ENERGY PREDICTED BY IDOCK:   -3.06 KCAL/MOL
REMARK 922        TOTAL FREE ENERGY PREDICTED BY IDOCK:   -3.83 KCAL/MOL
REMARK 923 INTER-LIGAND FREE ENERGY PREDICTED BY IDOCK:   -3.63 KCAL/MOL
REMARK 924 INTRA-LIGAND FREE ENERGY PREDICTED BY IDOCK:   -0.20 KCAL/MOL
REMARK 927      BINDING AFFINITY PREDICTED BY RF-SCORE:    0.00 PKD
ROOT
HETATM    1 CL   UNL     1     -13.085  13.763  64.889  1.00  0.00    -0.099 Cl 
HETATM    2  C   UNL     1     -11.701  13.715  66.025  1.00  0.00    -0.358 C  
HETATM    3  C   UNL     1     -12.012  12.752  67.176  1.00  0.00    -0.284 C  
ENDROOT
BRANCH   3   4
HETATM    4  N   UNL     1     -11.000  12.537  68.264  1.00  0.00    -0.227 NA 
BRANCH   4   5
HETATM    5  C   UNL     1     -11.677  12.635  69.579  1.00  0.00    -0.308 C  
HETATM    6 CL   UNL     1     -13.146  13.849  71.526  1.00  0.00    -0.426 Cl 
HETATM    7  C   UNL     1     -12.309  13.986  69.948  1.00  0.00    -0.310 C  
ENDBRANCH   4   5
BRANCH   4   8
HETATM    8  P   UNL     1     -10.179  11.116  67.954  1.00  0.00    -0.195 P  
HETATM    9  N   UNL     1     -11.295   9.972  67.621  1.00  0.00    -0.519 NA 
HETATM   10  H   UNL     1     -11.952  10.314  66.920  1.00  0.00     0.000 HD 
HETATM   11  C   UNL     1     -10.751   8.678  67.213  1.00  0.00    -0.139 C  
HETATM   12  O   UNL     1      -9.213  10.723  69.030  1.00  0.00    -0.180 OA 
HETATM   13  C   UNL     1      -9.306   8.770  66.700  1.00  0.00    -0.242 C  
HETATM   14  C   UNL     1      -9.041  10.032  65.885  1.00  0.00    -0.159 C  
HETATM   15  O   UNL     1      -9.435  11.232  66.532  1.00  0.00    -0.184 OA 
ENDBRANCH   4   8
ENDBRANCH   3   4
TORSDOF 3
ENDMDL
MODEL      134
REMARK 921   NORMALIZED FREE ENERGY PREDICTED BY IDOCK:   -3.05 KCAL/MOL
REMARK 922        TOTAL FREE ENERGY PREDICTED BY IDOCK:   -3.82 KCAL/MOL
REMARK 923 INTER-LIGAND FREE ENERGY PREDICTED BY IDOCK:   -3.58 KCAL/MOL
REMARK 924 INTRA-LIGAND FREE ENERGY PREDICTED BY IDOCK:   -0.24 KCAL/MOL
REMARK 927      BINDING AFFINITY PREDICTED BY RF-SCORE:    0.00 PKD
ROOT
HETATM    1 CL   UNL     1      -7.935   7.909  74.555  1.00  0.00    -0.261 Cl 
HETATM    2  C   UNL     1      -9.490   7.261  73.945  1.00  0.00    -0.271 C  
HETATM    3  C   UNL     1      -9.849   7.946  72.622  1.00  0.00    -0.252 C  
ENDROOT
BRANCH   3   4
HETATM    4  N   UNL     1     -11.115   7.571  71.907  1.00  0.00    -0.234 NA 
BRANCH   4   5
HETATM    5  C   UNL     1     -11.790   8.806  71.439  1.00  0.00    -0.308 C  
HETATM    6 CL   UNL     1     -12.052  11.078  69.959  1.00  0.00    -0.408 Cl 
HETATM    7  C   UNL     1     -11.018   9.703  70.459  1.00  0.00    -0.313 C  
ENDBRANCH   4   5
BRANCH   4   8
HETATM    8  P   UNL     1     -10.749   6.435  70.738  1.00  0.00    -0.283 P  
HETATM    9  N   UNL     1      -9.217   6.715  70.249  1.00  0.00    -0.155 NA 
HETATM   10  H   UNL     1      -8.599   6.796  71.056  1.00  0.00     0.000 HD 
HETATM   11  C   UNL     1      -8.683   5.741  69.300  1.00  0.00    -0.113 C  
HETATM   12  O   UNL     1     -11.741   6.375  69.616  1.00  0.00    -0.389 OA 
HETATM   13  C   UNL     1      -9.441   4.406  69.321  1.00  0.00    -0.249 C  
HETATM   14  C   UNL     1      -9.876   3.988  70.723  1.00  0.00    -0.163 C  
HETATM   15  O   UNL     1     -10.583   4.993  71.432  1.00  0.00    -0.183 OA 
ENDBRANCH   4   8
ENDBRANCH   3   4
TORSDOF 3
ENDMDL
MODEL      135
REMARK 921   NORMALIZED FREE ENERGY PREDICTED BY IDOCK:   -3.05 KCAL/MOL
REMARK 922        TOTAL FREE ENERGY PREDICTED BY IDOCK:   -3.82 KCAL/MOL
REMARK 923 INTER-LIGAND FREE ENERGY PREDICTED BY IDOCK:   -3.62 KCAL/MOL
REMARK 924 INTRA-LIGAND FREE ENERGY PREDICTED BY IDOCK:   -0.20 KCAL/MOL
REMARK 927      BINDING AFFINITY PREDICTED BY RF-SCORE:    0.00 PKD
ROOT
HETATM    1 CL   UNL     1     -13.385  10.127  71.971  1.00  0.00    -0.533 Cl 
HETATM    2  C   UNL     1     -11.673  10.120  71.445  1.00  0.00    -0.290 C  
HETATM    3  C   UNL     1     -11.600   9.895  69.930  1.00  0.00    -0.127 C  
ENDROOT
BRANCH   3   4
HETATM    4  N   UNL     1     -10.265   9.850  69.246  1.00  0.00    -0.195 NA 
BRANCH   4   5
HETATM    5  C   UNL     1     -10.041   8.484  68.714  1.00  0.00    -0.196 C  
HETATM    6 CL   UNL     1     -10.417   5.790  68.567  1.00  0.00    -0.275 Cl 
HETATM    7  C   UNL     1     -10.754   7.325  69.428  1.00  0.00    -0.225 C  
ENDBRANCH   4   5
BRANCH   4   8
HETATM    8  P   UNL     1     -10.191  11.100  68.141  1.00  0.00    -0.198 P  
HETATM    9  N   UNL     1     -10.526  10.471  66.672  1.00  0.00    -0.242 NA 
HETATM   10  H   UNL     1     -11.378   9.913  66.714  1.00  0.00     0.000 HD 
HETATM   11  C   UNL     1     -10.616  11.447  65.588  1.00  0.00    -0.258 C  
HETATM   12  O   UNL     1      -8.911  11.879  68.187  1.00  0.00    -0.174 OA 
HETATM   13  C   UNL     1     -10.874  12.876  66.087  1.00  0.00    -0.300 C  
HETATM   14  C   UNL     1     -11.823  12.930  67.281  1.00  0.00    -0.356 C  
HETATM   15  O   UNL     1     -11.458  12.069  68.349  1.00  0.00    -0.253 OA 
ENDBRANCH   4   8
ENDBRANCH   3   4
TORSDOF 3
ENDMDL
MODEL      136
REMARK 921   NORMALIZED FREE ENERGY PREDICTED BY IDOCK:   -3.05 KCAL/MOL
REMARK 922        TOTAL FREE ENERGY PREDICTED BY IDOCK:   -3.82 KCAL/MOL
REMARK 923 INTER-LIGAND FREE ENERGY PREDICTED BY IDOCK:   -3.58 KCAL/MOL
REMARK 924 INTRA-LIGAND FREE ENERGY PREDICTED BY IDOCK:   -0.23 KCAL/MOL
REMARK 927      BINDING AFFINITY PREDICTED BY RF-SCORE:    0.00 PKD
ROOT
HETATM    1 CL   UNL     1     -11.022  19.650  67.041  1.00  0.00    -0.514 Cl 
HETATM    2  C   UNL     1      -9.831  18.497  66.363  1.00  0.00    -0.361 C  
HETATM    3  C   UNL     1      -9.158  17.721  67.501  1.00  0.00    -0.244 C  
ENDROOT
BRANCH   3   4
HETATM    4  N   UNL     1      -8.116  16.688  67.187  1.00  0.00    -0.171 NA 
BRANCH   4   5
HETATM    5  C   UNL     1      -6.880  17.003  67.943  1.00  0.00    -0.152 C  
HETATM    6 CL   UNL     1      -5.400  18.236  69.869  1.00  0.00    -0.208 Cl 
HETATM    7  C   UNL     1      -6.975  18.088  69.028  1.00  0.00    -0.248 C  
ENDBRANCH   4   5
BRANCH   4   8
HETATM    8  P   UNL     1      -8.775  15.174  67.437  1.00  0.00    -0.217 P  
HETATM    9  N   UNL     1      -9.531  14.738  66.058  1.00  0.00    -0.431 NA 
HETATM   10  H   UNL     1      -8.911  14.870  65.260  1.00  0.00     0.000 HD 
HETATM   11  C   UNL     1     -10.077  13.383  66.054  1.00  0.00    -0.304 C  
HETATM   12  O   UNL     1      -9.642  15.081  68.657  1.00  0.00    -0.204 OA 
HETATM   13  C   UNL     1      -9.430  12.472  67.107  1.00  0.00    -0.208 C  
HETATM   14  C   UNL     1      -7.933  12.722  67.273  1.00  0.00    -0.156 C  
HETATM   15  O   UNL     1      -7.594  14.083  67.490  1.00  0.00    -0.166 OA 
ENDBRANCH   4   8
ENDBRANCH   3   4
TORSDOF 3
ENDMDL
MODEL      137
REMARK 921   NORMALIZED FREE ENERGY PREDICTED BY IDOCK:   -3.04 KCAL/MOL
REMARK 922        TOTAL FREE ENERGY PREDICTED BY IDOCK:   -3.81 KCAL/MOL
REMARK 923 INTER-LIGAND FREE ENERGY PREDICTED BY IDOCK:   -3.54 KCAL/MOL
REMARK 924 INTRA-LIGAND FREE ENERGY PREDICTED BY IDOCK:   -0.27 KCAL/MOL
REMARK 927      BINDING AFFINITY PREDICTED BY RF-SCORE:    0.00 PKD
ROOT
HETATM    1 CL   UNL     1      -9.956  12.755  68.351  1.00  0.00    -0.227 Cl 
HETATM    2  C   UNL     1     -10.678  11.237  68.969  1.00  0.00    -0.217 C  
HETATM    3  C   UNL     1      -9.570  10.314  69.491  1.00  0.00    -0.202 C  
ENDROOT
BRANCH   3   4
HETATM    4  N   UNL     1      -9.924   8.973  70.065  1.00  0.00    -0.180 NA 
BRANCH   4   5
HETATM    5  C   UNL     1     -11.307   9.026  70.599  1.00  0.00    -0.265 C  
HETATM    6 CL   UNL     1     -13.228   8.864  72.523  1.00  0.00    -0.470 Cl 
HETATM    7  C   UNL     1     -11.509   8.637  72.072  1.00  0.00    -0.367 C  
ENDBRANCH   4   5
BRANCH   4   8
HETATM    8  P   UNL     1      -9.616   7.803  68.914  1.00  0.00    -0.158 P  
HETATM    9  N   UNL     1     -11.046   7.388  68.245  1.00  0.00    -0.449 NA 
HETATM   10  H   UNL     1     -11.557   8.224  67.961  1.00  0.00     0.000 HD 
HETATM   11  C   UNL     1     -10.958   6.448  67.131  1.00  0.00    -0.399 C  
HETATM   12  O   UNL     1      -8.828   6.636  69.428  1.00  0.00    -0.134 OA 
HETATM   13  C   UNL     1      -9.565   6.411  66.486  1.00  0.00    -0.185 C  
HETATM   14  C   UNL     1      -8.903   7.785  66.416  1.00  0.00    -0.155 C  
HETATM   15  O   UNL     1      -8.880   8.479  67.654  1.00  0.00    -0.135 OA 
ENDBRANCH   4   8
ENDBRANCH   3   4
TORSDOF 3
ENDMDL
MODEL      138
REMARK 921   NORMALIZED FREE ENERGY PREDICTED BY IDOCK:   -3.03 KCAL/MOL
REMARK 922        TOTAL FREE ENERGY PREDICTED BY IDOCK:   -3.80 KCAL/MOL
REMARK 923 INTER-LIGAND FREE ENERGY PREDICTED BY IDOCK:   -3.57 KCAL/MOL
REMARK 924 INTRA-LIGAND FREE ENERGY PREDICTED BY IDOCK:   -0.22 KCAL/MOL
REMARK 927      BINDING AFFINITY PREDICTED BY RF-SCORE:    0.00 PKD
ROOT
HETATM    1 CL   UNL     1      -5.593  20.880  69.537  1.00  0.00    -0.414 Cl 
HETATM    2  C   UNL     1      -5.413  19.321  68.673  1.00  0.00    -0.195 C  
HETATM    3  C   UNL     1      -6.758  18.584  68.655  1.00  0.00    -0.259 C  
ENDROOT
BRANCH   3   4
HETATM    4  N   UNL     1      -6.866  17.246  67.983  1.00  0.00    -0.171 NA 
BRANCH   4   5
HETATM    5  C   UNL     1      -7.036  16.199  69.019  1.00  0.00    -0.178 C  
HETATM    6 CL   UNL     1      -6.200  14.423  70.908  1.00  0.00    -0.150 Cl 
HETATM    7  C   UNL     1      -5.760  15.589  69.621  1.00  0.00    -0.119 C  
ENDBRANCH   4   5
BRANCH   4   8
HETATM    8  P   UNL     1      -8.052  17.333  66.811  1.00  0.00    -0.294 P  
HETATM    9  N   UNL     1      -8.753  15.862  66.718  1.00  0.00    -0.242 NA 
HETATM   10  H   UNL     1      -9.015  15.537  67.648  1.00  0.00     0.000 HD 
HETATM   11  C   UNL     1      -9.899  15.780  65.814  1.00  0.00    -0.348 C  
HETATM   12  O   UNL     1      -7.569  17.858  65.493  1.00  0.00    -0.518 OA 
HETATM   13  C   UNL     1     -10.527  17.148  65.515  1.00  0.00    -0.158 C  
HETATM   14  C   UNL     1     -10.541  18.076  66.727  1.00  0.00    -0.270 C  
HETATM   15  O   UNL     1      -9.279  18.216  67.362  1.00  0.00    -0.254 OA 
ENDBRANCH   4   8
ENDBRANCH   3   4
TORSDOF 3
ENDMDL
MODEL      139
REMARK 921   NORMALIZED FREE ENERGY PREDICTED BY IDOCK:   -3.00 KCAL/MOL
REMARK 922        TOTAL FREE ENERGY PREDICTED BY IDOCK:   -3.76 KCAL/MOL
REMARK 923 INTER-LIGAND FREE ENERGY PREDICTED BY IDOCK:   -3.52 KCAL/MOL
REMARK 924 INTRA-LIGAND FREE ENERGY PREDICTED BY IDOCK:   -0.25 KCAL/MOL
REMARK 927      BINDING AFFINITY PREDICTED BY RF-SCORE:    0.00 PKD
ROOT
HETATM    1 CL   UNL     1     -10.893  19.563  67.050  1.00  0.00    -0.585 Cl 
HETATM    2  C   UNL     1      -9.309  18.895  66.547  1.00  0.00    -0.335 C  
HETATM    3  C   UNL     1      -8.531  18.427  67.782  1.00  0.00    -0.259 C  
ENDROOT
BRANCH   3   4
HETATM    4  N   UNL     1      -7.166  17.824  67.621  1.00  0.00    -0.189 NA 
BRANCH   4   5
HETATM    5  C   UNL     1      -6.157  18.755  68.181  1.00  0.00    -0.212 C  
HETATM    6 CL   UNL     1      -5.267  20.781  69.771  1.00  0.00    -0.369 Cl 
HETATM    7  C   UNL     1      -6.659  19.838  69.150  1.00  0.00    -0.342 C  
ENDBRANCH   4   5
BRANCH   4   8
HETATM    8  P   UNL     1      -7.188  16.280  68.256  1.00  0.00    -0.154 P  
HETATM    9  N   UNL     1      -6.174  15.369  67.358  1.00  0.00    -0.318 NA 
HETATM   10  H   UNL     1      -5.275  15.839  67.257  1.00  0.00     0.000 HD 
HETATM   11  C   UNL     1      -5.980  14.003  67.839  1.00  0.00    -0.138 C  
HETATM   12  O   UNL     1      -8.562  15.697  68.395  1.00  0.00    -0.164 OA 
HETATM   13  C   UNL     1      -6.346  13.831  69.320  1.00  0.00    -0.110 C  
HETATM   14  C   UNL     1      -5.956  15.035  70.175  1.00  0.00    -0.147 C  
HETATM   15  O   UNL     1      -6.421  16.277  69.670  1.00  0.00    -0.196 OA 
ENDBRANCH   4   8
ENDBRANCH   3   4
TORSDOF 3
ENDMDL
MODEL      140
REMARK 921   NORMALIZED FREE ENERGY PREDICTED BY IDOCK:   -2.99 KCAL/MOL
REMARK 922        TOTAL FREE ENERGY PREDICTED BY IDOCK:   -3.75 KCAL/MOL
REMARK 923 INTER-LIGAND FREE ENERGY PREDICTED BY IDOCK:   -3.73 KCAL/MOL
REMARK 924 INTRA-LIGAND FREE ENERGY PREDICTED BY IDOCK:   -0.02 KCAL/MOL
REMARK 927      BINDING AFFINITY PREDICTED BY RF-SCORE:    0.00 PKD
ROOT
HETATM    1 CL   UNL     1      -5.569  14.775  69.779  1.00  0.00    -0.096 Cl 
HETATM    2  C   UNL     1      -7.292  15.118  69.431  1.00  0.00    -0.203 C  
HETATM    3  C   UNL     1      -7.407  15.886  68.109  1.00  0.00    -0.127 C  
ENDROOT
BRANCH   3   4
HETATM    4  N   UNL     1      -8.759  16.292  67.596  1.00  0.00    -0.181 NA 
BRANCH   4   5
HETATM    5  C   UNL     1      -9.803  15.579  68.372  1.00  0.00    -0.210 C  
HETATM    6 CL   UNL     1     -12.267  14.501  68.801  1.00  0.00    -0.239 Cl 
HETATM    7  C   UNL     1     -11.201  15.476  67.742  1.00  0.00    -0.302 C  
ENDBRANCH   4   5
BRANCH   4   8
HETATM    8  P   UNL     1      -8.847  17.959  67.588  1.00  0.00    -0.257 P  
HETATM    9  N   UNL     1      -8.948  18.433  66.029  1.00  0.00    -0.494 NA 
HETATM   10  H   UNL     1      -9.677  17.908  65.548  1.00  0.00     0.000 HD 
HETATM   11  C   UNL     1      -9.146  19.867  65.831  1.00  0.00    -0.142 C  
HETATM   12  O   UNL     1      -7.748  18.631  68.354  1.00  0.00    -0.286 OA 
HETATM   13  C   UNL     1      -9.708  20.573  67.073  1.00  0.00    -0.548 C  
HETATM   14  C   UNL     1     -10.734  19.729  67.826  1.00  0.00    -0.281 C  
HETATM   15  O   UNL     1     -10.288  18.417  68.135  1.00  0.00    -0.365 OA 
ENDBRANCH   4   8
ENDBRANCH   3   4
TORSDOF 3
ENDMDL
MODEL      141
REMARK 921   NORMALIZED FREE ENERGY PREDICTED BY IDOCK:   -2.98 KCAL/MOL
REMARK 922        TOTAL FREE ENERGY PREDICTED BY IDOCK:   -3.74 KCAL/MOL
REMARK 923 INTER-LIGAND FREE ENERGY PREDICTED BY IDOCK:   -3.56 KCAL/MOL
REMARK 924 INTRA-LIGAND FREE ENERGY PREDICTED BY IDOCK:   -0.18 KCAL/MOL
REMARK 927      BINDING AFFINITY PREDICTED BY RF-SCORE:    0.00 PKD
ROOT
HETATM    1 CL   UNL     1     -10.416   7.546  66.980  1.00  0.00    -0.392 Cl 
HETATM    2  C   UNL     1     -10.526   8.320  68.592  1.00  0.00    -0.168 C  
HETATM    3  C   UNL     1     -10.470   7.246  69.684  1.00  0.00    -0.231 C  
ENDROOT
BRANCH   3   4
HETATM    4  N   UNL     1     -10.543   7.646  71.129  1.00  0.00    -0.220 NA 
BRANCH   4   5
HETATM    5  C   UNL     1     -11.820   8.360  71.368  1.00  0.00    -0.296 C  
HETATM    6 CL   UNL     1     -13.404  10.541  71.760  1.00  0.00    -0.477 Cl 
HETATM    7  C   UNL     1     -11.748   9.880  71.586  1.00  0.00    -0.252 C  
ENDBRANCH   4   5
BRANCH   4   8
HETATM    8  P   UNL     1     -10.257   6.297  72.071  1.00  0.00    -0.194 P  
HETATM    9  N   UNL     1     -11.705   5.749  72.589  1.00  0.00    -0.476 NA 
HETATM   10  H   UNL     1     -12.350   5.664  71.804  1.00  0.00     0.000 HD 
HETATM   11  C   UNL     1     -11.659   4.498  73.342  1.00  0.00    -0.147 C  
HETATM   12  O   UNL     1      -9.266   6.521  73.173  1.00  0.00    -0.129 OA 
HETATM   13  C   UNL     1     -10.378   3.691  73.088  1.00  0.00    -0.243 C  
HETATM   14  C   UNL     1      -9.908   3.759  71.637  1.00  0.00    -0.170 C  
HETATM   15  O   UNL     1      -9.796   5.079  71.127  1.00  0.00    -0.168 OA 
ENDBRANCH   4   8
ENDBRANCH   3   4
TORSDOF 3
ENDMDL
MODEL      142
REMARK 921   NORMALIZED FREE ENERGY PREDICTED BY IDOCK:   -2.97 KCAL/MOL
REMARK 922        TOTAL FREE ENERGY PREDICTED BY IDOCK:   -3.72 KCAL/MOL
REMARK 923 INTER-LIGAND FREE ENERGY PREDICTED BY IDOCK:   -3.46 KCAL/MOL
REMARK 924 INTRA-LIGAND FREE ENERGY PREDICTED BY IDOCK:   -0.27 KCAL/MOL
REMARK 927      BINDING AFFINITY PREDICTED BY RF-SCORE:    0.00 PKD
ROOT
HETATM    1 CL   UNL     1      -9.672   4.029  67.398  1.00  0.00    -0.222 Cl 
HETATM    2  C   UNL     1      -9.977   5.794  67.392  1.00  0.00    -0.150 C  
HETATM    3  C   UNL     1      -9.222   6.451  68.553  1.00  0.00    -0.124 C  
ENDROOT
BRANCH   3   4
HETATM    4  N   UNL     1      -9.317   7.935  68.760  1.00  0.00    -0.147 NA 
BRANCH   4   5
HETATM    5  C   UNL     1     -10.006   8.542  67.596  1.00  0.00    -0.198 C  
HETATM    6 CL   UNL     1     -10.278  10.250  65.492  1.00  0.00    -0.340 Cl 
HETATM    7  C   UNL     1      -9.324   9.742  66.921  1.00  0.00    -0.149 C  
ENDBRANCH   4   5
BRANCH   4   8
HETATM    8  P   UNL     1      -9.996   8.220  70.259  1.00  0.00    -0.191 P  
HETATM    9  N   UNL     1     -11.509   8.781  70.009  1.00  0.00    -0.455 NA 
HETATM   10  H   UNL     1     -12.007   8.172  69.360  1.00  0.00     0.000 HD 
HETATM   11  C   UNL     1     -12.301   8.982  71.220  1.00  0.00    -0.302 C  
HETATM   12  O   UNL     1      -9.165   9.096  71.147  1.00  0.00    -0.250 OA 
HETATM   13  C   UNL     1     -11.773   8.186  72.422  1.00  0.00    -0.461 C  
HETATM   14  C   UNL     1     -11.250   6.803  72.039  1.00  0.00    -0.262 C  
HETATM   15  O   UNL     1     -10.311   6.815  70.976  1.00  0.00    -0.204 OA 
ENDBRANCH   4   8
ENDBRANCH   3   4
TORSDOF 3
ENDMDL
MODEL      143
REMARK 921   NORMALIZED FREE ENERGY PREDICTED BY IDOCK:   -2.96 KCAL/MOL
REMARK 922        TOTAL FREE ENERGY PREDICTED BY IDOCK:   -3.72 KCAL/MOL
REMARK 923 INTER-LIGAND FREE ENERGY PREDICTED BY IDOCK:   -3.50 KCAL/MOL
REMARK 924 INTRA-LIGAND FREE ENERGY PREDICTED BY IDOCK:   -0.21 KCAL/MOL
REMARK 927      BINDING AFFINITY PREDICTED BY RF-SCORE:    0.00 PKD
ROOT
HETATM    1 CL   UNL     1     -13.483  11.627  71.959  1.00  0.00    -0.447 Cl 
HETATM    2  C   UNL     1     -12.076  10.977  71.062  1.00  0.00    -0.301 C  
HETATM    3  C   UNL     1     -12.171   9.449  70.990  1.00  0.00    -0.279 C  
ENDROOT
BRANCH   3   4
HETATM    4  N   UNL     1     -11.103   8.666  70.284  1.00  0.00    -0.241 NA 
BRANCH   4   5
HETATM    5  C   UNL     1     -10.032   9.595  69.849  1.00  0.00    -0.241 C  
HETATM    6 CL   UNL     1      -8.082  10.527  68.191  1.00  0.00    -0.110 Cl 
HETATM    7  C   UNL     1      -9.253   9.227  68.576  1.00  0.00    -0.135 C  
ENDBRANCH   4   5
BRANCH   4   8
HETATM    8  P   UNL     1     -10.636   7.398  71.264  1.00  0.00    -0.216 P  
HETATM    9  N   UNL     1     -10.357   8.009  72.752  1.00  0.00    -0.323 NA 
HETATM   10  H   UNL     1     -11.144   8.586  73.048  1.00  0.00     0.000 HD 
HETATM   11  C   UNL     1     -10.042   7.018  73.778  1.00  0.00    -0.352 C  
HETATM   12  O   UNL     1      -9.495   6.593  70.717  1.00  0.00    -0.168 OA 
HETATM   13  C   UNL     1     -10.509   5.603  73.408  1.00  0.00    -0.267 C  
HETATM   14  C   UNL     1     -11.850   5.587  72.678  1.00  0.00    -0.109 C  
HETATM   15  O   UNL     1     -11.908   6.458  71.559  1.00  0.00    -0.315 OA 
ENDBRANCH   4   8
ENDBRANCH   3   4
TORSDOF 3
ENDMDL
MODEL      144
REMARK 921   NORMALIZED FREE ENERGY PREDICTED BY IDOCK:   -2.94 KCAL/MOL
REMARK 922        TOTAL FREE ENERGY PREDICTED BY IDOCK:   -3.70 KCAL/MOL
REMARK 923 INTER-LIGAND FREE ENERGY PREDICTED BY IDOCK:   -3.47 KCAL/MOL
REMARK 924 INTRA-LIGAND FREE ENERGY PREDICTED BY IDOCK:   -0.23 KCAL/MOL
REMARK 927      BINDING AFFINITY PREDICTED BY RF-SCORE:    0.00 PKD
ROOT
HETATM    1 CL   UNL     1      -9.845   8.828  71.981  1.00  0.00    -0.389 Cl 
HETATM    2  C   UNL     1      -9.113   8.993  70.355  1.00  0.00    -0.210 C  
HETATM    3  C   UNL     1      -9.723  10.202  69.635  1.00  0.00    -0.221 C  
ENDROOT
BRANCH   3   4
HETATM    4  N   UNL     1      -9.269  10.552  68.248  1.00  0.00    -0.147 NA 
BRANCH   4   5
HETATM    5  C   UNL     1      -9.542   9.407  67.347  1.00  0.00    -0.145 C  
HETATM    6 CL   UNL     1      -8.885   7.307  65.740  1.00  0.00    -0.135 Cl 
HETATM    7  C   UNL     1      -8.330   8.710  66.707  1.00  0.00    -0.108 C  
ENDBRANCH   4   5
BRANCH   4   8
HETATM    8  P   UNL     1      -9.950  12.015  67.819  1.00  0.00    -0.205 P  
HETATM    9  N   UNL     1     -11.030  11.720  66.631  1.00  0.00    -0.281 NA 
HETATM   10  H   UNL     1     -11.651  10.957  66.901  1.00  0.00     0.000 HD 
HETATM   11  C   UNL     1     -11.810  12.878  66.202  1.00  0.00    -0.429 C  
HETATM   12  O   UNL     1      -8.948  13.076  67.475  1.00  0.00    -0.174 OA 
HETATM   13  C   UNL     1     -11.837  14.003  67.247  1.00  0.00    -0.445 C  
HETATM   14  C   UNL     1     -11.912  13.485  68.681  1.00  0.00    -0.343 C  
HETATM   15  O   UNL     1     -10.928  12.512  68.996  1.00  0.00    -0.233 OA 
ENDBRANCH   4   8
ENDBRANCH   3   4
TORSDOF 3
ENDMDL
MODEL      145
REMARK 921   NORMALIZED FREE ENERGY PREDICTED BY IDOCK:   -2.94 KCAL/MOL
REMARK 922        TOTAL FREE ENERGY PREDICTED BY IDOCK:   -3.69 KCAL/MOL
REMARK 923 INTER-LIGAND FREE ENERGY PREDICTED BY IDOCK:   -3.46 KCAL/MOL
REMARK 924 INTRA-LIGAND FREE ENERGY PREDICTED BY IDOCK:   -0.23 KCAL/MOL
REMARK 927      BINDING AFFINITY PREDICTED BY RF-SCORE:    0.00 PKD
ROOT
HETATM    1 CL   UNL     1     -13.334  11.855  71.894  1.00  0.00    -0.507 Cl 
HETATM    2  C   UNL     1     -12.225  11.090  70.714  1.00  0.00    -0.380 C  
HETATM    3  C   UNL     1     -12.103   9.592  71.016  1.00  0.00    -0.337 C  
ENDROOT
BRANCH   3   4
HETATM    4  N   UNL     1     -11.225   8.727  70.160  1.00  0.00    -0.203 NA 
BRANCH   4   5
HETATM    5  C   UNL     1     -10.558   9.574  69.142  1.00  0.00    -0.222 C  
HETATM    6 CL   UNL     1      -9.867  10.336  66.619  1.00  0.00    -0.244 Cl 
HETATM    7  C   UNL     1     -10.658   9.124  67.675  1.00  0.00    -0.242 C  
ENDBRANCH   4   5
BRANCH   4   8
HETATM    8  P   UNL     1     -10.226   7.832  71.154  1.00  0.00    -0.195 P  
HETATM    9  N   UNL     1     -10.864   6.333  71.265  1.00  0.00    -0.254 NA 
HETATM   10  H   UNL     1     -11.072   5.970  70.335  1.00  0.00     0.000 HD 
HETATM   11  C   UNL     1     -10.057   5.372  72.012  1.00  0.00    -0.190 C  
HETATM   12  O   UNL     1      -9.955   8.473  72.482  1.00  0.00    -0.293 OA 
HETATM   13  C   UNL     1      -8.581   5.783  72.122  1.00  0.00    -0.129 C  
HETATM   14  C   UNL     1      -8.050   6.445  70.852  1.00  0.00    -0.124 C  
HETATM   15  O   UNL     1      -8.851   7.517  70.381  1.00  0.00    -0.143 OA 
ENDBRANCH   4   8
ENDBRANCH   3   4
TORSDOF 3
ENDMDL
MODEL      146
REMARK 921   NORMALIZED FREE ENERGY PREDICTED BY IDOCK:   -2.94 KCAL/MOL
REMARK 922        TOTAL FREE ENERGY PREDICTED BY IDOCK:   -3.69 KCAL/MOL
REMARK 923 INTER-LIGAND FREE ENERGY PREDICTED BY IDOCK:   -3.50 KCAL/MOL
REMARK 924 INTRA-LIGAND FREE ENERGY PREDICTED BY IDOCK:   -0.20 KCAL/MOL
REMARK 927      BINDING AFFINITY PREDICTED BY RF-SCORE:    0.00 PKD
ROOT
HETATM    1 CL   UNL     1     -10.562  17.158  67.597  1.00  0.00    -0.356 Cl 
HETATM    2  C   UNL     1     -10.613  15.579  66.752  1.00  0.00    -0.307 C  
HETATM    3  C   UNL     1      -9.930  14.511  67.615  1.00  0.00    -0.224 C  
ENDROOT
BRANCH   3   4
HETATM    4  N   UNL     1      -9.845  13.096  67.122  1.00  0.00    -0.231 NA 
BRANCH   4   5
HETATM    5  C   UNL     1     -10.234  13.059  65.691  1.00  0.00    -0.287 C  
HETATM    6 CL   UNL     1     -11.857  12.490  63.579  1.00  0.00    -0.586 Cl 
HETATM    7  C   UNL     1     -11.539  12.330  65.335  1.00  0.00    -0.363 C  
ENDBRANCH   4   5
BRANCH   4   8
HETATM    8  P   UNL     1      -8.335  12.491  67.498  1.00  0.00    -0.197 P  
HETATM    9  N   UNL     1      -8.450  11.763  68.954  1.00  0.00    -0.368 NA 
HETATM   10  H   UNL     1      -9.245  11.123  68.966  1.00  0.00     0.000 HD 
HETATM   11  C   UNL     1      -7.241  11.074  69.399  1.00  0.00    -0.114 C  
HETATM   12  O   UNL     1      -7.234  13.506  67.415  1.00  0.00    -0.166 OA 
HETATM   13  C   UNL     1      -6.284  10.738  68.246  1.00  0.00    -0.053 C  
HETATM   14  C   UNL     1      -7.010  10.319  66.970  1.00  0.00    -0.089 C  
HETATM   15  O   UNL     1      -8.019  11.227  66.555  1.00  0.00    -0.157 OA 
ENDBRANCH   4   8
ENDBRANCH   3   4
TORSDOF 3
ENDMDL
MODEL      147
REMARK 921   NORMALIZED FREE ENERGY PREDICTED BY IDOCK:   -2.94 KCAL/MOL
REMARK 922        TOTAL FREE ENERGY PREDICTED BY IDOCK:   -3.69 KCAL/MOL
REMARK 923 INTER-LIGAND FREE ENERGY PREDICTED BY IDOCK:   -3.43 KCAL/MOL
REMARK 924 INTRA-LIGAND FREE ENERGY PREDICTED BY IDOCK:   -0.25 KCAL/MOL
REMARK 927      BINDING AFFINITY PREDICTED BY RF-SCORE:    0.00 PKD
ROOT
HETATM    1 CL   UNL     1     -12.812  10.830  72.079  1.00  0.00    -0.456 Cl 
HETATM    2  C   UNL     1     -13.025  10.597  70.316  1.00  0.00    -0.068 C  
HETATM    3  C   UNL     1     -11.671  10.735  69.611  1.00  0.00    -0.323 C  
ENDROOT
BRANCH   3   4
HETATM    4  N   UNL     1     -11.586  10.578  68.120  1.00  0.00    -0.409 NA 
BRANCH   4   5
HETATM    5  C   UNL     1     -11.631  11.920  67.491  1.00  0.00    -0.304 C  
HETATM    6 CL   UNL     1     -11.167  14.600  67.333  1.00  0.00    -0.334 Cl 
HETATM    7  C   UNL     1     -11.105  13.104  68.318  1.00  0.00    -0.266 C  
ENDBRANCH   4   5
BRANCH   4   8
HETATM    8  P   UNL     1     -10.260   9.631  67.759  1.00  0.00    -0.234 P  
HETATM    9  N   UNL     1      -9.647   9.091  69.172  1.00  0.00    -0.159 NA 
HETATM   10  H   UNL     1     -10.388   8.688  69.745  1.00  0.00     0.000 HD 
HETATM   11  C   UNL     1      -8.538   8.148  69.045  1.00  0.00    -0.133 C  
HETATM   12  O   UNL     1      -9.250  10.307  66.881  1.00  0.00    -0.148 OA 
HETATM   13  C   UNL     1      -8.481   7.471  67.668  1.00  0.00    -0.117 C  
HETATM   14  C   UNL     1      -9.862   7.149  67.103  1.00  0.00    -0.181 C  
HETATM   15  O   UNL     1     -10.757   8.251  67.099  1.00  0.00    -0.302 OA 
ENDBRANCH   4   8
ENDBRANCH   3   4
TORSDOF 3
ENDMDL
MODEL      148
REMARK 921   NORMALIZED FREE ENERGY PREDICTED BY IDOCK:   -2.93 KCAL/MOL
REMARK 922        TOTAL FREE ENERGY PREDICTED BY IDOCK:   -3.68 KCAL/MOL
REMARK 923 INTER-LIGAND FREE ENERGY PREDICTED BY IDOCK:   -3.45 KCAL/MOL
REMARK 924 INTRA-LIGAND FREE ENERGY PREDICTED BY IDOCK:   -0.23 KCAL/MOL
REMARK 927      BINDING AFFINITY PREDICTED BY RF-SCORE:    0.00 PKD
ROOT
HETATM    1 CL   UNL     1     -10.967   5.934  71.318  1.00  0.00    -0.333 Cl 
HETATM    2  C   UNL     1     -11.491   7.066  70.032  1.00  0.00    -0.215 C  
HETATM    3  C   UNL     1     -10.985   8.477  70.350  1.00  0.00    -0.238 C  
ENDROOT
BRANCH   3   4
HETATM    4  N   UNL     1     -11.295   9.610  69.416  1.00  0.00    -0.074 NA 
BRANCH   4   5
HETATM    5  C   UNL     1     -11.758  10.776  70.207  1.00  0.00    -0.352 C  
HETATM    6 CL   UNL     1     -13.185  12.041  72.152  1.00  0.00    -0.542 Cl 
HETATM    7  C   UNL     1     -12.850  10.524  71.259  1.00  0.00    -0.431 C  
ENDBRANCH   4   5
BRANCH   4   8
HETATM    8  P   UNL     1      -9.974   9.860  68.426  1.00  0.00    -0.173 P  
HETATM    9  N   UNL     1     -10.472   9.652  66.886  1.00  0.00    -0.233 NA 
HETATM   10  H   UNL     1     -11.317  10.197  66.713  1.00  0.00     0.000 HD 
HETATM   11  C   UNL     1      -9.467   9.942  65.866  1.00  0.00    -0.215 C  
HETATM   12  O   UNL     1      -8.775   9.037  68.790  1.00  0.00    -0.133 OA 
HETATM   13  C   UNL     1      -8.333  10.840  66.380  1.00  0.00    -0.153 C  
HETATM   14  C   UNL     1      -8.816  11.920  67.345  1.00  0.00    -0.171 C  
HETATM   15  O   UNL     1      -9.608  11.427  68.414  1.00  0.00    -0.185 OA 
ENDBRANCH   4   8
ENDBRANCH   3   4
TORSDOF 3
ENDMDL
MODEL      149
REMARK 921   NORMALIZED FREE ENERGY PREDICTED BY IDOCK:   -2.93 KCAL/MOL
REMARK 922        TOTAL FREE ENERGY PREDICTED BY IDOCK:   -3.67 KCAL/MOL
REMARK 923 INTER-LIGAND FREE ENERGY PREDICTED BY IDOCK:   -3.48 KCAL/MOL
REMARK 924 INTRA-LIGAND FREE ENERGY PREDICTED BY IDOCK:   -0.19 KCAL/MOL
REMARK 927      BINDING AFFINITY PREDICTED BY RF-SCORE:    0.00 PKD
ROOT
HETATM    1 CL   UNL     1      -9.485   5.420  65.796  1.00  0.00    -0.143 Cl 
HETATM    2  C   UNL     1     -10.386   4.855  67.237  1.00  0.00    -0.094 C  
HETATM    3  C   UNL     1     -10.182   5.842  68.393  1.00  0.00    -0.191 C  
ENDROOT
BRANCH   3   4
HETATM    4  N   UNL     1     -10.841   5.587  69.717  1.00  0.00    -0.298 NA 
BRANCH   4   5
HETATM    5  C   UNL     1      -9.983   4.680  70.517  1.00  0.00    -0.225 C  
HETATM    6 CL   UNL     1      -7.635   3.755  71.544  1.00  0.00    -0.055 Cl 
HETATM    7  C   UNL     1      -8.463   4.892  70.434  1.00  0.00    -0.096 C  
ENDBRANCH   4   5
BRANCH   4   8
HETATM    8  P   UNL     1     -11.222   7.057  70.413  1.00  0.00    -0.303 P  
HETATM    9  N   UNL     1     -12.815   7.029  70.768  1.00  0.00    -0.552 NA 
HETATM   10  H   UNL     1     -13.047   6.177  71.278  1.00  0.00     0.000 HD 
HETATM   11  C   UNL     1     -13.307   8.200  71.490  1.00  0.00    -0.284 C  
HETATM   12  O   UNL     1     -10.804   8.244  69.598  1.00  0.00    -0.226 OA 
HETATM   13  C   UNL     1     -12.192   8.978  72.203  1.00  0.00    -0.427 C  
HETATM   14  C   UNL     1     -11.120   8.072  72.803  1.00  0.00    -0.381 C  
HETATM   15  O   UNL     1     -10.586   7.126  71.889  1.00  0.00    -0.211 OA 
ENDBRANCH   4   8
ENDBRANCH   3   4
TORSDOF 3
ENDMDL
MODEL      150
REMARK 921   NORMALIZED FREE ENERGY PREDICTED BY IDOCK:   -2.92 KCAL/MOL
REMARK 922        TOTAL FREE ENERGY PREDICTED BY IDOCK:   -3.67 KCAL/MOL
REMARK 923 INTER-LIGAND FREE ENERGY PREDICTED BY IDOCK:   -3.64 KCAL/MOL
REMARK 924 INTRA-LIGAND FREE ENERGY PREDICTED BY IDOCK:   -0.03 KCAL/MOL
REMARK 927      BINDING AFFINITY PREDICTED BY RF-SCORE:    0.00 PKD
ROOT
HETATM    1 CL   UNL     1      -8.038  13.222  67.620  1.00  0.00    -0.160 Cl 
HETATM    2  C   UNL     1      -8.097  14.856  66.889  1.00  0.00    -0.084 C  
HETATM    3  C   UNL     1      -7.491  15.877  67.860  1.00  0.00    -0.131 C  
ENDROOT
BRANCH   3   4
HETATM    4  N   UNL     1      -7.424  17.325  67.474  1.00  0.00    -0.167 NA 
BRANCH   4   5
HETATM    5  C   UNL     1      -6.700  17.448  66.185  1.00  0.00    -0.227 C  
HETATM    6 CL   UNL     1      -5.270  18.741  64.260  1.00  0.00    -0.236 Cl 
HETATM    7  C   UNL     1      -6.188  18.844  65.795  1.00  0.00    -0.222 C  
ENDBRANCH   4   5
BRANCH   4   8
HETATM    8  P   UNL     1      -8.967  17.962  67.524  1.00  0.00    -0.254 P  
HETATM    9  N   UNL     1      -8.858  19.452  68.181  1.00  0.00    -0.322 NA 
HETATM   10  H   UNL     1      -8.127  19.990  67.715  1.00  0.00     0.000 HD 
HETATM   11  C   UNL     1     -10.106  20.211  68.203  1.00  0.00    -0.359 C  
HETATM   12  O   UNL     1      -9.970  17.076  68.198  1.00  0.00    -0.264 OA 
HETATM   13  C   UNL     1     -11.138  19.697  67.190  1.00  0.00    -0.266 C  
HETATM   14  C   UNL     1     -10.510  19.245  65.874  1.00  0.00    -0.451 C  
HETATM   15  O   UNL     1      -9.439  18.327  66.030  1.00  0.00    -0.501 OA 
ENDBRANCH   4   8
ENDBRANCH   3   4
TORSDOF 3
ENDMDL
MODEL      151
REMARK 921   NORMALIZED FREE ENERGY PREDICTED BY IDOCK:   -2.92 KCAL/MOL
REMARK 922        TOTAL FREE ENERGY PREDICTED BY IDOCK:   -3.67 KCAL/MOL
REMARK 923 INTER-LIGAND FREE ENERGY PREDICTED BY IDOCK:   -3.44 KCAL/MOL
REMARK 924 INTRA-LIGAND FREE ENERGY PREDICTED BY IDOCK:   -0.23 KCAL/MOL
REMARK 927      BINDING AFFINITY PREDICTED BY RF-SCORE:    0.00 PKD
ROOT
HETATM    1 CL   UNL     1      -5.542  12.504  68.272  1.00  0.00    -0.055 Cl 
HETATM    2  C   UNL     1      -7.094  12.984  67.519  1.00  0.00    -0.154 C  
HETATM    3  C   UNL     1      -7.145  14.509  67.369  1.00  0.00    -0.110 C  
ENDROOT
BRANCH   3   4
HETATM    4  N   UNL     1      -8.352  15.160  66.759  1.00  0.00    -0.228 NA 
BRANCH   4   5
HETATM    5  C   UNL     1      -9.511  14.243  66.887  1.00  0.00    -0.263 C  
HETATM    6 CL   UNL     1     -11.540  12.672  65.973  1.00  0.00    -0.417 Cl 
HETATM    7  C   UNL     1     -10.244  13.849  65.594  1.00  0.00    -0.328 C  
ENDBRANCH   4   5
BRANCH   4   8
HETATM    8  P   UNL     1      -8.530  16.681  67.423  1.00  0.00    -0.199 P  
HETATM    9  N   UNL     1      -7.229  16.954  68.370  1.00  0.00    -0.186 NA 
HETATM   10  H   UNL     1      -6.371  16.747  67.858  1.00  0.00     0.000 HD 
HETATM   11  C   UNL     1      -7.158  18.293  68.952  1.00  0.00    -0.274 C  
HETATM   12  O   UNL     1      -9.840  16.892  68.121  1.00  0.00    -0.248 OA 
HETATM   13  C   UNL     1      -8.011  19.321  68.196  1.00  0.00    -0.343 C  
HETATM   14  C   UNL     1      -7.997  19.114  66.684  1.00  0.00    -0.272 C  
HETATM   15  O   UNL     1      -8.307  17.790  66.279  1.00  0.00    -0.364 OA 
ENDBRANCH   4   8
ENDBRANCH   3   4
TORSDOF 3
ENDMDL
MODEL      152
REMARK 921   NORMALIZED FREE ENERGY PREDICTED BY IDOCK:   -2.92 KCAL/MOL
REMARK 922        TOTAL FREE ENERGY PREDICTED BY IDOCK:   -3.67 KCAL/MOL
REMARK 923 INTER-LIGAND FREE ENERGY PREDICTED BY IDOCK:   -3.42 KCAL/MOL
REMARK 924 INTRA-LIGAND FREE ENERGY PREDICTED BY IDOCK:   -0.25 KCAL/MOL
REMARK 927      BINDING AFFINITY PREDICTED BY RF-SCORE:    0.00 PKD
ROOT
HETATM    1 CL   UNL     1     -12.687  10.831  71.584  1.00  0.00    -0.529 Cl 
HETATM    2  C   UNL     1     -11.838   9.391  70.941  1.00  0.00    -0.294 C  
HETATM    3  C   UNL     1     -10.836   9.822  69.863  1.00  0.00    -0.272 C  
ENDROOT
BRANCH   3   4
HETATM    4  N   UNL     1      -9.995   8.790  69.170  1.00  0.00    -0.185 NA 
BRANCH   4   5
HETATM    5  C   UNL     1     -10.378   7.445  69.663  1.00  0.00    -0.223 C  
HETATM    6 CL   UNL     1      -9.961   4.833  70.316  1.00  0.00    -0.311 Cl 
HETATM    7  C   UNL     1      -9.316   6.337  69.585  1.00  0.00    -0.143 C  
ENDBRANCH   4   5
BRANCH   4   8
HETATM    8  P   UNL     1     -10.101   9.036  67.522  1.00  0.00    -0.263 P  
HETATM    9  N   UNL     1     -10.501  10.601  67.288  1.00  0.00    -0.231 NA 
HETATM   10  H   UNL     1      -9.885  11.207  67.829  1.00  0.00     0.000 HD 
HETATM   11  C   UNL     1     -10.531  11.029  65.891  1.00  0.00    -0.240 C  
HETATM   12  O   UNL     1     -11.005   8.069  66.818  1.00  0.00    -0.092 OA 
HETATM   13  C   UNL     1      -9.721  10.111  64.965  1.00  0.00    -0.384 C  
HETATM   14  C   UNL     1      -8.436   9.597  65.608  1.00  0.00    -0.132 C  
HETATM   15  O   UNL     1      -8.624   9.005  66.884  1.00  0.00    -0.121 OA 
ENDBRANCH   4   8
ENDBRANCH   3   4
TORSDOF 3
ENDMDL
MODEL      153
REMARK 921   NORMALIZED FREE ENERGY PREDICTED BY IDOCK:   -2.91 KCAL/MOL
REMARK 922        TOTAL FREE ENERGY PREDICTED BY IDOCK:   -3.66 KCAL/MOL
REMARK 923 INTER-LIGAND FREE ENERGY PREDICTED BY IDOCK:   -3.43 KCAL/MOL
REMARK 924 INTRA-LIGAND FREE ENERGY PREDICTED BY IDOCK:   -0.23 KCAL/MOL
REMARK 927      BINDING AFFINITY PREDICTED BY RF-SCORE:    0.00 PKD
ROOT
HETATM    1 CL   UNL     1      -6.739   7.941  64.851  1.00  0.00    -0.051 Cl 
HETATM    2  C   UNL     1      -8.492   8.294  64.958  1.00  0.00    -0.123 C  
HETATM    3  C   UNL     1      -8.873   8.574  66.416  1.00  0.00    -0.150 C  
ENDROOT
BRANCH   3   4
HETATM    4  N   UNL     1     -10.296   8.899  66.766  1.00  0.00    -0.268 NA 
BRANCH   4   5
HETATM    5  C   UNL     1     -10.642   8.235  68.046  1.00  0.00    -0.127 C  
HETATM    6 CL   UNL     1     -11.187   6.118  69.672  1.00  0.00    -0.484 Cl 
HETATM    7  C   UNL     1     -10.877   6.717  68.012  1.00  0.00    -0.271 C  
ENDBRANCH   4   5
BRANCH   4   8
HETATM    8  P   UNL     1     -10.492  10.557  66.711  1.00  0.00    -0.192 P  
HETATM    9  N   UNL     1      -9.041  11.230  67.035  1.00  0.00    -0.160 NA 
HETATM   10  H   UNL     1      -8.319  10.808  66.451  1.00  0.00     0.000 HD 
HETATM   11  C   UNL     1      -8.996  12.686  66.921  1.00  0.00    -0.213 C  
HETATM   12  O   UNL     1     -11.603  11.068  67.578  1.00  0.00    -0.529 OA 
HETATM   13  C   UNL     1     -10.132  13.256  66.060  1.00  0.00    -0.301 C  
HETATM   14  C   UNL     1     -10.469  12.377  64.858  1.00  0.00    -0.298 C  
HETATM   15  O   UNL     1     -10.702  11.016  65.184  1.00  0.00    -0.263 OA 
ENDBRANCH   4   8
ENDBRANCH   3   4
TORSDOF 3
ENDMDL
MODEL      154
REMARK 921   NORMALIZED FREE ENERGY PREDICTED BY IDOCK:   -2.90 KCAL/MOL
REMARK 922        TOTAL FREE ENERGY PREDICTED BY IDOCK:   -3.64 KCAL/MOL
REMARK 923 INTER-LIGAND FREE ENERGY PREDICTED BY IDOCK:   -3.39 KCAL/MOL
REMARK 924 INTRA-LIGAND FREE ENERGY PREDICTED BY IDOCK:   -0.25 KCAL/MOL
REMARK 927      BINDING AFFINITY PREDICTED BY RF-SCORE:    0.00 PKD
ROOT
HETATM    1 CL   UNL     1     -13.090   6.775  71.709  1.00  0.00    -0.329 Cl 
HETATM    2  C   UNL     1     -11.877   7.470  70.589  1.00  0.00    -0.179 C  
HETATM    3  C   UNL     1     -11.224   8.698  71.233  1.00  0.00    -0.276 C  
ENDROOT
BRANCH   3   4
HETATM    4  N   UNL     1     -10.167   9.460  70.488  1.00  0.00    -0.251 NA 
BRANCH   4   5
HETATM    5  C   UNL     1      -9.240   8.496  69.846  1.00  0.00    -0.154 C  
HETATM    6 CL   UNL     1      -7.217   6.673  69.779  1.00  0.00    -0.075 Cl 
HETATM    7  C   UNL     1      -8.154   7.866  70.733  1.00  0.00    -0.101 C  
ENDBRANCH   4   5
BRANCH   4   8
HETATM    8  P   UNL     1     -10.916  10.558  69.477  1.00  0.00    -0.292 P  
HETATM    9  N   UNL     1      -9.897  11.820  69.289  1.00  0.00    -0.353 NA 
HETATM   10  H   UNL     1      -8.967  11.486  69.038  1.00  0.00     0.000 HD 
HETATM   11  C   UNL     1     -10.342  12.837  68.339  1.00  0.00    -0.243 C  
HETATM   12  O   UNL     1     -12.293  10.953  69.919  1.00  0.00    -0.326 OA 
HETATM   13  C   UNL     1     -11.396  12.316  67.351  1.00  0.00    -0.389 C  
HETATM   14  C   UNL     1     -11.139  10.878  66.908  1.00  0.00    -0.167 C  
HETATM   15  O   UNL     1     -10.943   9.969  67.980  1.00  0.00    -0.261 OA 
ENDBRANCH   4   8
ENDBRANCH   3   4
TORSDOF 3
ENDMDL
MODEL      155
REMARK 921   NORMALIZED FREE ENERGY PREDICTED BY IDOCK:   -2.87 KCAL/MOL
REMARK 922        TOTAL FREE ENERGY PREDICTED BY IDOCK:   -3.61 KCAL/MOL
REMARK 923 INTER-LIGAND FREE ENERGY PREDICTED BY IDOCK:   -3.48 KCAL/MOL
REMARK 924 INTRA-LIGAND FREE ENERGY PREDICTED BY IDOCK:   -0.14 KCAL/MOL
REMARK 927      BINDING AFFINITY PREDICTED BY RF-SCORE:    0.00 PKD
ROOT
HETATM    1 CL   UNL     1     -10.685  14.378  67.826  1.00  0.00    -0.246 Cl 
HETATM    2  C   UNL     1     -11.421  12.846  67.258  1.00  0.00    -0.336 C  
HETATM    3  C   UNL     1     -10.407  11.705  67.397  1.00  0.00    -0.205 C  
ENDROOT
BRANCH   3   4
HETATM    4  N   UNL     1     -10.789  10.313  66.985  1.00  0.00    -0.223 NA 
BRANCH   4   5
HETATM    5  C   UNL     1     -10.104   9.981  65.712  1.00  0.00    -0.250 C  
HETATM    6 CL   UNL     1      -9.363  10.375  63.121  1.00  0.00    -0.307 Cl 
HETATM    7  C   UNL     1     -10.357  10.909  64.513  1.00  0.00    -0.348 C  
ENDBRANCH   4   5
BRANCH   4   8
HETATM    8  P   UNL     1     -10.511   9.283  68.270  1.00  0.00    -0.162 P  
HETATM    9  N   UNL     1     -10.984   7.790  67.809  1.00  0.00    -0.501 NA 
HETATM   10  H   UNL     1     -10.577   7.556  66.904  1.00  0.00     0.000 HD 
HETATM   11  C   UNL     1     -10.711   6.729  68.775  1.00  0.00    -0.239 C  
HETATM   12  O   UNL     1     -11.123   9.740  69.560  1.00  0.00    -0.232 OA 
HETATM   13  C   UNL     1      -9.619   7.105  69.787  1.00  0.00    -0.155 C  
HETATM   14  C   UNL     1      -8.488   7.923  69.168  1.00  0.00    -0.137 C  
HETATM   15  O   UNL     1      -8.927   9.057  68.437  1.00  0.00    -0.133 OA 
ENDBRANCH   4   8
ENDBRANCH   3   4
TORSDOF 3
ENDMDL
MODEL      156
REMARK 921   NORMALIZED FREE ENERGY PREDICTED BY IDOCK:   -2.87 KCAL/MOL
REMARK 922        TOTAL FREE ENERGY PREDICTED BY IDOCK:   -3.61 KCAL/MOL
REMARK 923 INTER-LIGAND FREE ENERGY PREDICTED BY IDOCK:   -3.37 KCAL/MOL
REMARK 924 INTRA-LIGAND FREE ENERGY PREDICTED BY IDOCK:   -0.24 KCAL/MOL
REMARK 927      BINDING AFFINITY PREDICTED BY RF-SCORE:    0.00 PKD
ROOT
HETATM    1 CL   UNL     1     -10.708   4.808  66.104  1.00  0.00    -0.296 Cl 
HETATM    2  C   UNL     1     -10.790   6.426  66.868  1.00  0.00    -0.357 C  
HETATM    3  C   UNL     1      -9.884   6.459  68.104  1.00  0.00    -0.127 C  
ENDROOT
BRANCH   3   4
HETATM    4  N   UNL     1      -9.780   7.714  68.920  1.00  0.00    -0.154 NA 
BRANCH   4   5
HETATM    5  C   UNL     1     -10.158   8.873  68.074  1.00  0.00    -0.195 C  
HETATM    6 CL   UNL     1      -9.977  11.428  67.148  1.00  0.00    -0.211 Cl 
HETATM    7  C   UNL     1      -9.436  10.203  68.339  1.00  0.00    -0.143 C  
ENDBRANCH   4   5
BRANCH   4   8
HETATM    8  P   UNL     1     -10.652   7.507  70.329  1.00  0.00    -0.234 P  
HETATM    9  N   UNL     1      -9.670   7.903  71.572  1.00  0.00    -0.159 NA 
HETATM   10  H   UNL     1      -9.234   8.809  71.401  1.00  0.00     0.000 HD 
HETATM   11  C   UNL     1     -10.302   7.888  72.888  1.00  0.00    -0.347 C  
HETATM   12  O   UNL     1     -11.280   6.153  70.463  1.00  0.00    -0.320 OA 
HETATM   13  C   UNL     1     -11.832   7.995  72.820  1.00  0.00    -0.303 C  
HETATM   14  C   UNL     1     -12.317   8.936  71.720  1.00  0.00    -0.357 C  
HETATM   15  O   UNL     1     -11.761   8.666  70.443  1.00  0.00    -0.164 OA 
ENDBRANCH   4   8
ENDBRANCH   3   4
TORSDOF 3
ENDMDL
MODEL      157
REMARK 921   NORMALIZED FREE ENERGY PREDICTED BY IDOCK:   -2.82 KCAL/MOL
REMARK 922        TOTAL FREE ENERGY PREDICTED BY IDOCK:   -3.55 KCAL/MOL
REMARK 923 INTER-LIGAND FREE ENERGY PREDICTED BY IDOCK:   -3.43 KCAL/MOL
REMARK 924 INTRA-LIGAND FREE ENERGY PREDICTED BY IDOCK:   -0.12 KCAL/MOL
REMARK 927      BINDING AFFINITY PREDICTED BY RF-SCORE:    0.00 PKD
ROOT
HETATM    1 CL   UNL     1     -11.224  15.397  64.626  1.00  0.00    -0.403 Cl 
HETATM    2  C   UNL     1     -10.815  15.105  66.345  1.00  0.00    -0.326 C  
HETATM    3  C   UNL     1     -10.711  13.597  66.602  1.00  0.00    -0.280 C  
ENDROOT
BRANCH   3   4
HETATM    4  N   UNL     1     -10.375  13.095  67.976  1.00  0.00    -0.231 NA 
BRANCH   4   5
HETATM    5  C   UNL     1     -11.526  13.345  68.876  1.00  0.00    -0.304 C  
HETATM    6 CL   UNL     1     -12.983  14.742  70.706  1.00  0.00    -0.410 Cl 
HETATM    7  C   UNL     1     -11.458  14.587  69.779  1.00  0.00    -0.279 C  
ENDBRANCH   4   5
BRANCH   4   8
HETATM    8  P   UNL     1      -9.857  11.513  67.852  1.00  0.00    -0.196 P  
HETATM    9  N   UNL     1      -8.252  11.547  67.558  1.00  0.00    -0.135 NA 
HETATM   10  H   UNL     1      -7.784  12.158  68.227  1.00  0.00     0.000 HD 
HETATM   11  C   UNL     1      -7.601  10.239  67.529  1.00  0.00    -0.094 C  
HETATM   12  O   UNL     1     -10.635  10.692  66.867  1.00  0.00    -0.246 OA 
HETATM   13  C   UNL     1      -8.407   9.151  68.252  1.00  0.00    -0.120 C  
HETATM   14  C   UNL     1      -9.103   9.661  69.511  1.00  0.00    -0.199 C  
HETATM   15  O   UNL     1      -9.881  10.831  69.309  1.00  0.00    -0.205 OA 
ENDBRANCH   4   8
ENDBRANCH   3   4
TORSDOF 3
ENDMDL
MODEL      158
REMARK 921   NORMALIZED FREE ENERGY PREDICTED BY IDOCK:   -2.80 KCAL/MOL
REMARK 922        TOTAL FREE ENERGY PREDICTED BY IDOCK:   -3.53 KCAL/MOL
REMARK 923 INTER-LIGAND FREE ENERGY PREDICTED BY IDOCK:   -3.41 KCAL/MOL
REMARK 924 INTRA-LIGAND FREE ENERGY PREDICTED BY IDOCK:   -0.12 KCAL/MOL
REMARK 927      BINDING AFFINITY PREDICTED BY RF-SCORE:    0.00 PKD
ROOT
HETATM    1 CL   UNL     1      -9.928   9.542  66.753  1.00  0.00    -0.276 Cl 
HETATM    2  C   UNL     1     -10.735   9.070  68.281  1.00  0.00    -0.103 C  
HETATM    3  C   UNL     1      -9.953   9.636  69.473  1.00  0.00    -0.209 C  
ENDROOT
BRANCH   3   4
HETATM    4  N   UNL     1     -10.433   9.377  70.871  1.00  0.00    -0.288 NA 
BRANCH   4   5
HETATM    5  C   UNL     1     -11.844   8.922  70.821  1.00  0.00    -0.194 C  
HETATM    6 CL   UNL     1     -14.368   8.568  71.781  1.00  0.00    -0.518 Cl 
HETATM    7  C   UNL     1     -12.684   9.092  72.096  1.00  0.00    -0.401 C  
ENDBRANCH   4   5
BRANCH   4   8
HETATM    8  P   UNL     1      -9.349   8.355  71.625  1.00  0.00    -0.262 P  
HETATM    9  N   UNL     1      -7.922   9.142  71.719  1.00  0.00    -0.309 NA 
HETATM   10  H   UNL     1      -8.059  10.075  72.107  1.00  0.00     0.000 HD 
HETATM   11  C   UNL     1      -6.874   8.438  72.455  1.00  0.00    -0.092 C  
HETATM   12  O   UNL     1      -9.251   6.998  70.996  1.00  0.00    -0.155 OA 
HETATM   13  C   UNL     1      -7.426   7.363  73.402  1.00  0.00    -0.108 C  
HETATM   14  C   UNL     1      -8.729   7.777  74.081  1.00  0.00    -0.238 C  
HETATM   15  O   UNL     1      -9.728   8.236  73.184  1.00  0.00    -0.254 OA 
ENDBRANCH   4   8
ENDBRANCH   3   4
TORSDOF 3
ENDMDL
MODEL      159
REMARK 921   NORMALIZED FREE ENERGY PREDICTED BY IDOCK:   -2.79 KCAL/MOL
REMARK 922        TOTAL FREE ENERGY PREDICTED BY IDOCK:   -3.52 KCAL/MOL
REMARK 923 INTER-LIGAND FREE ENERGY PREDICTED BY IDOCK:   -3.27 KCAL/MOL
REMARK 924 INTRA-LIGAND FREE ENERGY PREDICTED BY IDOCK:   -0.25 KCAL/MOL
REMARK 927      BINDING AFFINITY PREDICTED BY RF-SCORE:    0.00 PKD
ROOT
HETATM    1 CL   UNL     1      -8.355   7.883  73.820  1.00  0.00    -0.264 Cl 
HETATM    2  C   UNL     1      -9.257   6.698  72.824  1.00  0.00    -0.135 C  
HETATM    3  C   UNL     1     -10.160   7.441  71.832  1.00  0.00    -0.178 C  
ENDROOT
BRANCH   3   4
HETATM    4  N   UNL     1     -11.022   6.663  70.880  1.00  0.00    -0.254 NA 
BRANCH   4   5
HETATM    5  C   UNL     1     -12.376   7.266  70.852  1.00  0.00    -0.248 C  
HETATM    6 CL   UNL     1     -14.294   9.084  71.514  1.00  0.00    -0.277 Cl 
HETATM    7  C   UNL     1     -12.635   8.462  71.782  1.00  0.00    -0.342 C  
ENDBRANCH   4   5
BRANCH   4   8
HETATM    8  P   UNL     1     -10.227   6.548  69.416  1.00  0.00    -0.213 P  
HETATM    9  N   UNL     1     -11.106   7.378  68.319  1.00  0.00    -0.449 NA 
HETATM   10  H   UNL     1     -11.329   8.307  68.677  1.00  0.00     0.000 HD 
HETATM   11  C   UNL     1     -10.501   7.481  66.993  1.00  0.00    -0.338 C  
HETATM   12  O   UNL     1      -9.915   5.142  69.001  1.00  0.00    -0.171 OA 
HETATM   13  C   UNL     1      -8.985   7.240  67.005  1.00  0.00    -0.140 C  
HETATM   14  C   UNL     1      -8.296   7.824  68.236  1.00  0.00    -0.125 C  
HETATM   15  O   UNL     1      -8.889   7.440  69.467  1.00  0.00    -0.137 OA 
ENDBRANCH   4   8
ENDBRANCH   3   4
TORSDOF 3
ENDMDL
MODEL      160
REMARK 921   NORMALIZED FREE ENERGY PREDICTED BY IDOCK:   -2.79 KCAL/MOL
REMARK 922        TOTAL FREE ENERGY PREDICTED BY IDOCK:   -3.52 KCAL/MOL
REMARK 923 INTER-LIGAND FREE ENERGY PREDICTED BY IDOCK:   -3.25 KCAL/MOL
REMARK 924 INTRA-LIGAND FREE ENERGY PREDICTED BY IDOCK:   -0.27 KCAL/MOL
REMARK 927      BINDING AFFINITY PREDICTED BY RF-SCORE:    0.00 PKD
ROOT
HETATM    1 CL   UNL     1     -12.108  10.927  69.849  1.00  0.00    -0.397 Cl 
HETATM    2  C   UNL     1     -10.597  10.040  70.220  1.00  0.00    -0.295 C  
HETATM    3  C   UNL     1     -10.852   8.530  70.134  1.00  0.00    -0.233 C  
ENDROOT
BRANCH   3   4
HETATM    4  N   UNL     1      -9.732   7.568  70.404  1.00  0.00    -0.179 NA 
BRANCH   4   5
HETATM    5  C   UNL     1     -10.056   6.778  71.616  1.00  0.00    -0.183 C  
HETATM    6 CL   UNL     1     -11.530   5.066  73.138  1.00  0.00    -0.398 Cl 
HETATM    7  C   UNL     1     -11.392   6.019  71.627  1.00  0.00    -0.252 C  
ENDBRANCH   4   5
BRANCH   4   8
HETATM    8  P   UNL     1      -9.429   6.700  69.010  1.00  0.00    -0.129 P  
HETATM    9  N   UNL     1     -10.796   6.718  68.117  1.00  0.00    -0.380 NA 
HETATM   10  H   UNL     1     -11.144   7.673  68.027  1.00  0.00     0.000 HD 
HETATM   11  C   UNL     1     -10.683   6.096  66.800  1.00  0.00    -0.299 C  
HETATM   12  O   UNL     1      -8.886   5.324  69.255  1.00  0.00    -0.099 OA 
HETATM   13  C   UNL     1      -9.232   5.994  66.308  1.00  0.00    -0.168 C  
HETATM   14  C   UNL     1      -8.387   7.208  66.685  1.00  0.00    -0.114 C  
HETATM   15  O   UNL     1      -8.441   7.544  68.062  1.00  0.00    -0.123 OA 
ENDBRANCH   4   8
ENDBRANCH   3   4
TORSDOF 3
ENDMDL
MODEL      161
REMARK 921   NORMALIZED FREE ENERGY PREDICTED BY IDOCK:   -2.77 KCAL/MOL
REMARK 922        TOTAL FREE ENERGY PREDICTED BY IDOCK:   -3.49 KCAL/MOL
REMARK 923 INTER-LIGAND FREE ENERGY PREDICTED BY IDOCK:   -3.22 KCAL/MOL
REMARK 924 INTRA-LIGAND FREE ENERGY PREDICTED BY IDOCK:   -0.27 KCAL/MOL
REMARK 927      BINDING AFFINITY PREDICTED BY RF-SCORE:    0.00 PKD
ROOT
HETATM    1 CL   UNL     1     -12.807  11.231  70.894  1.00  0.00    -0.381 Cl 
HETATM    2  C   UNL     1     -11.594  11.975  69.807  1.00  0.00    -0.276 C  
HETATM    3  C   UNL     1     -11.875  11.557  68.359  1.00  0.00    -0.283 C  
ENDROOT
BRANCH   3   4
HETATM    4  N   UNL     1     -10.990  12.055  67.253  1.00  0.00    -0.248 NA 
BRANCH   4   5
HETATM    5  C   UNL     1     -10.092  13.106  67.790  1.00  0.00    -0.226 C  
HETATM    6 CL   UNL     1      -8.429  15.259  67.638  1.00  0.00    -0.161 Cl 
HETATM    7  C   UNL     1      -9.381  14.012  66.772  1.00  0.00    -0.277 C  
ENDBRANCH   4   5
BRANCH   4   8
HETATM    8  P   UNL     1     -10.252  10.744  66.530  1.00  0.00    -0.235 P  
HETATM    9  N   UNL     1      -8.816  10.522  67.273  1.00  0.00    -0.136 NA 
HETATM   10  H   UNL     1      -8.942  10.509  68.285  1.00  0.00     0.000 HD 
HETATM   11  C   UNL     1      -8.073   9.340  66.842  1.00  0.00    -0.108 C  
HETATM   12  O   UNL     1     -10.151  10.848  65.038  1.00  0.00    -0.260 OA 
HETATM   13  C   UNL     1      -8.962   8.286  66.167  1.00  0.00    -0.222 C  
HETATM   14  C   UNL     1     -10.339   8.163  66.814  1.00  0.00    -0.291 C  
HETATM   15  O   UNL     1     -11.023   9.398  66.958  1.00  0.00    -0.118 OA 
ENDBRANCH   4   8
ENDBRANCH   3   4
TORSDOF 3
ENDMDL
MODEL      162
REMARK 921   NORMALIZED FREE ENERGY PREDICTED BY IDOCK:   -2.75 KCAL/MOL
REMARK 922        TOTAL FREE ENERGY PREDICTED BY IDOCK:   -3.47 KCAL/MOL
REMARK 923 INTER-LIGAND FREE ENERGY PREDICTED BY IDOCK:   -3.26 KCAL/MOL
REMARK 924 INTRA-LIGAND FREE ENERGY PREDICTED BY IDOCK:   -0.21 KCAL/MOL
REMARK 927      BINDING AFFINITY PREDICTED BY RF-SCORE:    0.00 PKD
ROOT
HETATM    1 CL   UNL     1      -7.358   8.236  74.261  1.00  0.00    -0.227 Cl 
HETATM    2  C   UNL     1      -8.924   7.867  73.474  1.00  0.00    -0.281 C  
HETATM    3  C   UNL     1      -8.971   8.520  72.088  1.00  0.00    -0.230 C  
ENDROOT
BRANCH   3   4
HETATM    4  N   UNL     1     -10.188   8.354  71.225  1.00  0.00    -0.201 NA 
BRANCH   4   5
HETATM    5  C   UNL     1     -11.052   9.551  71.374  1.00  0.00    -0.368 C  
HETATM    6 CL   UNL     1     -13.347  10.891  71.971  1.00  0.00    -0.503 Cl 
HETATM    7  C   UNL     1     -12.522   9.315  71.755  1.00  0.00    -0.381 C  
ENDBRANCH   4   5
BRANCH   4   8
HETATM    8  P   UNL     1      -9.695   7.982  69.674  1.00  0.00    -0.173 P  
HETATM    9  N   UNL     1      -8.904   6.556  69.744  1.00  0.00    -0.142 NA 
HETATM   10  H   UNL     1      -9.460   5.869  70.253  1.00  0.00     0.000 HD 
HETATM   11  C   UNL     1      -8.492   6.013  68.452  1.00  0.00    -0.112 C  
HETATM   12  O   UNL     1      -8.916   9.073  69.004  1.00  0.00    -0.137 OA 
HETATM   13  C   UNL     1      -9.287   6.598  67.275  1.00  0.00    -0.144 C  
HETATM   14  C   UNL     1     -10.760   6.827  67.604  1.00  0.00    -0.288 C  
HETATM   15  O   UNL     1     -10.977   7.571  68.794  1.00  0.00    -0.075 OA 
ENDBRANCH   4   8
ENDBRANCH   3   4
TORSDOF 3
ENDMDL
MODEL      163
REMARK 921   NORMALIZED FREE ENERGY PREDICTED BY IDOCK:   -2.75 KCAL/MOL
REMARK 922        TOTAL FREE ENERGY PREDICTED BY IDOCK:   -3.47 KCAL/MOL
REMARK 923 INTER-LIGAND FREE ENERGY PREDICTED BY IDOCK:   -3.25 KCAL/MOL
REMARK 924 INTRA-LIGAND FREE ENERGY PREDICTED BY IDOCK:   -0.22 KCAL/MOL
REMARK 927      BINDING AFFINITY PREDICTED BY RF-SCORE:    0.00 PKD
ROOT
HETATM    1 CL   UNL     1     -10.166  10.449  65.310  1.00  0.00    -0.361 Cl 
HETATM    2  C   UNL     1      -9.384   9.626  66.695  1.00  0.00    -0.156 C  
HETATM    3  C   UNL     1     -10.433   8.828  67.479  1.00  0.00    -0.271 C  
ENDROOT
BRANCH   3   4
HETATM    4  N   UNL     1     -10.022   8.045  68.692  1.00  0.00    -0.183 NA 
BRANCH   4   5
HETATM    5  C   UNL     1     -10.872   8.449  69.838  1.00  0.00    -0.207 C  
HETATM    6 CL   UNL     1     -12.102  10.212  71.512  1.00  0.00    -0.463 Cl 
HETATM    7  C   UNL     1     -10.954   9.949  70.161  1.00  0.00    -0.301 C  
ENDBRANCH   4   5
BRANCH   4   8
HETATM    8  P   UNL     1     -10.021   6.421  68.302  1.00  0.00    -0.164 P  
HETATM    9  N   UNL     1      -8.524   6.050  67.766  1.00  0.00    -0.108 NA 
HETATM   10  H   UNL     1      -7.821   6.391  68.422  1.00  0.00     0.000 HD 
HETATM   11  C   UNL     1      -8.303   4.635  67.481  1.00  0.00    -0.104 C  
HETATM   12  O   UNL     1     -11.117   6.020  67.361  1.00  0.00    -0.302 OA 
HETATM   13  C   UNL     1      -9.310   3.716  68.187  1.00  0.00    -0.236 C  
HETATM   14  C   UNL     1      -9.671   4.193  69.591  1.00  0.00    -0.199 C  
HETATM   15  O   UNL     1     -10.080   5.551  69.653  1.00  0.00    -0.195 OA 
ENDBRANCH   4   8
ENDBRANCH   3   4
TORSDOF 3
ENDMDL
MODEL      164
REMARK 921   NORMALIZED FREE ENERGY PREDICTED BY IDOCK:   -2.75 KCAL/MOL
REMARK 922        TOTAL FREE ENERGY PREDICTED BY IDOCK:   -3.47 KCAL/MOL
REMARK 923 INTER-LIGAND FREE ENERGY PREDICTED BY IDOCK:   -3.34 KCAL/MOL
REMARK 924 INTRA-LIGAND FREE ENERGY PREDICTED BY IDOCK:   -0.13 KCAL/MOL
REMARK 927      BINDING AFFINITY PREDICTED BY RF-SCORE:    0.00 PKD
ROOT
HETATM    1 CL   UNL     1      -7.399  14.454  68.948  1.00  0.00    -0.124 Cl 
HETATM    2  C   UNL     1      -8.975  13.787  68.420  1.00  0.00    -0.166 C  
HETATM    3  C   UNL     1      -8.875  13.322  66.962  1.00  0.00    -0.212 C  
ENDROOT
BRANCH   3   4
HETATM    4  N   UNL     1     -10.073  12.720  66.287  1.00  0.00    -0.254 NA 
BRANCH   4   5
HETATM    5  C   UNL     1     -10.612  13.692  65.305  1.00  0.00    -0.346 C  
HETATM    6 CL   UNL     1     -11.218  16.168  64.346  1.00  0.00    -0.358 Cl 
HETATM    7  C   UNL     1     -10.616  15.174  65.710  1.00  0.00    -0.351 C  
ENDBRANCH   4   5
BRANCH   4   8
HETATM    8  P   UNL     1      -9.650  11.218  65.692  1.00  0.00    -0.241 P  
HETATM    9  N   UNL     1      -9.565  11.344  64.067  1.00  0.00    -0.349 NA 
HETATM   10  H   UNL     1      -8.992  12.147  63.806  1.00  0.00     0.000 HD 
HETATM   11  C   UNL     1      -9.095  10.144  63.378  1.00  0.00    -0.276 C  
HETATM   12  O   UNL     1     -10.534  10.104  66.167  1.00  0.00    -0.192 OA 
HETATM   13  C   UNL     1      -8.316   9.191  64.295  1.00  0.00    -0.178 C  
HETATM   14  C   UNL     1      -7.432   9.922  65.303  1.00  0.00    -0.131 C  
HETATM   15  O   UNL     1      -8.111  10.919  66.051  1.00  0.00    -0.159 OA 
ENDBRANCH   4   8
ENDBRANCH   3   4
TORSDOF 3
ENDMDL
MODEL      165
REMARK 921   NORMALIZED FREE ENERGY PREDICTED BY IDOCK:   -2.74 KCAL/MOL
REMARK 922        TOTAL FREE ENERGY PREDICTED BY IDOCK:   -3.46 KCAL/MOL
REMARK 923 INTER-LIGAND FREE ENERGY PREDICTED BY IDOCK:   -3.20 KCAL/MOL
REMARK 924 INTRA-LIGAND FREE ENERGY PREDICTED BY IDOCK:   -0.26 KCAL/MOL
REMARK 927      BINDING AFFINITY PREDICTED BY RF-SCORE:    0.00 PKD
ROOT
HETATM    1 CL   UNL     1     -10.288  10.409  65.504  1.00  0.00    -0.308 Cl 
HETATM    2  C   UNL     1      -9.477   9.364  66.712  1.00  0.00    -0.165 C  
HETATM    3  C   UNL     1     -10.517   8.476  67.405  1.00  0.00    -0.280 C  
ENDROOT
BRANCH   3   4
HETATM    4  N   UNL     1     -10.082   7.505  68.465  1.00  0.00    -0.179 NA 
BRANCH   4   5
HETATM    5  C   UNL     1     -11.009   7.603  69.619  1.00  0.00    -0.137 C  
HETATM    6 CL   UNL     1     -11.680   7.972  72.233  1.00  0.00    -0.398 Cl 
HETATM    7  C   UNL     1     -10.383   7.784  71.011  1.00  0.00    -0.202 C  
ENDBRANCH   4   5
BRANCH   4   8
HETATM    8  P   UNL     1      -9.918   5.996  67.769  1.00  0.00    -0.163 P  
HETATM    9  N   UNL     1     -10.871   5.964  66.444  1.00  0.00    -0.671 NA 
HETATM   10  H   UNL     1     -10.698   6.786  65.866  1.00  0.00     0.000 HD 
HETATM   11  C   UNL     1     -10.770   4.749  65.639  1.00  0.00    -0.141 C  
HETATM   12  O   UNL     1     -10.159   4.859  68.715  1.00  0.00    -0.161 OA 
HETATM   13  C   UNL     1      -9.471   3.970  65.889  1.00  0.00    -0.180 C  
HETATM   14  C   UNL     1      -8.263   4.878  66.107  1.00  0.00    -0.108 C  
HETATM   15  O   UNL     1      -8.462   5.879  67.094  1.00  0.00    -0.108 OA 
ENDBRANCH   4   8
ENDBRANCH   3   4
TORSDOF 3
ENDMDL
MODEL      166
REMARK 921   NORMALIZED FREE ENERGY PREDICTED BY IDOCK:   -2.74 KCAL/MOL
REMARK 922        TOTAL FREE ENERGY PREDICTED BY IDOCK:   -3.45 KCAL/MOL
REMARK 923 INTER-LIGAND FREE ENERGY PREDICTED BY IDOCK:   -3.34 KCAL/MOL
REMARK 924 INTRA-LIGAND FREE ENERGY PREDICTED BY IDOCK:   -0.11 KCAL/MOL
REMARK 927      BINDING AFFINITY PREDICTED BY RF-SCORE:    0.00 PKD
ROOT
HETATM    1 CL   UNL     1     -11.608   6.714  71.787  1.00  0.00    -0.327 Cl 
HETATM    2  C   UNL     1     -10.387   6.507  70.492  1.00  0.00    -0.201 C  
HETATM    3  C   UNL     1     -10.947   7.038  69.167  1.00  0.00    -0.158 C  
ENDROOT
BRANCH   3   4
HETATM    4  N   UNL     1     -10.107   6.977  67.924  1.00  0.00    -0.161 NA 
BRANCH   4   5
HETATM    5  C   UNL     1     -10.791   6.126  66.920  1.00  0.00    -0.335 C  
HETATM    6 CL   UNL     1     -10.946   4.219  64.982  1.00  0.00    -0.185 Cl 
HETATM    7  C   UNL     1      -9.910   5.217  66.050  1.00  0.00    -0.163 C  
ENDBRANCH   4   5
BRANCH   4   8
HETATM    8  P   UNL     1      -9.741   8.536  67.452  1.00  0.00    -0.204 P  
HETATM    9  N   UNL     1      -9.736   8.563  65.820  1.00  0.00    -0.448 NA 
HETATM   10  H   UNL     1     -10.589   8.135  65.459  1.00  0.00     0.000 HD 
HETATM   11  C   UNL     1      -9.542   9.883  65.224  1.00  0.00    -0.295 C  
HETATM   12  O   UNL     1      -8.488   9.081  68.070  1.00  0.00    -0.123 OA 
HETATM   13  C   UNL     1      -9.871  11.031  66.188  1.00  0.00    -0.268 C  
HETATM   14  C   UNL     1     -11.074  10.735  67.081  1.00  0.00    -0.227 C  
HETATM   15  O   UNL     1     -10.995   9.494  67.765  1.00  0.00    -0.244 OA 
ENDBRANCH   4   8
ENDBRANCH   3   4
TORSDOF 3
ENDMDL
MODEL      167
REMARK 921   NORMALIZED FREE ENERGY PREDICTED BY IDOCK:   -2.71 KCAL/MOL
REMARK 922        TOTAL FREE ENERGY PREDICTED BY IDOCK:   -3.43 KCAL/MOL
REMARK 923 INTER-LIGAND FREE ENERGY PREDICTED BY IDOCK:   -3.17 KCAL/MOL
REMARK 924 INTRA-LIGAND FREE ENERGY PREDICTED BY IDOCK:   -0.26 KCAL/MOL
REMARK 927      BINDING AFFINITY PREDICTED BY RF-SCORE:    0.00 PKD
ROOT
HETATM    1 CL   UNL     1      -8.911   8.403  72.129  1.00  0.00    -0.271 Cl 
HETATM    2  C   UNL     1     -10.131   8.624  70.836  1.00  0.00    -0.211 C  
HETATM    3  C   UNL     1      -9.740   9.817  69.956  1.00  0.00    -0.250 C  
ENDROOT
BRANCH   3   4
HETATM    4  N   UNL     1     -10.609  10.205  68.796  1.00  0.00    -0.203 NA 
BRANCH   4   5
HETATM    5  C   UNL     1     -10.636  11.684  68.687  1.00  0.00    -0.209 C  
HETATM    6 CL   UNL     1     -11.789  14.152  68.743  1.00  0.00    -0.372 Cl 
HETATM    7  C   UNL     1     -12.004  12.374  68.809  1.00  0.00    -0.229 C  
ENDBRANCH   4   5
BRANCH   4   8
HETATM    8  P   UNL     1     -10.097   9.370  67.443  1.00  0.00    -0.249 P  
HETATM    9  N   UNL     1     -10.035  10.434  66.207  1.00  0.00    -0.216 NA 
HETATM   10  H   UNL     1      -9.518  11.268  66.486  1.00  0.00     0.000 HD 
HETATM   11  C   UNL     1      -9.497   9.900  64.958  1.00  0.00    -0.280 C  
HETATM   12  O   UNL     1     -10.903   8.142  67.145  1.00  0.00    -0.261 OA 
HETATM   13  C   UNL     1      -8.650   8.636  65.162  1.00  0.00    -0.200 C  
HETATM   14  C   UNL     1      -7.804   8.683  66.432  1.00  0.00    -0.099 C  
HETATM   15  O   UNL     1      -8.538   9.005  67.603  1.00  0.00    -0.120 OA 
ENDBRANCH   4   8
ENDBRANCH   3   4
TORSDOF 3
ENDMDL
MODEL      168
REMARK 921   NORMALIZED FREE ENERGY PREDICTED BY IDOCK:   -2.71 KCAL/MOL
REMARK 922        TOTAL FREE ENERGY PREDICTED BY IDOCK:   -3.42 KCAL/MOL
REMARK 923 INTER-LIGAND FREE ENERGY PREDICTED BY IDOCK:   -3.17 KCAL/MOL
REMARK 924 INTRA-LIGAND FREE ENERGY PREDICTED BY IDOCK:   -0.26 KCAL/MOL
REMARK 927      BINDING AFFINITY PREDICTED BY RF-SCORE:    0.00 PKD
ROOT
HETATM    1 CL   UNL     1      -8.280  10.300  68.053  1.00  0.00    -0.112 Cl 
HETATM    2  C   UNL     1      -9.905   9.621  68.382  1.00  0.00    -0.153 C  
HETATM    3  C   UNL     1      -9.766   8.207  68.958  1.00  0.00    -0.163 C  
ENDROOT
BRANCH   3   4
HETATM    4  N   UNL     1     -10.994   7.424  69.319  1.00  0.00    -0.132 NA 
BRANCH   4   5
HETATM    5  C   UNL     1     -10.948   6.111  68.632  1.00  0.00    -0.336 C  
HETATM    6 CL   UNL     1      -9.972   4.258  66.889  1.00  0.00    -0.226 Cl 
HETATM    7  C   UNL     1      -9.914   5.939  67.508  1.00  0.00    -0.143 C  
ENDBRANCH   4   5
BRANCH   4   8
HETATM    8  P   UNL     1     -11.133   7.389  70.983  1.00  0.00    -0.270 P  
HETATM    9  N   UNL     1     -10.778   5.871  71.469  1.00  0.00    -0.248 NA 
HETATM   10  H   UNL     1      -9.900   5.564  71.050  1.00  0.00     0.000 HD 
HETATM   11  C   UNL     1     -10.740   5.680  72.917  1.00  0.00    -0.248 C  
HETATM   12  O   UNL     1     -12.448   7.895  71.495  1.00  0.00    -0.304 OA 
HETATM   13  C   UNL     1     -10.547   6.991  73.691  1.00  0.00    -0.383 C  
HETATM   14  C   UNL     1      -9.594   7.961  72.996  1.00  0.00    -0.276 C  
HETATM   15  O   UNL     1      -9.912   8.207  71.635  1.00  0.00    -0.172 OA 
ENDBRANCH   4   8
ENDBRANCH   3   4
TORSDOF 3
ENDMDL
MODEL      169
REMARK 921   NORMALIZED FREE ENERGY PREDICTED BY IDOCK:   -2.71 KCAL/MOL
REMARK 922        TOTAL FREE ENERGY PREDICTED BY IDOCK:   -3.42 KCAL/MOL
REMARK 923 INTER-LIGAND FREE ENERGY PREDICTED BY IDOCK:   -3.23 KCAL/MOL
REMARK 924 INTRA-LIGAND FREE ENERGY PREDICTED BY IDOCK:   -0.19 KCAL/MOL
REMARK 927      BINDING AFFINITY PREDICTED BY RF-SCORE:    0.00 PKD
ROOT
HETATM    1 CL   UNL     1      -6.431  19.691  69.056  1.00  0.00    -0.333 Cl 
HETATM    2  C   UNL     1      -6.496  18.110  68.217  1.00  0.00    -0.196 C  
HETATM    3  C   UNL     1      -7.402  17.150  68.997  1.00  0.00    -0.217 C  
ENDROOT
BRANCH   3   4
HETATM    4  N   UNL     1      -7.620  15.753  68.492  1.00  0.00    -0.133 NA 
BRANCH   4   5
HETATM    5  C   UNL     1      -7.128  14.791  69.508  1.00  0.00    -0.172 C  
HETATM    6 CL   UNL     1      -5.423  13.857  71.416  1.00  0.00    -0.199 Cl 
HETATM    7  C   UNL     1      -5.771  15.091  70.164  1.00  0.00    -0.133 C  
ENDBRANCH   4   5
BRANCH   4   8
HETATM    8  P   UNL     1      -9.217  15.597  68.031  1.00  0.00    -0.185 P  
HETATM    9  N   UNL     1      -9.300  15.943  66.438  1.00  0.00    -0.270 NA 
HETATM   10  H   UNL     1      -8.595  15.414  65.926  1.00  0.00     0.000 HD 
HETATM   11  C   UNL     1     -10.615  15.749  65.832  1.00  0.00    -0.339 C  
HETATM   12  O   UNL     1     -10.174  16.388  68.872  1.00  0.00    -0.228 OA 
HETATM   13  C   UNL     1     -11.519  14.812  66.645  1.00  0.00    -0.339 C  
HETATM   14  C   UNL     1     -10.759  13.647  67.275  1.00  0.00    -0.279 C  
HETATM   15  O   UNL     1      -9.617  14.039  68.022  1.00  0.00    -0.204 OA 
ENDBRANCH   4   8
ENDBRANCH   3   4
TORSDOF 3
ENDMDL
MODEL      170
REMARK 921   NORMALIZED FREE ENERGY PREDICTED BY IDOCK:   -2.69 KCAL/MOL
REMARK 922        TOTAL FREE ENERGY PREDICTED BY IDOCK:   -3.40 KCAL/MOL
REMARK 923 INTER-LIGAND FREE ENERGY PREDICTED BY IDOCK:   -3.35 KCAL/MOL
REMARK 924 INTRA-LIGAND FREE ENERGY PREDICTED BY IDOCK:   -0.05 KCAL/MOL
REMARK 927      BINDING AFFINITY PREDICTED BY RF-SCORE:    0.00 PKD
ROOT
HETATM    1 CL   UNL     1     -12.226  14.168  66.979  1.00  0.00    -0.441 Cl 
HETATM    2  C   UNL     1     -11.178  15.523  67.504  1.00  0.00    -0.272 C  
HETATM    3  C   UNL     1     -10.842  16.411  66.300  1.00  0.00    -0.066 C  
ENDROOT
BRANCH   3   4
HETATM    4  N   UNL     1      -9.972  17.620  66.484  1.00  0.00    -0.317 NA 
BRANCH   4   5
HETATM    5  C   UNL     1     -10.454  18.387  67.658  1.00  0.00    -0.419 C  
HETATM    6 CL   UNL     1     -10.643  20.559  69.292  1.00  0.00     0.146 Cl 
HETATM    7  C   UNL     1      -9.853  19.784  67.882  1.00  0.00    -0.404 C  
ENDBRANCH   4   5
BRANCH   4   8
HETATM    8  P   UNL     1      -8.377  17.128  66.520  1.00  0.00    -0.286 P  
HETATM    9  N   UNL     1      -7.511  18.222  65.673  1.00  0.00    -0.544 NA 
HETATM   10  H   UNL     1      -7.733  19.166  65.987  1.00  0.00     0.000 HD 
HETATM   11  C   UNL     1      -6.065  18.012  65.690  1.00  0.00    -0.209 C  
HETATM   12  O   UNL     1      -8.166  15.713  66.074  1.00  0.00     0.038 OA 
HETATM   13  C   UNL     1      -5.599  17.141  66.865  1.00  0.00    -0.215 C  
HETATM   14  C   UNL     1      -6.375  17.409  68.152  1.00  0.00    -0.167 C  
HETATM   15  O   UNL     1      -7.785  17.356  67.998  1.00  0.00    -0.191 OA 
ENDBRANCH   4   8
ENDBRANCH   3   4
TORSDOF 3
ENDMDL
MODEL      171
REMARK 921   NORMALIZED FREE ENERGY PREDICTED BY IDOCK:   -2.69 KCAL/MOL
REMARK 922        TOTAL FREE ENERGY PREDICTED BY IDOCK:   -3.40 KCAL/MOL
REMARK 923 INTER-LIGAND FREE ENERGY PREDICTED BY IDOCK:   -3.16 KCAL/MOL
REMARK 924 INTRA-LIGAND FREE ENERGY PREDICTED BY IDOCK:   -0.23 KCAL/MOL
REMARK 927      BINDING AFFINITY PREDICTED BY RF-SCORE:    0.00 PKD
ROOT
HETATM    1 CL   UNL     1      -6.532  18.922  65.220  1.00  0.00    -0.311 Cl 
HETATM    2  C   UNL     1      -6.245  17.945  66.693  1.00  0.00    -0.168 C  
HETATM    3  C   UNL     1      -7.329  16.868  66.817  1.00  0.00    -0.237 C  
ENDROOT
BRANCH   3   4
HETATM    4  N   UNL     1      -7.306  15.914  67.976  1.00  0.00    -0.126 NA 
BRANCH   4   5
HETATM    5  C   UNL     1      -6.845  16.637  69.186  1.00  0.00    -0.224 C  
HETATM    6 CL   UNL     1      -5.211  17.122  71.311  1.00  0.00    -0.130 Cl 
HETATM    7  C   UNL     1      -5.651  16.043  69.950  1.00  0.00    -0.154 C  
ENDBRANCH   4   5
BRANCH   4   8
HETATM    8  P   UNL     1      -8.794  15.164  68.079  1.00  0.00    -0.179 P  
HETATM    9  N   UNL     1      -9.805  16.191  68.847  1.00  0.00    -0.227 NA 
HETATM   10  H   UNL     1      -9.757  17.116  68.421  1.00  0.00     0.000 HD 
HETATM   11  C   UNL     1     -11.193  15.744  68.930  1.00  0.00    -0.332 C  
HETATM   12  O   UNL     1      -8.745  13.795  68.687  1.00  0.00    -0.147 OA 
HETATM   13  C   UNL     1     -11.544  14.676  67.883  1.00  0.00    -0.373 C  
HETATM   14  C   UNL     1     -10.869  14.917  66.535  1.00  0.00    -0.322 C  
HETATM   15  O   UNL     1      -9.467  15.117  66.618  1.00  0.00    -0.233 OA 
ENDBRANCH   4   8
ENDBRANCH   3   4
TORSDOF 3
ENDMDL
MODEL      172
REMARK 921   NORMALIZED FREE ENERGY PREDICTED BY IDOCK:   -2.69 KCAL/MOL
REMARK 922        TOTAL FREE ENERGY PREDICTED BY IDOCK:   -3.39 KCAL/MOL
REMARK 923 INTER-LIGAND FREE ENERGY PREDICTED BY IDOCK:   -3.16 KCAL/MOL
REMARK 924 INTRA-LIGAND FREE ENERGY PREDICTED BY IDOCK:   -0.23 KCAL/MOL
REMARK 927      BINDING AFFINITY PREDICTED BY RF-SCORE:    0.00 PKD
ROOT
HETATM    1 CL   UNL     1     -10.557   7.734  67.113  1.00  0.00    -0.413 Cl 
HETATM    2  C   UNL     1     -10.605   8.736  68.597  1.00  0.00    -0.139 C  
HETATM    3  C   UNL     1     -10.448   7.839  69.830  1.00  0.00    -0.233 C  
ENDROOT
BRANCH   3   4
HETATM    4  N   UNL     1     -10.455   8.448  71.202  1.00  0.00    -0.205 NA 
BRANCH   4   5
HETATM    5  C   UNL     1     -11.797   8.262  71.806  1.00  0.00    -0.306 C  
HETATM    6 CL   UNL     1     -14.375   8.937  72.369  1.00  0.00    -0.474 Cl 
HETATM    7  C   UNL     1     -12.804   9.413  71.651  1.00  0.00    -0.378 C  
ENDBRANCH   4   5
BRANCH   4   8
HETATM    8  P   UNL     1      -9.161   7.836  72.062  1.00  0.00    -0.170 P  
HETATM    9  N   UNL     1      -9.500   6.277  72.409  1.00  0.00    -0.145 NA 
HETATM   10  H   UNL     1      -9.797   5.786  71.566  1.00  0.00     0.000 HD 
HETATM   11  C   UNL     1      -8.423   5.542  73.068  1.00  0.00    -0.118 C  
HETATM   12  O   UNL     1      -8.785   8.654  73.261  1.00  0.00    -0.352 OA 
HETATM   13  C   UNL     1      -7.045   6.189  72.869  1.00  0.00    -0.080 C  
HETATM   14  C   UNL     1      -6.861   6.782  71.474  1.00  0.00    -0.066 C  
HETATM   15  O   UNL     1      -7.904   7.657  71.075  1.00  0.00    -0.087 OA 
ENDBRANCH   4   8
ENDBRANCH   3   4
TORSDOF 3
ENDMDL
MODEL      173
REMARK 921   NORMALIZED FREE ENERGY PREDICTED BY IDOCK:   -2.66 KCAL/MOL
REMARK 922        TOTAL FREE ENERGY PREDICTED BY IDOCK:   -3.37 KCAL/MOL
REMARK 923 INTER-LIGAND FREE ENERGY PREDICTED BY IDOCK:   -3.14 KCAL/MOL
REMARK 924 INTRA-LIGAND FREE ENERGY PREDICTED BY IDOCK:   -0.23 KCAL/MOL
REMARK 927      BINDING AFFINITY PREDICTED BY RF-SCORE:    0.00 PKD
ROOT
HETATM    1 CL   UNL     1     -11.181  11.881  66.506  1.00  0.00    -0.363 Cl 
HETATM    2  C   UNL     1     -11.270  10.676  67.828  1.00  0.00    -0.313 C  
HETATM    3  C   UNL     1     -10.227  11.010  68.901  1.00  0.00    -0.203 C  
ENDROOT
BRANCH   3   4
HETATM    4  N   UNL     1     -10.104  10.142  70.119  1.00  0.00    -0.211 NA 
BRANCH   4   5
HETATM    5  C   UNL     1     -11.394   9.446  70.348  1.00  0.00    -0.248 C  
HETATM    6 CL   UNL     1     -13.821   9.046  71.519  1.00  0.00    -0.409 Cl 
HETATM    7  C   UNL     1     -12.285   9.968  71.486  1.00  0.00    -0.405 C  
ENDBRANCH   4   5
BRANCH   4   8
HETATM    8  P   UNL     1      -8.756   9.172  69.948  1.00  0.00    -0.199 P  
HETATM    9  N   UNL     1      -7.741   9.529  71.176  1.00  0.00    -0.302 NA 
HETATM   10  H   UNL     1      -8.242   9.509  72.064  1.00  0.00     0.000 HD 
HETATM   11  C   UNL     1      -6.545   8.692  71.252  1.00  0.00    -0.069 C  
HETATM   12  O   UNL     1      -8.117   9.249  68.594  1.00  0.00    -0.102 OA 
HETATM   13  C   UNL     1      -6.698   7.358  70.508  1.00  0.00    -0.047 C  
HETATM   14  C   UNL     1      -8.095   6.756  70.641  1.00  0.00    -0.119 C  
HETATM   15  O   UNL     1      -9.144   7.654  70.312  1.00  0.00    -0.149 OA 
ENDBRANCH   4   8
ENDBRANCH   3   4
TORSDOF 3
ENDMDL
MODEL      174
REMARK 921   NORMALIZED FREE ENERGY PREDICTED BY IDOCK:   -2.65 KCAL/MOL
REMARK 922        TOTAL FREE ENERGY PREDICTED BY IDOCK:   -3.36 KCAL/MOL
REMARK 923 INTER-LIGAND FREE ENERGY PREDICTED BY IDOCK:   -3.15 KCAL/MOL
REMARK 924 INTRA-LIGAND FREE ENERGY PREDICTED BY IDOCK:   -0.20 KCAL/MOL
REMARK 927      BINDING AFFINITY PREDICTED BY RF-SCORE:    0.00 PKD
ROOT
HETATM    1 CL   UNL     1     -10.126   8.692  66.609  1.00  0.00    -0.357 Cl 
HETATM    2  C   UNL     1     -10.288   8.935  68.376  1.00  0.00    -0.200 C  
HETATM    3  C   UNL     1     -10.440   7.576  69.071  1.00  0.00    -0.208 C  
ENDROOT
BRANCH   3   4
HETATM    4  N   UNL     1     -10.591   7.514  70.563  1.00  0.00    -0.221 NA 
BRANCH   4   5
HETATM    5  C   UNL     1     -12.021   7.699  70.911  1.00  0.00    -0.229 C  
HETATM    6 CL   UNL     1     -14.127   8.834  72.214  1.00  0.00    -0.507 Cl 
HETATM    7  C   UNL     1     -12.350   8.702  72.028  1.00  0.00    -0.371 C  
ENDBRANCH   4   5
BRANCH   4   8
HETATM    8  P   UNL     1      -9.867   6.114  71.113  1.00  0.00    -0.186 P  
HETATM    9  N   UNL     1      -8.252   6.325  71.002  1.00  0.00    -0.121 NA 
HETATM   10  H   UNL     1      -7.983   7.210  71.431  1.00  0.00     0.000 HD 
HETATM   11  C   UNL     1      -7.448   5.234  71.548  1.00  0.00    -0.096 C  
HETATM   12  O   UNL     1     -10.362   4.868  70.443  1.00  0.00    -0.246 OA 
HETATM   13  C   UNL     1      -8.221   4.357  72.543  1.00  0.00    -0.105 C  
HETATM   14  C   UNL     1      -9.175   5.157  73.428  1.00  0.00    -0.130 C  
HETATM   15  O   UNL     1     -10.048   6.014  72.709  1.00  0.00    -0.178 OA 
ENDBRANCH   4   8
ENDBRANCH   3   4
TORSDOF 3
ENDMDL
MODEL      175
REMARK 921   NORMALIZED FREE ENERGY PREDICTED BY IDOCK:   -2.65 KCAL/MOL
REMARK 922        TOTAL FREE ENERGY PREDICTED BY IDOCK:   -3.35 KCAL/MOL
REMARK 923 INTER-LIGAND FREE ENERGY PREDICTED BY IDOCK:   -3.12 KCAL/MOL
REMARK 924 INTRA-LIGAND FREE ENERGY PREDICTED BY IDOCK:   -0.24 KCAL/MOL
REMARK 927      BINDING AFFINITY PREDICTED BY RF-SCORE:    0.00 PKD
ROOT
HETATM    1 CL   UNL     1     -11.865  12.217  66.487  1.00  0.00    -0.423 Cl 
HETATM    2  C   UNL     1     -10.950  10.874  67.241  1.00  0.00    -0.294 C  
HETATM    3  C   UNL     1     -10.640  11.218  68.703  1.00  0.00    -0.202 C  
ENDROOT
BRANCH   3   4
HETATM    4  N   UNL     1      -9.878  10.245  69.554  1.00  0.00    -0.231 NA 
BRANCH   4   5
HETATM    5  C   UNL     1     -10.453   8.890  69.370  1.00  0.00    -0.222 C  
HETATM    6 CL   UNL     1     -11.618   6.562  70.174  1.00  0.00    -0.478 Cl 
HETATM    7  C   UNL     1     -10.868   8.123  70.636  1.00  0.00    -0.233 C  
ENDBRANCH   4   5
BRANCH   4   8
HETATM    8  P   UNL     1      -8.250  10.412  69.226  1.00  0.00    -0.107 P  
HETATM    9  N   UNL     1      -7.968  11.997  68.956  1.00  0.00    -0.346 NA 
HETATM   10  H   UNL     1      -8.371  12.559  69.705  1.00  0.00     0.000 HD 
HETATM   11  C   UNL     1      -6.564  12.350  68.760  1.00  0.00    -0.088 C  
HETATM   12  O   UNL     1      -7.753   9.514  68.133  1.00  0.00    -0.083 OA 
HETATM   13  C   UNL     1      -5.596  11.300  69.324  1.00  0.00    -0.041 C  
HETATM   14  C   UNL     1      -6.082  10.682  70.633  1.00  0.00    -0.075 C  
HETATM   15  O   UNL     1      -7.410  10.184  70.579  1.00  0.00    -0.292 OA 
ENDBRANCH   4   8
ENDBRANCH   3   4
TORSDOF 3
ENDMDL
MODEL      176
REMARK 921   NORMALIZED FREE ENERGY PREDICTED BY IDOCK:   -2.61 KCAL/MOL
REMARK 922        TOTAL FREE ENERGY PREDICTED BY IDOCK:   -3.31 KCAL/MOL
REMARK 923 INTER-LIGAND FREE ENERGY PREDICTED BY IDOCK:   -3.71 KCAL/MOL
REMARK 924 INTRA-LIGAND FREE ENERGY PREDICTED BY IDOCK:    0.40 KCAL/MOL
REMARK 927      BINDING AFFINITY PREDICTED BY RF-SCORE:    0.00 PKD
ROOT
HETATM    1 CL   UNL     1     -10.170  18.083  66.267  1.00  0.00    -0.380 Cl 
HETATM    2  C   UNL     1     -10.281  16.794  67.505  1.00  0.00    -0.289 C  
HETATM    3  C   UNL     1      -9.775  15.471  66.918  1.00  0.00    -0.233 C  
ENDROOT
BRANCH   3   4
HETATM    4  N   UNL     1      -9.767  14.233  67.767  1.00  0.00    -0.218 NA 
BRANCH   4   5
HETATM    5  C   UNL     1      -8.434  14.093  68.403  1.00  0.00    -0.170 C  
HETATM    6 CL   UNL     1      -5.990  12.962  68.811  1.00  0.00    -0.068 Cl 
HETATM    7  C   UNL     1      -7.584  12.879  67.997  1.00  0.00    -0.137 C  
ENDBRANCH   4   5
BRANCH   4   8
HETATM    8  P   UNL     1     -11.081  14.283  68.796  1.00  0.00    -0.281 P  
HETATM    9  N   UNL     1     -11.084  12.893  69.651  1.00  0.00    -0.472 NA 
HETATM   10  H   UNL     1     -10.162  12.724  70.051  1.00  0.00     0.000 HD 
HETATM   11  C   UNL     1     -12.108  12.808  70.689  1.00  0.00    -0.228 C  
HETATM   12  O   UNL     1     -12.381  14.574  68.109  1.00  0.00    -0.159 OA 
HETATM   13  C   UNL     1     -12.647  14.181  71.114  1.00  0.00    -0.439 C  
HETATM   14  C   UNL     1     -11.568  15.260  71.154  1.00  0.00    -0.370 C  
HETATM   15  O   UNL     1     -10.800  15.353  69.964  1.00  0.00    -0.264 OA 
ENDBRANCH   4   8
ENDBRANCH   3   4
TORSDOF 3
ENDMDL
MODEL      177
REMARK 921   NORMALIZED FREE ENERGY PREDICTED BY IDOCK:   -2.59 KCAL/MOL
REMARK 922        TOTAL FREE ENERGY PREDICTED BY IDOCK:   -3.28 KCAL/MOL
REMARK 923 INTER-LIGAND FREE ENERGY PREDICTED BY IDOCK:   -3.10 KCAL/MOL
REMARK 924 INTRA-LIGAND FREE ENERGY PREDICTED BY IDOCK:   -0.18 KCAL/MOL
REMARK 927      BINDING AFFINITY PREDICTED BY RF-SCORE:    0.00 PKD
ROOT
HETATM    1 CL   UNL     1      -9.293   3.502  66.736  1.00  0.00    -0.204 Cl 
HETATM    2  C   UNL     1     -10.404   4.894  66.925  1.00  0.00    -0.186 C  
HETATM    3  C   UNL     1     -10.035   5.680  68.188  1.00  0.00    -0.147 C  
ENDROOT
BRANCH   3   4
HETATM    4  N   UNL     1     -10.824   6.900  68.565  1.00  0.00    -0.204 NA 
BRANCH   4   5
HETATM    5  C   UNL     1     -11.122   6.853  70.017  1.00  0.00    -0.299 C  
HETATM    6 CL   UNL     1     -10.856   5.947  72.573  1.00  0.00    -0.270 Cl 
HETATM    7  C   UNL     1     -10.428   5.758  70.843  1.00  0.00    -0.252 C  
ENDBRANCH   4   5
BRANCH   4   8
HETATM    8  P   UNL     1     -10.011   8.251  68.016  1.00  0.00    -0.202 P  
HETATM    9  N   UNL     1     -11.123   9.420  67.766  1.00  0.00    -0.487 NA 
HETATM   10  H   UNL     1     -11.723   9.516  68.585  1.00  0.00     0.000 HD 
HETATM   11  C   UNL     1     -10.577  10.721  67.386  1.00  0.00    -0.242 C  
HETATM   12  O   UNL     1      -9.129   7.992  66.832  1.00  0.00    -0.139 OA 
HETATM   13  C   UNL     1      -9.099  10.886  67.768  1.00  0.00    -0.149 C  
HETATM   14  C   UNL     1      -8.754  10.245  69.109  1.00  0.00    -0.172 C  
HETATM   15  O   UNL     1      -9.169   8.892  69.227  1.00  0.00    -0.143 OA 
ENDBRANCH   4   8
ENDBRANCH   3   4
TORSDOF 3
ENDMDL
MODEL      178
REMARK 921   NORMALIZED FREE ENERGY PREDICTED BY IDOCK:   -2.58 KCAL/MOL
REMARK 922        TOTAL FREE ENERGY PREDICTED BY IDOCK:   -3.27 KCAL/MOL
REMARK 923 INTER-LIGAND FREE ENERGY PREDICTED BY IDOCK:   -3.03 KCAL/MOL
REMARK 924 INTRA-LIGAND FREE ENERGY PREDICTED BY IDOCK:   -0.24 KCAL/MOL
REMARK 927      BINDING AFFINITY PREDICTED BY RF-SCORE:    0.00 PKD
ROOT
HETATM    1 CL   UNL     1      -8.417   8.083  74.138  1.00  0.00    -0.319 Cl 
HETATM    2  C   UNL     1      -8.970   7.627  72.497  1.00  0.00    -0.142 C  
HETATM    3  C   UNL     1      -8.383   8.599  71.467  1.00  0.00    -0.166 C  
ENDROOT
BRANCH   3   4
HETATM    4  N   UNL     1      -8.701   8.424  70.010  1.00  0.00    -0.131 NA 
BRANCH   4   5
HETATM    5  C   UNL     1      -9.466   7.167  69.830  1.00  0.00    -0.153 C  
HETATM    6 CL   UNL     1      -9.815   4.555  69.138  1.00  0.00    -0.247 Cl 
HETATM    7  C   UNL     1      -8.738   5.987  69.167  1.00  0.00    -0.120 C  
ENDBRANCH   4   5
BRANCH   4   8
HETATM    8  P   UNL     1      -9.424   9.822  69.452  1.00  0.00    -0.225 P  
HETATM    9  N   UNL     1     -10.203   9.447  68.067  1.00  0.00    -0.192 NA 
HETATM   10  H   UNL     1     -10.786   8.622  68.203  1.00  0.00     0.000 HD 
HETATM   11  C   UNL     1     -10.992  10.533  67.489  1.00  0.00    -0.303 C  
HETATM   12  O   UNL     1      -8.485  10.984  69.322  1.00  0.00    -0.075 OA 
HETATM   13  C   UNL     1     -11.345  11.627  68.507  1.00  0.00    -0.332 C  
HETATM   14  C   UNL     1     -11.658  11.072  69.895  1.00  0.00    -0.337 C  
HETATM   15  O   UNL     1     -10.666  10.194  70.404  1.00  0.00    -0.291 OA 
ENDBRANCH   4   8
ENDBRANCH   3   4
TORSDOF 3
ENDMDL
MODEL      179
REMARK 921   NORMALIZED FREE ENERGY PREDICTED BY IDOCK:   -2.58 KCAL/MOL
REMARK 922        TOTAL FREE ENERGY PREDICTED BY IDOCK:   -3.27 KCAL/MOL
REMARK 923 INTER-LIGAND FREE ENERGY PREDICTED BY IDOCK:   -3.07 KCAL/MOL
REMARK 924 INTRA-LIGAND FREE ENERGY PREDICTED BY IDOCK:   -0.20 KCAL/MOL
REMARK 927      BINDING AFFINITY PREDICTED BY RF-SCORE:    0.00 PKD
ROOT
HETATM    1 CL   UNL     1      -5.530  11.201  70.770  1.00  0.00    -0.123 Cl 
HETATM    2  C   UNL     1      -6.496  10.215  69.629  1.00  0.00    -0.062 C  
HETATM    3  C   UNL     1      -7.885   9.953  70.223  1.00  0.00    -0.129 C  
ENDROOT
BRANCH   3   4
HETATM    4  N   UNL     1      -8.887   9.145  69.451  1.00  0.00    -0.141 NA 
BRANCH   4   5
HETATM    5  C   UNL     1      -9.391   8.048  70.313  1.00  0.00    -0.159 C  
HETATM    6 CL   UNL     1     -10.368   5.561  70.842  1.00  0.00    -0.294 Cl 
HETATM    7  C   UNL     1      -9.900   6.778  69.613  1.00  0.00    -0.165 C  
ENDBRANCH   4   5
BRANCH   4   8
HETATM    8  P   UNL     1     -10.034  10.181  68.819  1.00  0.00    -0.202 P  
HETATM    9  N   UNL     1     -10.979  10.673  70.056  1.00  0.00    -0.393 NA 
HETATM   10  H   UNL     1     -10.403  11.003  70.830  1.00  0.00     0.000 HD 
HETATM   11  C   UNL     1     -11.979  11.680  69.707  1.00  0.00    -0.332 C  
HETATM   12  O   UNL     1     -10.799   9.611  67.663  1.00  0.00    -0.282 OA 
HETATM   13  C   UNL     1     -11.643  12.436  68.413  1.00  0.00    -0.373 C  
HETATM   14  C   UNL     1     -10.150  12.714  68.255  1.00  0.00    -0.233 C  
HETATM   15  O   UNL     1      -9.328  11.568  68.410  1.00  0.00    -0.186 OA 
ENDBRANCH   4   8
ENDBRANCH   3   4
TORSDOF 3
ENDMDL
MODEL      180
REMARK 921   NORMALIZED FREE ENERGY PREDICTED BY IDOCK:   -2.50 KCAL/MOL
REMARK 922        TOTAL FREE ENERGY PREDICTED BY IDOCK:   -3.17 KCAL/MOL
REMARK 923 INTER-LIGAND FREE ENERGY PREDICTED BY IDOCK:   -2.91 KCAL/MOL
REMARK 924 INTRA-LIGAND FREE ENERGY PREDICTED BY IDOCK:   -0.26 KCAL/MOL
REMARK 927      BINDING AFFINITY PREDICTED BY RF-SCORE:    0.00 PKD
ROOT
HETATM    1 CL   UNL     1      -7.471   8.025  70.519  1.00  0.00    -0.070 Cl 
HETATM    2  C   UNL     1      -8.654   7.902  69.180  1.00  0.00    -0.138 C  
HETATM    3  C   UNL     1      -9.030   9.306  68.692  1.00  0.00    -0.132 C  
ENDROOT
BRANCH   3   4
HETATM    4  N   UNL     1     -10.011   9.468  67.568  1.00  0.00    -0.175 NA 
BRANCH   4   5
HETATM    5  C   UNL     1     -11.034  10.467  67.961  1.00  0.00    -0.291 C  
HETATM    6 CL   UNL     1     -11.926  12.844  68.947  1.00  0.00    -0.326 Cl 
HETATM    7  C   UNL     1     -10.540  11.749  68.649  1.00  0.00    -0.223 C  
ENDBRANCH   4   5
BRANCH   4   8
HETATM    8  P   UNL     1      -9.164   9.784  66.164  1.00  0.00    -0.206 P  
HETATM    9  N   UNL     1      -8.864   8.350  65.443  1.00  0.00    -0.335 NA 
HETATM   10  H   UNL     1      -9.721   7.803  65.378  1.00  0.00     0.000 HD 
HETATM   11  C   UNL     1      -8.222   8.439  64.134  1.00  0.00    -0.119 C  
HETATM   12  O   UNL     1      -7.941  10.627  66.366  1.00  0.00    -0.130 OA 
HETATM   13  C   UNL     1      -8.398   9.813  63.471  1.00  0.00    -0.168 C  
HETATM   14  C   UNL     1      -9.774  10.425  63.721  1.00  0.00    -0.290 C  
HETATM   15  O   UNL     1     -10.151  10.459  65.088  1.00  0.00    -0.303 OA 
ENDBRANCH   4   8
ENDBRANCH   3   4
TORSDOF 3
ENDMDL
MODEL      181
REMARK 921   NORMALIZED FREE ENERGY PREDICTED BY IDOCK:   -2.48 KCAL/MOL
REMARK 922        TOTAL FREE ENERGY PREDICTED BY IDOCK:   -3.15 KCAL/MOL
REMARK 923 INTER-LIGAND FREE ENERGY PREDICTED BY IDOCK:   -3.07 KCAL/MOL
REMARK 924 INTRA-LIGAND FREE ENERGY PREDICTED BY IDOCK:   -0.08 KCAL/MOL
REMARK 927      BINDING AFFINITY PREDICTED BY RF-SCORE:    0.00 PKD
ROOT
HETATM    1 CL   UNL     1      -5.580  20.878  69.505  1.00  0.00    -0.414 Cl 
HETATM    2  C   UNL     1      -5.820  19.711  68.167  1.00  0.00    -0.217 C  
HETATM    3  C   UNL     1      -7.314  19.402  68.015  1.00  0.00    -0.274 C  
ENDROOT
BRANCH   3   4
HETATM    4  N   UNL     1      -7.774  18.446  66.953  1.00  0.00    -0.218 NA 
BRANCH   4   5
HETATM    5  C   UNL     1      -6.735  18.358  65.899  1.00  0.00    -0.277 C  
HETATM    6 CL   UNL     1      -5.324  19.217  63.733  1.00  0.00    -0.299 Cl 
HETATM    7  C   UNL     1      -6.708  19.473  64.842  1.00  0.00    -0.021 C  
ENDBRANCH   4   5
BRANCH   4   8
HETATM    8  P   UNL     1      -8.215  17.011  67.684  1.00  0.00    -0.190 P  
HETATM    9  N   UNL     1      -7.867  15.805  66.641  1.00  0.00    -0.235 NA 
HETATM   10  H   UNL     1      -6.911  15.901  66.299  1.00  0.00     0.000 HD 
HETATM   11  C   UNL     1      -8.085  14.457  67.159  1.00  0.00    -0.145 C  
HETATM   12  O   UNL     1      -9.629  16.990  68.182  1.00  0.00    -0.252 OA 
HETATM   13  C   UNL     1      -8.116  14.401  68.693  1.00  0.00    -0.146 C  
HETATM   14  C   UNL     1      -7.110  15.346  69.345  1.00  0.00    -0.193 C  
HETATM   15  O   UNL     1      -7.185  16.684  68.876  1.00  0.00    -0.194 OA 
ENDBRANCH   4   8
ENDBRANCH   3   4
TORSDOF 3
ENDMDL
MODEL      182
REMARK 921   NORMALIZED FREE ENERGY PREDICTED BY IDOCK:   -2.45 KCAL/MOL
REMARK 922        TOTAL FREE ENERGY PREDICTED BY IDOCK:   -3.12 KCAL/MOL
REMARK 923 INTER-LIGAND FREE ENERGY PREDICTED BY IDOCK:   -2.89 KCAL/MOL
REMARK 924 INTRA-LIGAND FREE ENERGY PREDICTED BY IDOCK:   -0.22 KCAL/MOL
REMARK 927      BINDING AFFINITY PREDICTED BY RF-SCORE:    0.00 PKD
ROOT
HETATM    1 CL   UNL     1      -8.033  19.415  68.888  1.00  0.00    -0.393 Cl 
HETATM    2  C   UNL     1      -8.999  18.165  68.044  1.00  0.00    -0.283 C  
HETATM    3  C   UNL     1      -9.265  16.991  68.994  1.00  0.00    -0.154 C  
ENDROOT
BRANCH   3   4
HETATM    4  N   UNL     1     -10.061  15.811  68.517  1.00  0.00    -0.212 NA 
BRANCH   4   5
HETATM    5  C   UNL     1      -9.140  14.824  67.903  1.00  0.00    -0.183 C  
HETATM    6 CL   UNL     1      -6.937  13.225  67.792  1.00  0.00    -0.137 Cl 
HETATM    7  C   UNL     1      -7.844  14.501  68.664  1.00  0.00    -0.140 C  
ENDBRANCH   4   5
BRANCH   4   8
HETATM    8  P   UNL     1     -11.006  15.262  69.779  1.00  0.00    -0.321 P  
HETATM    9  N   UNL     1     -12.561  15.584  69.399  1.00  0.00    -0.576 NA 
HETATM   10  H   UNL     1     -12.769  15.252  68.458  1.00  0.00     0.000 HD 
HETATM   11  C   UNL     1     -13.548  15.070  70.346  1.00  0.00     0.221 C  
HETATM   12  O   UNL     1     -10.592  15.782  71.123  1.00  0.00     0.015 OA 
HETATM   13  C   UNL     1     -13.004  13.931  71.221  1.00  0.00    -0.414 C  
HETATM   14  C   UNL     1     -12.069  12.992  70.464  1.00  0.00    -0.292 C  
HETATM   15  O   UNL     1     -11.023  13.653  69.769  1.00  0.00    -0.026 OA 
ENDBRANCH   4   8
ENDBRANCH   3   4
TORSDOF 3
ENDMDL
MODEL      183
REMARK 921   NORMALIZED FREE ENERGY PREDICTED BY IDOCK:   -2.45 KCAL/MOL
REMARK 922        TOTAL FREE ENERGY PREDICTED BY IDOCK:   -3.11 KCAL/MOL
REMARK 923 INTER-LIGAND FREE ENERGY PREDICTED BY IDOCK:   -2.86 KCAL/MOL
REMARK 924 INTRA-LIGAND FREE ENERGY PREDICTED BY IDOCK:   -0.25 KCAL/MOL
REMARK 927      BINDING AFFINITY PREDICTED BY RF-SCORE:    0.00 PKD
ROOT
HETATM    1 CL   UNL     1      -8.602  10.357  66.625  1.00  0.00    -0.124 Cl 
HETATM    2  C   UNL     1      -9.047   8.761  67.306  1.00  0.00    -0.132 C  
HETATM    3  C   UNL     1      -8.638   8.699  68.782  1.00  0.00    -0.130 C  
ENDROOT
BRANCH   3   4
HETATM    4  N   UNL     1      -8.908   7.456  69.580  1.00  0.00    -0.137 NA 
BRANCH   4   5
HETATM    5  C   UNL     1      -7.718   7.147  70.409  1.00  0.00    -0.095 C  
HETATM    6 CL   UNL     1      -5.498   5.742  71.130  1.00  0.00    -0.013 Cl 
HETATM    7  C   UNL     1      -6.938   5.866  70.071  1.00  0.00    -0.066 C  
ENDBRANCH   4   5
BRANCH   4   8
HETATM    8  P   UNL     1     -10.353   7.650  70.395  1.00  0.00    -0.222 P  
HETATM    9  N   UNL     1     -10.059   7.381  71.978  1.00  0.00    -0.180 NA 
HETATM   10  H   UNL     1      -9.253   7.926  72.284  1.00  0.00     0.000 HD 
HETATM   11  C   UNL     1     -11.194   7.617  72.866  1.00  0.00    -0.372 C  
HETATM   12  O   UNL     1     -11.479   6.831  69.841  1.00  0.00    -0.323 OA 
HETATM   13  C   UNL     1     -12.265   8.524  72.244  1.00  0.00    -0.454 C  
HETATM   14  C   UNL     1     -11.676   9.649  71.397  1.00  0.00    -0.404 C  
HETATM   15  O   UNL     1     -10.741   9.211  70.423  1.00  0.00    -0.212 OA 
ENDBRANCH   4   8
ENDBRANCH   3   4
TORSDOF 3
ENDMDL
MODEL      184
REMARK 921   NORMALIZED FREE ENERGY PREDICTED BY IDOCK:   -2.44 KCAL/MOL
REMARK 922        TOTAL FREE ENERGY PREDICTED BY IDOCK:   -3.11 KCAL/MOL
REMARK 923 INTER-LIGAND FREE ENERGY PREDICTED BY IDOCK:   -2.93 KCAL/MOL
REMARK 924 INTRA-LIGAND FREE ENERGY PREDICTED BY IDOCK:   -0.18 KCAL/MOL
REMARK 927      BINDING AFFINITY PREDICTED BY RF-SCORE:    0.00 PKD
ROOT
HETATM    1 CL   UNL     1     -10.017   9.395  65.638  1.00  0.00    -0.320 Cl 
HETATM    2  C   UNL     1      -9.805   9.860  67.354  1.00  0.00    -0.179 C  
HETATM    3  C   UNL     1      -9.131   8.714  68.119  1.00  0.00    -0.141 C  
ENDROOT
BRANCH   3   4
HETATM    4  N   UNL     1      -8.843   8.863  69.584  1.00  0.00    -0.138 NA 
BRANCH   4   5
HETATM    5  C   UNL     1      -8.216  10.187  69.821  1.00  0.00    -0.145 C  
HETATM    6 CL   UNL     1      -6.260  12.072  69.627  1.00  0.00    -0.121 Cl 
HETATM    7  C   UNL     1      -6.776  10.384  69.321  1.00  0.00    -0.067 C  
ENDBRANCH   4   5
BRANCH   4   8
HETATM    8  P   UNL     1     -10.240   8.538  70.438  1.00  0.00    -0.209 P  
HETATM    9  N   UNL     1     -10.853   7.142  69.856  1.00  0.00    -0.249 NA 
HETATM   10  H   UNL     1     -10.128   6.426  69.824  1.00  0.00     0.000 HD 
HETATM   11  C   UNL     1     -12.027   6.639  70.565  1.00  0.00    -0.316 C  
HETATM   12  O   UNL     1     -11.223   9.671  70.452  1.00  0.00    -0.248 OA 
HETATM   13  C   UNL     1     -12.166   7.216  71.982  1.00  0.00    -0.314 C  
HETATM   14  C   UNL     1     -10.825   7.384  72.691  1.00  0.00    -0.303 C  
HETATM   15  O   UNL     1      -9.857   8.097  71.937  1.00  0.00    -0.179 OA 
ENDBRANCH   4   8
ENDBRANCH   3   4
TORSDOF 3
ENDMDL
MODEL      185
REMARK 921   NORMALIZED FREE ENERGY PREDICTED BY IDOCK:   -2.43 KCAL/MOL
REMARK 922        TOTAL FREE ENERGY PREDICTED BY IDOCK:   -3.09 KCAL/MOL
REMARK 923 INTER-LIGAND FREE ENERGY PREDICTED BY IDOCK:   -2.91 KCAL/MOL
REMARK 924 INTRA-LIGAND FREE ENERGY PREDICTED BY IDOCK:   -0.18 KCAL/MOL
REMARK 927      BINDING AFFINITY PREDICTED BY RF-SCORE:    0.00 PKD
ROOT
HETATM    1 CL   UNL     1     -11.499  10.660  69.276  1.00  0.00    -0.329 Cl 
HETATM    2  C   UNL     1     -10.358   9.336  69.670  1.00  0.00    -0.217 C  
HETATM    3  C   UNL     1     -11.137   8.037  69.906  1.00  0.00    -0.108 C  
ENDROOT
BRANCH   3   4
HETATM    4  N   UNL     1     -10.400   6.777  70.252  1.00  0.00    -0.195 NA 
BRANCH   4   5
HETATM    5  C   UNL     1     -11.157   6.047  71.298  1.00  0.00    -0.274 C  
HETATM    6 CL   UNL     1     -11.450   4.568  73.567  1.00  0.00    -0.359 Cl 
HETATM    7  C   UNL     1     -10.341   5.291  72.360  1.00  0.00    -0.209 C  
ENDBRANCH   4   5
BRANCH   4   8
HETATM    8  P   UNL     1     -10.085   5.940  68.842  1.00  0.00    -0.222 P  
HETATM    9  N   UNL     1      -8.533   6.239  68.434  1.00  0.00    -0.115 NA 
HETATM   10  H   UNL     1      -7.922   6.084  69.236  1.00  0.00     0.000 HD 
HETATM   11  C   UNL     1      -8.044   5.495  67.276  1.00  0.00    -0.101 C  
HETATM   12  O   UNL     1     -11.063   6.214  67.739  1.00  0.00    -0.326 OA 
HETATM   13  C   UNL     1      -8.877   4.243  66.971  1.00  0.00    -0.121 C  
HETATM   14  C   UNL     1      -9.355   3.523  68.230  1.00  0.00    -0.177 C  
HETATM   15  O   UNL     1     -10.013   4.365  69.163  1.00  0.00    -0.162 OA 
ENDBRANCH   4   8
ENDBRANCH   3   4
TORSDOF 3
ENDMDL
MODEL      186
REMARK 921   NORMALIZED FREE ENERGY PREDICTED BY IDOCK:   -2.43 KCAL/MOL
REMARK 922        TOTAL FREE ENERGY PREDICTED BY IDOCK:   -3.09 KCAL/MOL
REMARK 923 INTER-LIGAND FREE ENERGY PREDICTED BY IDOCK:   -2.88 KCAL/MOL
REMARK 924 INTRA-LIGAND FREE ENERGY PREDICTED BY IDOCK:   -0.21 KCAL/MOL
REMARK 927      BINDING AFFINITY PREDICTED BY RF-SCORE:    0.00 PKD
ROOT
HETATM    1 CL   UNL     1      -6.744  17.557  69.274  1.00  0.00    -0.245 Cl 
HETATM    2  C   UNL     1      -7.818  16.827  68.041  1.00  0.00    -0.176 C  
HETATM    3  C   UNL     1      -8.408  15.519  68.580  1.00  0.00    -0.172 C  
ENDROOT
BRANCH   3   4
HETATM    4  N   UNL     1      -9.347  14.716  67.727  1.00  0.00    -0.194 NA 
BRANCH   4   5
HETATM    5  C   UNL     1      -9.698  15.504  66.521  1.00  0.00    -0.270 C  
HETATM    6 CL   UNL     1     -11.376  16.569  64.659  1.00  0.00    -0.263 Cl 
HETATM    7  C   UNL     1     -11.166  15.482  66.068  1.00  0.00    -0.107 C  
ENDBRANCH   4   5
BRANCH   4   8
HETATM    8  P   UNL     1      -8.671  13.212  67.463  1.00  0.00    -0.227 P  
HETATM    9  N   UNL     1      -9.207  12.222  68.645  1.00  0.00    -0.394 NA 
HETATM   10  H   UNL     1     -10.221  12.289  68.727  1.00  0.00     0.000 HD 
HETATM   11  C   UNL     1      -8.803  10.824  68.511  1.00  0.00    -0.149 C  
HETATM   12  O   UNL     1      -7.179  13.231  67.321  1.00  0.00    -0.137 OA 
HETATM   13  C   UNL     1      -8.393  10.453  67.078  1.00  0.00    -0.127 C  
HETATM   14  C   UNL     1      -9.252  11.133  66.016  1.00  0.00    -0.205 C  
HETATM   15  O   UNL     1      -9.359  12.540  66.173  1.00  0.00    -0.217 OA 
ENDBRANCH   4   8
ENDBRANCH   3   4
TORSDOF 3
ENDMDL
MODEL      187
REMARK 921   NORMALIZED FREE ENERGY PREDICTED BY IDOCK:   -2.42 KCAL/MOL
REMARK 922        TOTAL FREE ENERGY PREDICTED BY IDOCK:   -3.08 KCAL/MOL
REMARK 923 INTER-LIGAND FREE ENERGY PREDICTED BY IDOCK:   -2.85 KCAL/MOL
REMARK 924 INTRA-LIGAND FREE ENERGY PREDICTED BY IDOCK:   -0.24 KCAL/MOL
REMARK 927      BINDING AFFINITY PREDICTED BY RF-SCORE:    0.00 PKD
ROOT
HETATM    1 CL   UNL     1      -9.127   3.227  65.809  1.00  0.00    -0.149 Cl 
HETATM    2  C   UNL     1     -10.271   4.595  65.969  1.00  0.00    -0.277 C  
HETATM    3  C   UNL     1      -9.612   5.728  66.765  1.00  0.00    -0.147 C  
ENDROOT
BRANCH   3   4
HETATM    4  N   UNL     1     -10.373   6.993  67.034  1.00  0.00    -0.262 NA 
BRANCH   4   5
HETATM    5  C   UNL     1     -10.927   6.940  68.408  1.00  0.00    -0.132 C  
HETATM    6 CL   UNL     1     -11.045   6.118  71.003  1.00  0.00    -0.351 Cl 
HETATM    7  C   UNL     1     -10.286   5.945  69.389  1.00  0.00    -0.247 C  
ENDBRANCH   4   5
BRANCH   4   8
HETATM    8  P   UNL     1      -9.388   8.293  66.678  1.00  0.00    -0.223 P  
HETATM    9  N   UNL     1      -8.403   7.839  65.458  1.00  0.00    -0.143 NA 
HETATM   10  H   UNL     1      -8.948   7.423  64.702  1.00  0.00     0.000 HD 
HETATM   11  C   UNL     1      -7.539   8.895  64.935  1.00  0.00    -0.108 C  
HETATM   12  O   UNL     1      -8.662   8.850  67.866  1.00  0.00    -0.128 OA 
HETATM   13  C   UNL     1      -8.048  10.305  65.266  1.00  0.00    -0.151 C  
HETATM   14  C   UNL     1      -9.569  10.422  65.200  1.00  0.00    -0.271 C  
HETATM   15  O   UNL     1     -10.257   9.436  65.953  1.00  0.00    -0.259 OA 
ENDBRANCH   4   8
ENDBRANCH   3   4
TORSDOF 3
ENDMDL
MODEL      188
REMARK 921   NORMALIZED FREE ENERGY PREDICTED BY IDOCK:   -2.40 KCAL/MOL
REMARK 922        TOTAL FREE ENERGY PREDICTED BY IDOCK:   -3.06 KCAL/MOL
REMARK 923 INTER-LIGAND FREE ENERGY PREDICTED BY IDOCK:   -2.83 KCAL/MOL
REMARK 924 INTRA-LIGAND FREE ENERGY PREDICTED BY IDOCK:   -0.23 KCAL/MOL
REMARK 927      BINDING AFFINITY PREDICTED BY RF-SCORE:    0.00 PKD
ROOT
HETATM    1 CL   UNL     1      -6.987   8.145  73.281  1.00  0.00    -0.129 Cl 
HETATM    2  C   UNL     1      -8.355   7.067  72.863  1.00  0.00    -0.106 C  
HETATM    3  C   UNL     1      -8.253   6.653  71.390  1.00  0.00    -0.116 C  
ENDROOT
BRANCH   3   4
HETATM    4  N   UNL     1      -9.289   5.743  70.797  1.00  0.00    -0.161 NA 
BRANCH   4   5
HETATM    5  C   UNL     1     -10.160   5.231  71.883  1.00  0.00    -0.197 C  
HETATM    6 CL   UNL     1     -11.103   3.369  73.633  1.00  0.00    -0.324 Cl 
HETATM    7  C   UNL     1     -10.034   3.743  72.244  1.00  0.00    -0.168 C  
ENDBRANCH   4   5
BRANCH   4   8
HETATM    8  P   UNL     1     -10.052   6.548  69.549  1.00  0.00    -0.195 P  
HETATM    9  N   UNL     1      -9.711   8.136  69.712  1.00  0.00    -0.172 NA 
HETATM   10  H   UNL     1      -8.707   8.270  69.832  1.00  0.00     0.000 HD 
HETATM   11  C   UNL     1     -10.208   8.989  68.635  1.00  0.00    -0.205 C  
HETATM   12  O   UNL     1     -11.518   6.252  69.439  1.00  0.00    -0.427 OA 
HETATM   13  C   UNL     1     -10.506   8.213  67.344  1.00  0.00    -0.356 C  
HETATM   14  C   UNL     1      -9.499   7.099  67.071  1.00  0.00    -0.155 C  
HETATM   15  O   UNL     1      -9.298   6.220  68.166  1.00  0.00    -0.118 OA 
ENDBRANCH   4   8
ENDBRANCH   3   4
TORSDOF 3
ENDMDL
MODEL      189
REMARK 921   NORMALIZED FREE ENERGY PREDICTED BY IDOCK:   -2.39 KCAL/MOL
REMARK 922        TOTAL FREE ENERGY PREDICTED BY IDOCK:   -3.04 KCAL/MOL
REMARK 923 INTER-LIGAND FREE ENERGY PREDICTED BY IDOCK:   -2.79 KCAL/MOL
REMARK 924 INTRA-LIGAND FREE ENERGY PREDICTED BY IDOCK:   -0.25 KCAL/MOL
REMARK 927      BINDING AFFINITY PREDICTED BY RF-SCORE:    0.00 PKD
ROOT
HETATM    1 CL   UNL     1     -10.691   5.637  69.870  1.00  0.00    -0.401 Cl 
HETATM    2  C   UNL     1     -11.196   6.592  68.441  1.00  0.00    -0.180 C  
HETATM    3  C   UNL     1     -10.245   7.780  68.253  1.00  0.00    -0.201 C  
ENDROOT
BRANCH   3   4
HETATM    4  N   UNL     1     -10.459   8.734  67.114  1.00  0.00    -0.292 NA 
BRANCH   4   5
HETATM    5  C   UNL     1     -10.937  10.030  67.653  1.00  0.00    -0.234 C  
HETATM    6 CL   UNL     1     -11.431  11.874  69.597  1.00  0.00    -0.353 Cl 
HETATM    7  C   UNL     1     -10.903  10.214  69.179  1.00  0.00    -0.226 C  
ENDBRANCH   4   5
BRANCH   4   8
HETATM    8  P   UNL     1      -9.070   8.779  66.189  1.00  0.00    -0.226 P  
HETATM    9  N   UNL     1      -7.830   9.136  67.189  1.00  0.00    -0.102 NA 
HETATM   10  H   UNL     1      -7.849   8.525  68.005  1.00  0.00     0.000 HD 
HETATM   11  C   UNL     1      -6.508   9.109  66.568  1.00  0.00    -0.067 C  
HETATM   12  O   UNL     1      -9.163   9.681  64.995  1.00  0.00    -0.224 OA 
HETATM   13  C   UNL     1      -6.471   8.290  65.270  1.00  0.00    -0.052 C  
HETATM   14  C   UNL     1      -7.343   7.039  65.329  1.00  0.00    -0.077 C  
HETATM   15  O   UNL     1      -8.678   7.283  65.746  1.00  0.00    -0.154 OA 
ENDBRANCH   4   8
ENDBRANCH   3   4
TORSDOF 3
ENDMDL
MODEL      190
REMARK 921   NORMALIZED FREE ENERGY PREDICTED BY IDOCK:   -2.36 KCAL/MOL
REMARK 922        TOTAL FREE ENERGY PREDICTED BY IDOCK:   -3.01 KCAL/MOL
REMARK 923 INTER-LIGAND FREE ENERGY PREDICTED BY IDOCK:   -2.81 KCAL/MOL
REMARK 924 INTRA-LIGAND FREE ENERGY PREDICTED BY IDOCK:   -0.21 KCAL/MOL
REMARK 927      BINDING AFFINITY PREDICTED BY RF-SCORE:    0.00 PKD
ROOT
HETATM    1 CL   UNL     1     -13.158  11.182  71.838  1.00  0.00    -0.583 Cl 
HETATM    2  C   UNL     1     -12.658  10.948  70.134  1.00  0.00    -0.234 C  
HETATM    3  C   UNL     1     -11.144  10.719  70.068  1.00  0.00    -0.255 C  
ENDROOT
BRANCH   3   4
HETATM    4  N   UNL     1     -10.480  10.494  68.740  1.00  0.00    -0.184 NA 
BRANCH   4   5
HETATM    5  C   UNL     1     -10.225  11.807  68.100  1.00  0.00    -0.203 C  
HETATM    6 CL   UNL     1     -10.069  13.561  66.022  1.00  0.00    -0.307 Cl 
HETATM    7  C   UNL     1     -10.318  11.873  66.567  1.00  0.00    -0.216 C  
ENDBRANCH   4   5
BRANCH   4   8
HETATM    8  P   UNL     1      -9.152   9.508  68.969  1.00  0.00    -0.158 P  
HETATM    9  N   UNL     1      -9.293   8.253  67.935  1.00  0.00    -0.138 NA 
HETATM   10  H   UNL     1      -9.486   8.594  66.993  1.00  0.00     0.000 HD 
HETATM   11  C   UNL     1      -8.155   7.337  67.916  1.00  0.00    -0.119 C  
HETATM   12  O   UNL     1      -8.938   9.095  70.395  1.00  0.00    -0.187 OA 
HETATM   13  C   UNL     1      -6.869   7.965  68.472  1.00  0.00    -0.067 C  
HETATM   14  C   UNL     1      -6.709   9.435  68.089  1.00  0.00    -0.059 C  
HETATM   15  O   UNL     1      -7.843  10.236  68.382  1.00  0.00    -0.097 OA 
ENDBRANCH   4   8
ENDBRANCH   3   4
TORSDOF 3
ENDMDL
MODEL      191
REMARK 921   NORMALIZED FREE ENERGY PREDICTED BY IDOCK:   -2.36 KCAL/MOL
REMARK 922        TOTAL FREE ENERGY PREDICTED BY IDOCK:   -3.00 KCAL/MOL
REMARK 923 INTER-LIGAND FREE ENERGY PREDICTED BY IDOCK:   -3.15 KCAL/MOL
REMARK 924 INTRA-LIGAND FREE ENERGY PREDICTED BY IDOCK:    0.15 KCAL/MOL
REMARK 927      BINDING AFFINITY PREDICTED BY RF-SCORE:    0.00 PKD
ROOT
HETATM    1 CL   UNL     1     -12.080  12.389  65.231  1.00  0.00    -0.482 Cl 
HETATM    2  C   UNL     1     -10.842  12.301  66.522  1.00  0.00    -0.259 C  
HETATM    3  C   UNL     1     -11.381  11.479  67.699  1.00  0.00    -0.291 C  
ENDROOT
BRANCH   3   4
HETATM    4  N   UNL     1     -10.524  11.259  68.911  1.00  0.00    -0.207 NA 
BRANCH   4   5
HETATM    5  C   UNL     1     -11.128  11.968  70.065  1.00  0.00     0.338 C  
HETATM    6 CL   UNL     1     -12.971  12.388  72.027  1.00  0.00    -0.431 Cl 
HETATM    7  C   UNL     1     -12.479  11.449  70.582  1.00  0.00    -0.327 C  
ENDBRANCH   4   5
BRANCH   4   8
HETATM    8  P   UNL     1     -10.273   9.619  69.095  1.00  0.00    -0.225 P  
HETATM    9  N   UNL     1     -10.924   8.878  67.794  1.00  0.00    -0.487 NA 
HETATM   10  H   UNL     1     -10.600   9.324  66.936  1.00  0.00     0.000 HD 
HETATM   11  C   UNL     1     -10.700   7.435  67.728  1.00  0.00    -0.179 C  
HETATM   12  O   UNL     1     -10.752   9.072  70.406  1.00  0.00    -0.208 OA 
HETATM   13  C   UNL     1      -9.513   6.973  68.586  1.00  0.00    -0.135 C  
HETATM   14  C   UNL     1      -8.346   7.956  68.571  1.00  0.00    -0.128 C  
HETATM   15  O   UNL     1      -8.712   9.293  68.876  1.00  0.00    -0.128 OA 
ENDBRANCH   4   8
ENDBRANCH   3   4
TORSDOF 3
ENDMDL
MODEL      192
REMARK 921   NORMALIZED FREE ENERGY PREDICTED BY IDOCK:   -2.35 KCAL/MOL
REMARK 922        TOTAL FREE ENERGY PREDICTED BY IDOCK:   -3.00 KCAL/MOL
REMARK 923 INTER-LIGAND FREE ENERGY PREDICTED BY IDOCK:   -2.78 KCAL/MOL
REMARK 924 INTRA-LIGAND FREE ENERGY PREDICTED BY IDOCK:   -0.22 KCAL/MOL
REMARK 927      BINDING AFFINITY PREDICTED BY RF-SCORE:    0.00 PKD
ROOT
HETATM    1 CL   UNL     1     -11.087   6.608  66.972  1.00  0.00    -0.473 Cl 
HETATM    2  C   UNL     1      -9.704   6.635  68.110  1.00  0.00    -0.130 C  
HETATM    3  C   UNL     1     -10.054   7.500  69.326  1.00  0.00    -0.188 C  
ENDROOT
BRANCH   3   4
HETATM    4  N   UNL     1      -9.051   7.678  70.429  1.00  0.00    -0.152 NA 
BRANCH   4   5
HETATM    5  C   UNL     1      -8.576   9.083  70.426  1.00  0.00    -0.193 C  
HETATM    6 CL   UNL     1      -6.894  11.129  69.789  1.00  0.00    -0.123 Cl 
HETATM    7  C   UNL     1      -7.221   9.368  69.758  1.00  0.00    -0.076 C  
ENDBRANCH   4   5
BRANCH   4   8
HETATM    8  P   UNL     1      -9.721   7.122  71.854  1.00  0.00    -0.153 P  
HETATM    9  N   UNL     1     -11.074   6.295  71.465  1.00  0.00    -0.270 NA 
HETATM   10  H   UNL     1     -10.874   5.619  70.728  1.00  0.00     0.000 HD 
HETATM   11  C   UNL     1     -11.739   5.636  72.587  1.00  0.00    -0.197 C  
HETATM   12  O   UNL     1      -9.940   8.191  72.882  1.00  0.00    -0.277 OA 
HETATM   13  C   UNL     1     -10.812   5.423  73.792  1.00  0.00    -0.282 C  
HETATM   14  C   UNL     1      -9.386   5.055  73.391  1.00  0.00    -0.136 C  
HETATM   15  O   UNL     1      -8.806   5.939  72.445  1.00  0.00    -0.134 OA 
ENDBRANCH   4   8
ENDBRANCH   3   4
TORSDOF 3
ENDMDL
MODEL      193
REMARK 921   NORMALIZED FREE ENERGY PREDICTED BY IDOCK:   -2.35 KCAL/MOL
REMARK 922        TOTAL FREE ENERGY PREDICTED BY IDOCK:   -2.99 KCAL/MOL
REMARK 923 INTER-LIGAND FREE ENERGY PREDICTED BY IDOCK:   -2.73 KCAL/MOL
REMARK 924 INTRA-LIGAND FREE ENERGY PREDICTED BY IDOCK:   -0.27 KCAL/MOL
REMARK 927      BINDING AFFINITY PREDICTED BY RF-SCORE:    0.00 PKD
ROOT
HETATM    1 CL   UNL     1     -10.413  12.160  67.451  1.00  0.00    -0.226 Cl 
HETATM    2  C   UNL     1      -9.191  10.974  68.005  1.00  0.00    -0.159 C  
HETATM    3  C   UNL     1      -9.887   9.815  68.727  1.00  0.00    -0.169 C  
ENDROOT
BRANCH   3   4
HETATM    4  N   UNL     1      -9.072   8.686  69.286  1.00  0.00    -0.148 NA 
BRANCH   4   5
HETATM    5  C   UNL     1      -9.586   8.340  70.633  1.00  0.00    -0.171 C  
HETATM    6 CL   UNL     1     -11.447   8.212  72.617  1.00  0.00    -0.467 Cl 
HETATM    7  C   UNL     1     -11.001   8.819  70.992  1.00  0.00    -0.268 C  
ENDBRANCH   4   5
BRANCH   4   8
HETATM    8  P   UNL     1      -9.034   7.450  68.163  1.00  0.00    -0.126 P  
HETATM    9  N   UNL     1      -8.705   6.070  68.970  1.00  0.00    -0.122 NA 
HETATM   10  H   UNL     1      -9.325   5.975  69.774  1.00  0.00     0.000 HD 
HETATM   11  C   UNL     1      -8.742   4.856  68.158  1.00  0.00    -0.102 C  
HETATM   12  O   UNL     1      -8.118   7.707  67.005  1.00  0.00    -0.113 OA 
HETATM   13  C   UNL     1      -9.547   5.025  66.862  1.00  0.00    -0.162 C  
HETATM   14  C   UNL     1     -10.788   5.897  67.039  1.00  0.00    -0.295 C  
HETATM   15  O   UNL     1     -10.530   7.150  67.654  1.00  0.00    -0.196 OA 
ENDBRANCH   4   8
ENDBRANCH   3   4
TORSDOF 3
ENDMDL
MODEL      194
REMARK 921   NORMALIZED FREE ENERGY PREDICTED BY IDOCK:   -2.34 KCAL/MOL
REMARK 922        TOTAL FREE ENERGY PREDICTED BY IDOCK:   -2.99 KCAL/MOL
REMARK 923 INTER-LIGAND FREE ENERGY PREDICTED BY IDOCK:   -2.79 KCAL/MOL
REMARK 924 INTRA-LIGAND FREE ENERGY PREDICTED BY IDOCK:   -0.20 KCAL/MOL
REMARK 927      BINDING AFFINITY PREDICTED BY RF-SCORE:    0.00 PKD
ROOT
HETATM    1 CL   UNL     1     -11.284   5.996  71.005  1.00  0.00    -0.354 Cl 
HETATM    2  C   UNL     1     -11.385   6.936  69.484  1.00  0.00    -0.167 C  
HETATM    3  C   UNL     1     -10.589   8.238  69.630  1.00  0.00    -0.222 C  
ENDROOT
BRANCH   3   4
HETATM    4  N   UNL     1     -10.519   9.203  68.482  1.00  0.00    -0.213 NA 
BRANCH   4   5
HETATM    5  C   UNL     1     -10.767  10.575  68.988  1.00  0.00    -0.225 C  
HETATM    6 CL   UNL     1     -11.882  13.060  68.967  1.00  0.00    -0.360 Cl 
HETATM    7  C   UNL     1     -11.640  11.498  68.123  1.00  0.00    -0.308 C  
ENDBRANCH   4   5
BRANCH   4   8
HETATM    8  P   UNL     1      -9.082   8.959  67.668  1.00  0.00    -0.133 P  
HETATM    9  N   UNL     1      -9.389   7.936  66.433  1.00  0.00    -0.212 NA 
HETATM   10  H   UNL     1     -10.197   8.259  65.902  1.00  0.00     0.000 HD 
HETATM   11  C   UNL     1      -8.260   7.693  65.537  1.00  0.00    -0.135 C  
HETATM   12  O   UNL     1      -7.950   8.522  68.548  1.00  0.00    -0.113 OA 
HETATM   13  C   UNL     1      -7.185   8.786  65.616  1.00  0.00    -0.084 C  
HETATM   14  C   UNL     1      -7.768  10.186  65.792  1.00  0.00    -0.136 C  
HETATM   15  O   UNL     1      -8.695  10.296  66.861  1.00  0.00    -0.126 OA 
ENDBRANCH   4   8
ENDBRANCH   3   4
TORSDOF 3
ENDMDL
MODEL      195
REMARK 921   NORMALIZED FREE ENERGY PREDICTED BY IDOCK:   -2.34 KCAL/MOL
REMARK 922        TOTAL FREE ENERGY PREDICTED BY IDOCK:   -2.98 KCAL/MOL
REMARK 923 INTER-LIGAND FREE ENERGY PREDICTED BY IDOCK:   -2.78 KCAL/MOL
REMARK 924 INTRA-LIGAND FREE ENERGY PREDICTED BY IDOCK:   -0.20 KCAL/MOL
REMARK 927      BINDING AFFINITY PREDICTED BY RF-SCORE:    0.00 PKD
ROOT
HETATM    1 CL   UNL     1     -11.912  10.655  70.922  1.00  0.00    -0.455 Cl 
HETATM    2  C   UNL     1     -11.028   9.946  69.535  1.00  0.00    -0.242 C  
HETATM    3  C   UNL     1     -10.674  11.050  68.531  1.00  0.00    -0.202 C  
ENDROOT
BRANCH   3   4
HETATM    4  N   UNL     1      -9.925  10.706  67.277  1.00  0.00    -0.183 NA 
BRANCH   4   5
HETATM    5  C   UNL     1     -10.263  11.696  66.226  1.00  0.00    -0.227 C  
HETATM    6 CL   UNL     1     -10.942  12.513  63.717  1.00  0.00    -0.461 Cl 
HETATM    7  C   UNL     1     -10.450  11.168  64.794  1.00  0.00    -0.323 C  
ENDBRANCH   4   5
BRANCH   4   8
HETATM    8  P   UNL     1      -8.306  10.543  67.651  1.00  0.00    -0.114 P  
HETATM    9  N   UNL     1      -7.980   8.944  67.714  1.00  0.00    -0.102 NA 
HETATM   10  H   UNL     1      -8.332   8.480  66.877  1.00  0.00     0.000 HD 
HETATM   11  C   UNL     1      -6.573   8.609  67.922  1.00  0.00    -0.061 C  
HETATM   12  O   UNL     1      -7.886  11.294  68.878  1.00  0.00    -0.136 OA 
HETATM   13  C   UNL     1      -5.621   9.755  67.552  1.00  0.00    -0.036 C  
HETATM   14  C   UNL     1      -6.075  10.534  66.320  1.00  0.00    -0.096 C  
HETATM   15  O   UNL     1      -7.421  10.980  66.382  1.00  0.00    -0.143 OA 
ENDBRANCH   4   8
ENDBRANCH   3   4
TORSDOF 3
ENDMDL
MODEL      196
REMARK 921   NORMALIZED FREE ENERGY PREDICTED BY IDOCK:   -2.33 KCAL/MOL
REMARK 922        TOTAL FREE ENERGY PREDICTED BY IDOCK:   -2.97 KCAL/MOL
REMARK 923 INTER-LIGAND FREE ENERGY PREDICTED BY IDOCK:   -3.27 KCAL/MOL
REMARK 924 INTRA-LIGAND FREE ENERGY PREDICTED BY IDOCK:    0.30 KCAL/MOL
REMARK 927      BINDING AFFINITY PREDICTED BY RF-SCORE:    0.00 PKD
ROOT
HETATM    1 CL   UNL     1      -8.751  18.852  66.730  1.00  0.00    -0.293 Cl 
HETATM    2  C   UNL     1      -9.076  17.343  67.639  1.00  0.00    -0.234 C  
HETATM    3  C   UNL     1      -9.868  16.371  66.758  1.00  0.00    -0.256 C  
ENDROOT
BRANCH   3   4
HETATM    4  N   UNL     1     -10.263  15.027  67.298  1.00  0.00    -0.240 NA 
BRANCH   4   5
HETATM    5  C   UNL     1     -10.753  14.183  66.181  1.00  0.00    -0.297 C  
HETATM    6 CL   UNL     1     -12.570  12.662  64.837  1.00  0.00    -0.571 Cl 
HETATM    7  C   UNL     1     -12.148  13.555  66.332  1.00  0.00    -0.417 C  
ENDBRANCH   4   5
BRANCH   4   8
HETATM    8  P   UNL     1      -8.990  14.416  68.189  1.00  0.00    -0.197 P  
HETATM    9  N   UNL     1      -9.232  12.809  68.344  1.00  0.00    -0.327 NA 
HETATM   10  H   UNL     1      -9.430  12.393  67.434  1.00  0.00     0.000 HD 
HETATM   11  C   UNL     1      -8.151  12.083  69.007  1.00  0.00     0.212 C  
HETATM   12  O   UNL     1      -8.764  15.122  69.492  1.00  0.00    -0.214 OA 
HETATM   13  C   UNL     1      -6.816  12.841  68.984  1.00  0.00    -0.081 C  
HETATM   14  C   UNL     1      -6.580  13.594  67.677  1.00  0.00    -0.165 C  
HETATM   15  O   UNL     1      -7.656  14.433  67.290  1.00  0.00    -0.188 OA 
ENDBRANCH   4   8
ENDBRANCH   3   4
TORSDOF 3
ENDMDL
MODEL      197
REMARK 921   NORMALIZED FREE ENERGY PREDICTED BY IDOCK:   -2.32 KCAL/MOL
REMARK 922        TOTAL FREE ENERGY PREDICTED BY IDOCK:   -2.96 KCAL/MOL
REMARK 923 INTER-LIGAND FREE ENERGY PREDICTED BY IDOCK:   -2.73 KCAL/MOL
REMARK 924 INTRA-LIGAND FREE ENERGY PREDICTED BY IDOCK:   -0.23 KCAL/MOL
REMARK 927      BINDING AFFINITY PREDICTED BY RF-SCORE:    0.00 PKD
ROOT
HETATM    1 CL   UNL     1     -12.409  11.317  70.892  1.00  0.00    -0.485 Cl 
HETATM    2  C   UNL     1     -11.431  10.251  69.835  1.00  0.00    -0.273 C  
HETATM    3  C   UNL     1     -10.502   9.386  70.694  1.00  0.00    -0.290 C  
ENDROOT
BRANCH   3   4
HETATM    4  N   UNL     1      -9.577   8.403  70.037  1.00  0.00    -0.167 NA 
BRANCH   4   5
HETATM    5  C   UNL     1     -10.167   7.976  68.745  1.00  0.00    -0.206 C  
HETATM    6 CL   UNL     1     -11.066   6.179  66.905  1.00  0.00    -0.383 Cl 
HETATM    7  C   UNL     1     -10.238   6.466  68.468  1.00  0.00    -0.175 C  
ENDBRANCH   4   5
BRANCH   4   8
HETATM    8  P   UNL     1      -8.048   9.072  69.971  1.00  0.00    -0.158 P  
HETATM    9  N   UNL     1      -7.055   7.952  69.320  1.00  0.00    -0.070 NA 
HETATM   10  H   UNL     1      -7.458   7.581  68.460  1.00  0.00     0.000 HD 
HETATM   11  C   UNL     1      -5.686   8.405  69.081  1.00  0.00    -0.038 C  
HETATM   12  O   UNL     1      -7.566   9.619  71.281  1.00  0.00    -0.295 OA 
HETATM   13  C   UNL     1      -5.563   9.933  69.014  1.00  0.00    -0.035 C  
HETATM   14  C   UNL     1      -6.748  10.598  68.319  1.00  0.00    -0.063 C  
HETATM   15  O   UNL     1      -8.013  10.205  68.830  1.00  0.00    -0.095 OA 
ENDBRANCH   4   8
ENDBRANCH   3   4
TORSDOF 3
ENDMDL
MODEL      198
REMARK 921   NORMALIZED FREE ENERGY PREDICTED BY IDOCK:   -2.29 KCAL/MOL
REMARK 922        TOTAL FREE ENERGY PREDICTED BY IDOCK:   -2.92 KCAL/MOL
REMARK 923 INTER-LIGAND FREE ENERGY PREDICTED BY IDOCK:   -3.11 KCAL/MOL
REMARK 924 INTRA-LIGAND FREE ENERGY PREDICTED BY IDOCK:    0.19 KCAL/MOL
REMARK 927      BINDING AFFINITY PREDICTED BY RF-SCORE:    0.00 PKD
ROOT
HETATM    1 CL   UNL     1      -5.502  12.342  68.361  1.00  0.00    -0.051 Cl 
HETATM    2  C   UNL     1      -7.281  12.217  68.199  1.00  0.00    -0.096 C  
HETATM    3  C   UNL     1      -7.878  13.611  67.978  1.00  0.00    -0.150 C  
ENDROOT
BRANCH   3   4
HETATM    4  N   UNL     1      -9.361  13.771  67.811  1.00  0.00    -0.205 NA 
BRANCH   4   5
HETATM    5  C   UNL     1     -10.051  12.710  68.585  1.00  0.00    -0.122 C  
HETATM    6 CL   UNL     1     -12.205  11.379  69.591  1.00  0.00    -0.341 Cl 
HETATM    7  C   UNL     1     -11.581  12.804  68.701  1.00  0.00    -0.314 C  
ENDBRANCH   4   5
BRANCH   4   8
HETATM    8  P   UNL     1      -9.772  15.347  68.179  1.00  0.00    -0.215 P  
HETATM    9  N   UNL     1      -8.385  16.201  68.279  1.00  0.00    -0.166 NA 
HETATM   10  H   UNL     1      -7.808  16.031  67.456  1.00  0.00     0.000 HD 
HETATM   11  C   UNL     1      -8.558  17.637  68.486  1.00  0.00    -0.285 C  
HETATM   12  O   UNL     1     -10.653  15.481  69.385  1.00  0.00    -0.217 OA 
HETATM   13  C   UNL     1      -9.951  18.139  68.083  1.00  0.00    -0.368 C  
HETATM   14  C   UNL     1     -10.496  17.449  66.835  1.00  0.00    -0.279 C  
HETATM   15  O   UNL     1     -10.456  16.031  66.894  1.00  0.00    -0.300 OA 
ENDBRANCH   4   8
ENDBRANCH   3   4
TORSDOF 3
ENDMDL
MODEL      199
REMARK 921   NORMALIZED FREE ENERGY PREDICTED BY IDOCK:   -2.29 KCAL/MOL
REMARK 922        TOTAL FREE ENERGY PREDICTED BY IDOCK:   -2.92 KCAL/MOL
REMARK 923 INTER-LIGAND FREE ENERGY PREDICTED BY IDOCK:   -2.72 KCAL/MOL
REMARK 924 INTRA-LIGAND FREE ENERGY PREDICTED BY IDOCK:   -0.20 KCAL/MOL
REMARK 927      BINDING AFFINITY PREDICTED BY RF-SCORE:    0.00 PKD
ROOT
HETATM    1 CL   UNL     1     -12.426   7.169  71.454  1.00  0.00    -0.406 Cl 
HETATM    2  C   UNL     1     -11.131   7.067  70.221  1.00  0.00    -0.285 C  
HETATM    3  C   UNL     1     -10.422   8.422  70.106  1.00  0.00    -0.228 C  
ENDROOT
BRANCH   3   4
HETATM    4  N   UNL     1      -9.291   8.592  69.134  1.00  0.00    -0.153 NA 
BRANCH   4   5
HETATM    5  C   UNL     1      -8.952   7.270  68.552  1.00  0.00    -0.130 C  
HETATM    6 CL   UNL     1      -7.464   5.511  67.099  1.00  0.00    -0.083 Cl 
HETATM    7  C   UNL     1      -7.744   7.207  67.604  1.00  0.00    -0.112 C  
ENDBRANCH   4   5
BRANCH   4   8
HETATM    8  P   UNL     1      -9.694   9.799  68.053  1.00  0.00    -0.152 P  
HETATM    9  N   UNL     1     -10.399  11.000  68.905  1.00  0.00    -0.199 NA 
HETATM   10  H   UNL     1      -9.824  11.244  69.711  1.00  0.00     0.000 HD 
HETATM   11  C   UNL     1     -10.721  12.198  68.134  1.00  0.00    -0.211 C  
HETATM   12  O   UNL     1     -10.509   9.326  66.887  1.00  0.00    -0.248 OA 
HETATM   13  C   UNL     1      -9.914  12.309  66.833  1.00  0.00    -0.223 C  
HETATM   14  C   UNL     1      -8.474  11.826  66.980  1.00  0.00    -0.175 C  
HETATM   15  O   UNL     1      -8.353  10.534  67.553  1.00  0.00    -0.117 OA 
ENDBRANCH   4   8
ENDBRANCH   3   4
TORSDOF 3
ENDMDL
MODEL      200
REMARK 921   NORMALIZED FREE ENERGY PREDICTED BY IDOCK:   -2.29 KCAL/MOL
REMARK 922        TOTAL FREE ENERGY PREDICTED BY IDOCK:   -2.92 KCAL/MOL
REMARK 923 INTER-LIGAND FREE ENERGY PREDICTED BY IDOCK:   -2.68 KCAL/MOL
REMARK 924 INTRA-LIGAND FREE ENERGY PREDICTED BY IDOCK:   -0.24 KCAL/MOL
REMARK 927      BINDING AFFINITY PREDICTED BY RF-SCORE:    0.00 PKD
ROOT
HETATM    1 CL   UNL     1      -7.602   8.037  73.520  1.00  0.00    -0.185 Cl 
HETATM    2  C   UNL     1      -7.938   7.615  71.812  1.00  0.00    -0.095 C  
HETATM    3  C   UNL     1      -7.992   8.892  70.967  1.00  0.00    -0.151 C  
ENDROOT
BRANCH   3   4
HETATM    4  N   UNL     1      -8.259   8.801  69.493  1.00  0.00    -0.108 NA 
BRANCH   4   5
HETATM    5  C   UNL     1      -8.052   7.401  69.050  1.00  0.00    -0.127 C  
HETATM    6 CL   UNL     1      -7.324   5.434  67.312  1.00  0.00    -0.082 Cl 
HETATM    7  C   UNL     1      -7.601   7.181  67.597  1.00  0.00    -0.110 C  
ENDBRANCH   4   5
BRANCH   4   8
HETATM    8  P   UNL     1      -9.760   9.465  69.182  1.00  0.00    -0.181 P  
HETATM    9  N   UNL     1     -10.292  10.138  70.571  1.00  0.00    -0.407 NA 
HETATM   10  H   UNL     1      -9.570  10.738  70.970  1.00  0.00     0.000 HD 
HETATM   11  C   UNL     1     -11.552  10.869  70.461  1.00  0.00    -0.300 C  
HETATM   12  O   UNL     1     -10.733   8.508  68.563  1.00  0.00    -0.151 OA 
HETATM   13  C   UNL     1     -11.878  11.289  69.020  1.00  0.00    -0.421 C  
HETATM   14  C   UNL     1     -10.644  11.714  68.228  1.00  0.00    -0.205 C  
HETATM   15  O   UNL     1      -9.582  10.773  68.263  1.00  0.00    -0.155 OA 
ENDBRANCH   4   8
ENDBRANCH   3   4
TORSDOF 3
ENDMDL
MODEL      201
REMARK 921   NORMALIZED FREE ENERGY PREDICTED BY IDOCK:   -2.22 KCAL/MOL
REMARK 922        TOTAL FREE ENERGY PREDICTED BY IDOCK:   -2.85 KCAL/MOL
REMARK 923 INTER-LIGAND FREE ENERGY PREDICTED BY IDOCK:   -2.77 KCAL/MOL
REMARK 924 INTRA-LIGAND FREE ENERGY PREDICTED BY IDOCK:   -0.07 KCAL/MOL
REMARK 927      BINDING AFFINITY PREDICTED BY RF-SCORE:    0.00 PKD
ROOT
HETATM    1 CL   UNL     1     -10.741   4.800  66.218  1.00  0.00    -0.255 Cl 
HETATM    2  C   UNL     1     -11.225   6.300  67.068  1.00  0.00    -0.163 C  
HETATM    3  C   UNL     1     -10.475   6.402  68.401  1.00  0.00    -0.222 C  
ENDROOT
BRANCH   3   4
HETATM    4  N   UNL     1     -10.710   7.580  69.302  1.00  0.00    -0.210 NA 
BRANCH   4   5
HETATM    5  C   UNL     1     -10.295   7.223  70.680  1.00  0.00    -0.204 C  
HETATM    6 CL   UNL     1     -10.534   7.125  73.392  1.00  0.00    -0.372 Cl 
HETATM    7  C   UNL     1     -11.161   7.751  71.835  1.00  0.00    -0.265 C  
ENDBRANCH   4   5
BRANCH   4   8
HETATM    8  P   UNL     1      -9.977   8.920  68.627  1.00  0.00    -0.186 P  
HETATM    9  N   UNL     1      -8.981   9.550  69.757  1.00  0.00    -0.183 NA 
HETATM   10  H   UNL     1      -8.387   8.819  70.149  1.00  0.00     0.000 HD 
HETATM   11  C   UNL     1      -8.165  10.674  69.303  1.00  0.00    -0.115 C  
HETATM   12  O   UNL     1     -10.939   9.913  68.048  1.00  0.00    -0.257 OA 
HETATM   13  C   UNL     1      -8.022  10.734  67.776  1.00  0.00    -0.110 C  
HETATM   14  C   UNL     1      -7.896   9.355  67.133  1.00  0.00    -0.098 C  
HETATM   15  O   UNL     1      -8.912   8.442  67.521  1.00  0.00    -0.134 OA 
ENDBRANCH   4   8
ENDBRANCH   3   4
TORSDOF 3
ENDMDL
MODEL      202
REMARK 921   NORMALIZED FREE ENERGY PREDICTED BY IDOCK:   -2.20 KCAL/MOL
REMARK 922        TOTAL FREE ENERGY PREDICTED BY IDOCK:   -2.82 KCAL/MOL
REMARK 923 INTER-LIGAND FREE ENERGY PREDICTED BY IDOCK:   -2.55 KCAL/MOL
REMARK 924 INTRA-LIGAND FREE ENERGY PREDICTED BY IDOCK:   -0.27 KCAL/MOL
REMARK 927      BINDING AFFINITY PREDICTED BY RF-SCORE:    0.00 PKD
ROOT
HETATM    1 CL   UNL     1      -6.647  17.662  69.285  1.00  0.00    -0.246 Cl 
HETATM    2  C   UNL     1      -7.574  16.666  68.120  1.00  0.00    -0.171 C  
HETATM    3  C   UNL     1      -7.992  15.349  68.785  1.00  0.00    -0.158 C  
ENDROOT
BRANCH   3   4
HETATM    4  N   UNL     1      -8.786  14.339  68.009  1.00  0.00    -0.168 NA 
BRANCH   4   5
HETATM    5  C   UNL     1      -9.113  14.902  66.677  1.00  0.00    -0.280 C  
HETATM    6 CL   UNL     1     -10.676  15.349  64.491  1.00  0.00    -0.198 Cl 
HETATM    7  C   UNL     1     -10.448  14.482  66.043  1.00  0.00    -0.308 C  
ENDBRANCH   4   5
BRANCH   4   8
HETATM    8  P   UNL     1      -7.958  12.889  68.021  1.00  0.00    -0.182 P  
HETATM    9  N   UNL     1      -6.724  13.024  66.961  1.00  0.00    -0.442 NA 
HETATM   10  H   UNL     1      -6.200  13.881  67.138  1.00  0.00     0.000 HD 
HETATM   11  C   UNL     1      -5.817  11.879  66.920  1.00  0.00    -0.118 C  
HETATM   12  O   UNL     1      -8.827  11.690  67.787  1.00  0.00    -0.149 OA 
HETATM   13  C   UNL     1      -5.889  11.010  68.184  1.00  0.00    -0.046 C  
HETATM   14  C   UNL     1      -6.073  11.827  69.460  1.00  0.00    -0.106 C  
HETATM   15  O   UNL     1      -7.151  12.749  69.406  1.00  0.00     0.026 OA 
ENDBRANCH   4   8
ENDBRANCH   3   4
TORSDOF 3
ENDMDL
MODEL      203
REMARK 921   NORMALIZED FREE ENERGY PREDICTED BY IDOCK:   -2.17 KCAL/MOL
REMARK 922        TOTAL FREE ENERGY PREDICTED BY IDOCK:   -2.79 KCAL/MOL
REMARK 923 INTER-LIGAND FREE ENERGY PREDICTED BY IDOCK:   -2.59 KCAL/MOL
REMARK 924 INTRA-LIGAND FREE ENERGY PREDICTED BY IDOCK:   -0.21 KCAL/MOL
REMARK 927      BINDING AFFINITY PREDICTED BY RF-SCORE:    0.00 PKD
ROOT
HETATM    1 CL   UNL     1      -6.676   6.621  71.030  1.00  0.00    -0.053 Cl 
HETATM    2  C   UNL     1      -7.894   6.631  69.717  1.00  0.00    -0.115 C  
HETATM    3  C   UNL     1      -8.747   7.901  69.814  1.00  0.00    -0.137 C  
ENDROOT
BRANCH   3   4
HETATM    4  N   UNL     1      -9.843   8.142  68.818  1.00  0.00    -0.171 NA 
BRANCH   4   5
HETATM    5  C   UNL     1     -11.128   7.671  69.389  1.00  0.00     0.027 C  
HETATM    6 CL   UNL     1     -12.878   7.068  71.388  1.00  0.00    -0.422 Cl 
HETATM    7  C   UNL     1     -11.220   7.562  70.920  1.00  0.00    -0.269 C  
ENDBRANCH   4   5
BRANCH   4   8
HETATM    8  P   UNL     1      -9.784   9.741  68.338  1.00  0.00    -0.157 P  
HETATM    9  N   UNL     1      -9.391   9.760  66.754  1.00  0.00    -0.148 NA 
HETATM   10  H   UNL     1      -9.992   9.120  66.235  1.00  0.00     0.000 HD 
HETATM   11  C   UNL     1      -9.401  11.081  66.130  1.00  0.00    -0.191 C  
HETATM   12  O   UNL     1      -8.899  10.600  69.191  1.00  0.00    -0.164 OA 
HETATM   13  C   UNL     1     -10.236  12.106  66.911  1.00  0.00    -0.228 C  
HETATM   14  C   UNL     1     -11.503  11.507  67.517  1.00  0.00    -0.282 C  
HETATM   15  O   UNL     1     -11.278  10.335  68.284  1.00  0.00    -0.276 OA 
ENDBRANCH   4   8
ENDBRANCH   3   4
TORSDOF 3
ENDMDL
MODEL      204
REMARK 921   NORMALIZED FREE ENERGY PREDICTED BY IDOCK:   -2.15 KCAL/MOL
REMARK 922        TOTAL FREE ENERGY PREDICTED BY IDOCK:   -2.76 KCAL/MOL
REMARK 923 INTER-LIGAND FREE ENERGY PREDICTED BY IDOCK:   -2.80 KCAL/MOL
REMARK 924 INTRA-LIGAND FREE ENERGY PREDICTED BY IDOCK:    0.04 KCAL/MOL
REMARK 927      BINDING AFFINITY PREDICTED BY RF-SCORE:    0.00 PKD
ROOT
HETATM    1 CL   UNL     1      -9.334   6.055  67.157  1.00  0.00    -0.116 Cl 
HETATM    2  C   UNL     1      -9.315   7.366  68.378  1.00  0.00    -0.144 C  
HETATM    3  C   UNL     1     -10.514   8.295  68.154  1.00  0.00    -0.171 C  
ENDROOT
BRANCH   3   4
HETATM    4  N   UNL     1     -10.720   9.477  69.056  1.00  0.00    -0.221 NA 
BRANCH   4   5
HETATM    5  C   UNL     1      -9.999   9.244  70.330  1.00  0.00    -0.237 C  
HETATM    6 CL   UNL     1      -9.543   8.052  72.738  1.00  0.00    -0.314 Cl 
HETATM    7  C   UNL     1     -10.623   8.248  71.321  1.00  0.00    -0.219 C  
ENDBRANCH   4   5
BRANCH   4   8
HETATM    8  P   UNL     1     -10.319  10.864  68.217  1.00  0.00    -0.198 P  
HETATM    9  N   UNL     1      -8.797  10.672  67.658  1.00  0.00    -0.131 NA 
HETATM   10  H   UNL     1      -8.708   9.775  67.181  1.00  0.00     0.000 HD 
HETATM   11  C   UNL     1      -8.314  11.750  66.799  1.00  0.00    -0.165 C  
HETATM   12  O   UNL     1     -10.522  12.128  68.998  1.00  0.00    -0.159 OA 
HETATM   13  C   UNL     1      -9.448  12.585  66.188  1.00  0.00    -0.184 C  
HETATM   14  C   UNL     1     -10.663  11.747  65.798  1.00  0.00    -0.280 C  
HETATM   15  O   UNL     1     -11.143  10.906  66.836  1.00  0.00    -0.259 OA 
ENDBRANCH   4   8
ENDBRANCH   3   4
TORSDOF 3
ENDMDL
MODEL      205
REMARK 921   NORMALIZED FREE ENERGY PREDICTED BY IDOCK:   -2.12 KCAL/MOL
REMARK 922        TOTAL FREE ENERGY PREDICTED BY IDOCK:   -2.73 KCAL/MOL
REMARK 923 INTER-LIGAND FREE ENERGY PREDICTED BY IDOCK:   -2.52 KCAL/MOL
REMARK 924 INTRA-LIGAND FREE ENERGY PREDICTED BY IDOCK:   -0.21 KCAL/MOL
REMARK 927      BINDING AFFINITY PREDICTED BY RF-SCORE:    0.00 PKD
ROOT
HETATM    1 CL   UNL     1      -8.547   8.452  71.933  1.00  0.00    -0.226 Cl 
HETATM    2  C   UNL     1      -8.637   7.370  70.508  1.00  0.00    -0.139 C  
HETATM    3  C   UNL     1      -8.479   8.194  69.225  1.00  0.00    -0.134 C  
ENDROOT
BRANCH   3   4
HETATM    4  N   UNL     1      -8.518   7.511  67.889  1.00  0.00    -0.122 NA 
BRANCH   4   5
HETATM    5  C   UNL     1      -9.152   6.180  68.046  1.00  0.00    -0.114 C  
HETATM    6 CL   UNL     1      -9.258   3.459  67.957  1.00  0.00    -0.217 Cl 
HETATM    7  C   UNL     1      -8.343   4.955  67.590  1.00  0.00    -0.105 C  
ENDBRANCH   4   5
BRANCH   4   8
HETATM    8  P   UNL     1      -9.222   8.545  66.783  1.00  0.00    -0.200 P  
HETATM    9  N   UNL     1      -8.668  10.047  67.099  1.00  0.00    -0.128 NA 
HETATM   10  H   UNL     1      -7.651  10.039  67.175  1.00  0.00     0.000 HD 
HETATM   11  C   UNL     1      -9.095  11.075  66.153  1.00  0.00    -0.192 C  
HETATM   12  O   UNL     1     -10.717   8.450  66.726  1.00  0.00    -0.249 OA 
HETATM   13  C   UNL     1      -9.549  10.498  64.804  1.00  0.00    -0.342 C  
HETATM   14  C   UNL     1      -8.709   9.306  64.352  1.00  0.00    -0.181 C  
HETATM   15  O   UNL     1      -8.578   8.287  65.331  1.00  0.00    -0.167 OA 
ENDBRANCH   4   8
ENDBRANCH   3   4
TORSDOF 3
ENDMDL
MODEL      206
REMARK 921   NORMALIZED FREE ENERGY PREDICTED BY IDOCK:   -2.11 KCAL/MOL
REMARK 922        TOTAL FREE ENERGY PREDICTED BY IDOCK:   -2.72 KCAL/MOL
REMARK 923 INTER-LIGAND FREE ENERGY PREDICTED BY IDOCK:   -2.47 KCAL/MOL
REMARK 924 INTRA-LIGAND FREE ENERGY PREDICTED BY IDOCK:   -0.25 KCAL/MOL
REMARK 927      BINDING AFFINITY PREDICTED BY RF-SCORE:    0.00 PKD
ROOT
HETATM    1 CL   UNL     1      -6.479  10.654  69.174  1.00  0.00    -0.052 Cl 
HETATM    2  C   UNL     1      -6.929   9.786  70.674  1.00  0.00    -0.094 C  
HETATM    3  C   UNL     1      -8.347   9.219  70.537  1.00  0.00    -0.205 C  
ENDROOT
BRANCH   3   4
HETATM    4  N   UNL     1      -8.954   8.443  71.669  1.00  0.00    -0.179 NA 
BRANCH   4   5
HETATM    5  C   UNL     1     -10.363   8.870  71.846  1.00  0.00    -0.337 C  
HETATM    6 CL   UNL     1     -12.850   9.613  71.019  1.00  0.00    -0.366 Cl 
HETATM    7  C   UNL     1     -11.159   9.218  70.578  1.00  0.00    -0.265 C  
ENDBRANCH   4   5
BRANCH   4   8
HETATM    8  P   UNL     1      -8.699   6.816  71.396  1.00  0.00    -0.129 P  
HETATM    9  N   UNL     1     -10.117   6.050  71.656  1.00  0.00    -0.187 NA 
HETATM   10  H   UNL     1     -10.867   6.515  71.144  1.00  0.00     0.000 HD 
HETATM   11  C   UNL     1     -10.112   4.621  71.355  1.00  0.00    -0.178 C  
HETATM   12  O   UNL     1      -7.551   6.241  72.170  1.00  0.00    -0.093 OA 
HETATM   13  C   UNL     1      -8.975   4.211  70.408  1.00  0.00    -0.152 C  
HETATM   14  C   UNL     1      -8.697   5.249  69.323  1.00  0.00    -0.100 C  
HETATM   15  O   UNL     1      -8.507   6.565  69.819  1.00  0.00    -0.128 OA 
ENDBRANCH   4   8
ENDBRANCH   3   4
TORSDOF 3
ENDMDL
MODEL      207
REMARK 921   NORMALIZED FREE ENERGY PREDICTED BY IDOCK:   -2.09 KCAL/MOL
REMARK 922        TOTAL FREE ENERGY PREDICTED BY IDOCK:   -2.69 KCAL/MOL
REMARK 923 INTER-LIGAND FREE ENERGY PREDICTED BY IDOCK:   -2.61 KCAL/MOL
REMARK 924 INTRA-LIGAND FREE ENERGY PREDICTED BY IDOCK:   -0.08 KCAL/MOL
REMARK 927      BINDING AFFINITY PREDICTED BY RF-SCORE:    0.00 PKD
ROOT
HETATM    1 CL   UNL     1     -11.003   6.729  67.289  1.00  0.00    -0.433 Cl 
HETATM    2  C   UNL     1      -9.769   7.533  66.270  1.00  0.00    -0.029 C  
HETATM    3  C   UNL     1      -9.861   9.053  66.453  1.00  0.00    -0.286 C  
ENDROOT
BRANCH   3   4
HETATM    4  N   UNL     1      -8.924   9.953  65.701  1.00  0.00    -0.161 NA 
BRANCH   4   5
HETATM    5  C   UNL     1      -9.686  11.110  65.172  1.00  0.00    -0.250 C  
HETATM    6 CL   UNL     1     -11.381  12.390  63.466  1.00  0.00    -0.532 Cl 
HETATM    7  C   UNL     1     -10.466  10.902  63.864  1.00  0.00    -0.289 C  
ENDBRANCH   4   5
BRANCH   4   8
HETATM    8  P   UNL     1      -7.622  10.307  66.684  1.00  0.00    -0.120 P  
HETATM    9  N   UNL     1      -8.181  11.201  67.930  1.00  0.00    -0.117 NA 
HETATM   10  H   UNL     1      -8.995  10.752  68.348  1.00  0.00     0.000 HD 
HETATM   11  C   UNL     1      -7.192  11.513  68.959  1.00  0.00    -0.106 C  
HETATM   12  O   UNL     1      -6.465  10.931  65.962  1.00  0.00    -0.127 OA 
HETATM   13  C   UNL     1      -5.988  10.560  68.944  1.00  0.00    -0.040 C  
HETATM   14  C   UNL     1      -6.373   9.117  68.627  1.00  0.00    -0.049 C  
HETATM   15  O   UNL     1      -7.161   8.972  67.456  1.00  0.00    -0.075 OA 
ENDBRANCH   4   8
ENDBRANCH   3   4
TORSDOF 3
ENDMDL
MODEL      208
REMARK 921   NORMALIZED FREE ENERGY PREDICTED BY IDOCK:   -2.05 KCAL/MOL
REMARK 922        TOTAL FREE ENERGY PREDICTED BY IDOCK:   -2.64 KCAL/MOL
REMARK 923 INTER-LIGAND FREE ENERGY PREDICTED BY IDOCK:   -2.69 KCAL/MOL
REMARK 924 INTRA-LIGAND FREE ENERGY PREDICTED BY IDOCK:    0.05 KCAL/MOL
REMARK 927      BINDING AFFINITY PREDICTED BY RF-SCORE:    0.00 PKD
ROOT
HETATM    1 CL   UNL     1      -6.297  12.502  69.718  1.00  0.00    -0.111 Cl 
HETATM    2  C   UNL     1      -7.322  13.113  68.382  1.00  0.00    -0.116 C  
HETATM    3  C   UNL     1      -7.689  11.957  67.444  1.00  0.00    -0.158 C  
ENDROOT
BRANCH   3   4
HETATM    4  N   UNL     1      -8.549  12.217  66.241  1.00  0.00    -0.002 NA 
BRANCH   4   5
HETATM    5  C   UNL     1      -8.577  10.998  65.397  1.00  0.00    -0.068 C  
HETATM    6 CL   UNL     1      -7.561   8.724  64.292  1.00  0.00    -0.112 Cl 
HETATM    7  C   UNL     1      -7.272  10.194  65.276  1.00  0.00    -0.141 C  
ENDBRANCH   4   5
BRANCH   4   8
HETATM    8  P   UNL     1     -10.027  12.798  66.758  1.00  0.00    -0.246 P  
HETATM    9  N   UNL     1      -9.865  14.406  66.986  1.00  0.00    -0.246 NA 
HETATM   10  H   UNL     1      -9.435  14.836  66.167  1.00  0.00     0.000 HD 
HETATM   11  C   UNL     1     -11.097  15.108  67.336  1.00  0.00    -0.325 C  
HETATM   12  O   UNL     1     -10.585  12.072  67.945  1.00  0.00    -0.192 OA 
HETATM   13  C   UNL     1     -12.362  14.330  66.945  1.00  0.00    -0.240 C  
HETATM   14  C   UNL     1     -12.222  13.590  65.617  1.00  0.00    -0.458 C  
HETATM   15  O   UNL     1     -11.066  12.772  65.530  1.00  0.00    -0.277 OA 
ENDBRANCH   4   8
ENDBRANCH   3   4
TORSDOF 3
ENDMDL
MODEL      209
REMARK 921   NORMALIZED FREE ENERGY PREDICTED BY IDOCK:   -2.02 KCAL/MOL
REMARK 922        TOTAL FREE ENERGY PREDICTED BY IDOCK:   -2.61 KCAL/MOL
REMARK 923 INTER-LIGAND FREE ENERGY PREDICTED BY IDOCK:   -2.50 KCAL/MOL
REMARK 924 INTRA-LIGAND FREE ENERGY PREDICTED BY IDOCK:   -0.11 KCAL/MOL
REMARK 927      BINDING AFFINITY PREDICTED BY RF-SCORE:    0.00 PKD
ROOT
HETATM    1 CL   UNL     1      -5.923  11.192  69.273  1.00  0.00    -0.044 Cl 
HETATM    2  C   UNL     1      -7.055  10.150  70.190  1.00  0.00    -0.157 C  
HETATM    3  C   UNL     1      -7.983   9.415  69.215  1.00  0.00    -0.093 C  
ENDROOT
BRANCH   3   4
HETATM    4  N   UNL     1      -9.026   8.474  69.744  1.00  0.00    -0.144 NA 
BRANCH   4   5
HETATM    5  C   UNL     1     -10.244   9.247  70.087  1.00  0.00    -0.215 C  
HETATM    6 CL   UNL     1     -11.967  11.351  69.938  1.00  0.00    -0.406 Cl 
HETATM    7  C   UNL     1     -10.390  10.645  69.465  1.00  0.00    -0.182 C  
ENDBRANCH   4   5
BRANCH   4   8
HETATM    8  P   UNL     1      -9.220   7.226  68.652  1.00  0.00    -0.133 P  
HETATM    9  N   UNL     1      -9.793   5.940  69.478  1.00  0.00    -0.161 NA 
HETATM   10  H   UNL     1     -10.594   6.215  70.046  1.00  0.00     0.000 HD 
HETATM   11  C   UNL     1     -10.130   4.779  68.658  1.00  0.00    -0.044 C  
HETATM   12  O   UNL     1      -7.993   6.928  67.843  1.00  0.00    -0.111 OA 
HETATM   13  C   UNL     1     -10.358   5.133  67.181  1.00  0.00    -0.246 C  
HETATM   14  C   UNL     1     -11.070   6.471  66.991  1.00  0.00    -0.339 C  
HETATM   15  O   UNL     1     -10.471   7.549  67.693  1.00  0.00    -0.223 OA 
ENDBRANCH   4   8
ENDBRANCH   3   4
TORSDOF 3
ENDMDL
MODEL      210
REMARK 921   NORMALIZED FREE ENERGY PREDICTED BY IDOCK:   -2.02 KCAL/MOL
REMARK 922        TOTAL FREE ENERGY PREDICTED BY IDOCK:   -2.61 KCAL/MOL
REMARK 923 INTER-LIGAND FREE ENERGY PREDICTED BY IDOCK:   -2.38 KCAL/MOL
REMARK 924 INTRA-LIGAND FREE ENERGY PREDICTED BY IDOCK:   -0.23 KCAL/MOL
REMARK 927      BINDING AFFINITY PREDICTED BY RF-SCORE:    0.00 PKD
ROOT
HETATM    1 CL   UNL     1     -10.304  13.785  66.499  1.00  0.00    -0.281 Cl 
HETATM    2  C   UNL     1     -10.303  12.027  66.159  1.00  0.00    -0.224 C  
HETATM    3  C   UNL     1      -9.183  11.348  66.956  1.00  0.00    -0.169 C  
ENDROOT
BRANCH   3   4
HETATM    4  N   UNL     1      -8.977   9.866  66.841  1.00  0.00    -0.138 NA 
BRANCH   4   5
HETATM    5  C   UNL     1      -7.691   9.609  66.148  1.00  0.00    -0.102 C  
HETATM    6 CL   UNL     1      -5.160  10.192  65.326  1.00  0.00    -0.054 Cl 
HETATM    7  C   UNL     1      -6.663  10.751  66.127  1.00  0.00    -0.126 C  
ENDBRANCH   4   5
BRANCH   4   8
HETATM    8  P   UNL     1      -9.156   9.184  68.355  1.00  0.00    -0.131 P  
HETATM    9  N   UNL     1     -10.707   8.695  68.489  1.00  0.00    -0.416 NA 
HETATM   10  H   UNL     1     -10.974   8.142  67.675  1.00  0.00     0.000 HD 
HETATM   11  C   UNL     1     -11.022   7.969  69.717  1.00  0.00    -0.137 C  
HETATM   12  O   UNL     1      -8.700  10.066  69.478  1.00  0.00    -0.170 OA 
HETATM   13  C   UNL     1      -9.781   7.376  70.399  1.00  0.00    -0.175 C  
HETATM   14  C   UNL     1      -8.752   6.842  69.406  1.00  0.00    -0.133 C  
HETATM   15  O   UNL     1      -8.391   7.769  68.393  1.00  0.00    -0.123 OA 
ENDBRANCH   4   8
ENDBRANCH   3   4
TORSDOF 3
ENDMDL
MODEL      211
REMARK 921   NORMALIZED FREE ENERGY PREDICTED BY IDOCK:   -2.01 KCAL/MOL
REMARK 922        TOTAL FREE ENERGY PREDICTED BY IDOCK:   -2.60 KCAL/MOL
REMARK 923 INTER-LIGAND FREE ENERGY PREDICTED BY IDOCK:   -2.35 KCAL/MOL
REMARK 924 INTRA-LIGAND FREE ENERGY PREDICTED BY IDOCK:   -0.25 KCAL/MOL
REMARK 927      BINDING AFFINITY PREDICTED BY RF-SCORE:    0.00 PKD
ROOT
HETATM    1 CL   UNL     1     -11.687   9.296  71.884  1.00  0.00    -0.443 Cl 
HETATM    2  C   UNL     1     -11.192   8.987  70.191  1.00  0.00    -0.171 C  
HETATM    3  C   UNL     1     -10.061   9.945  69.801  1.00  0.00    -0.242 C  
ENDROOT
BRANCH   3   4
HETATM    4  N   UNL     1      -9.470   9.882  68.423  1.00  0.00    -0.136 NA 
BRANCH   4   5
HETATM    5  C   UNL     1     -10.284  10.721  67.510  1.00  0.00    -0.196 C  
HETATM    6 CL   UNL     1     -11.707  12.926  66.780  1.00  0.00    -0.421 Cl 
HETATM    7  C   UNL     1     -10.844  12.037  68.074  1.00  0.00    -0.216 C  
ENDBRANCH   4   5
BRANCH   4   8
HETATM    8  P   UNL     1      -7.845  10.250  68.522  1.00  0.00    -0.108 P  
HETATM    9  N   UNL     1      -7.421  10.967  67.118  1.00  0.00    -0.110 NA 
HETATM   10  H   UNL     1      -8.075  11.717  66.895  1.00  0.00     0.000 HD 
HETATM   11  C   UNL     1      -6.048  11.463  67.067  1.00  0.00    -0.120 C  
HETATM   12  O   UNL     1      -6.977   9.085  68.892  1.00  0.00    -0.063 OA 
HETATM   13  C   UNL     1      -5.432  11.669  68.458  1.00  0.00    -0.042 C  
HETATM   14  C   UNL     1      -6.431  12.209  69.479  1.00  0.00    -0.100 C  
HETATM   15  O   UNL     1      -7.639  11.467  69.554  1.00  0.00     0.021 OA 
ENDBRANCH   4   8
ENDBRANCH   3   4
TORSDOF 3
ENDMDL
MODEL      212
REMARK 921   NORMALIZED FREE ENERGY PREDICTED BY IDOCK:   -1.99 KCAL/MOL
REMARK 922        TOTAL FREE ENERGY PREDICTED BY IDOCK:   -2.57 KCAL/MOL
REMARK 923 INTER-LIGAND FREE ENERGY PREDICTED BY IDOCK:   -2.49 KCAL/MOL
REMARK 924 INTRA-LIGAND FREE ENERGY PREDICTED BY IDOCK:   -0.08 KCAL/MOL
REMARK 927      BINDING AFFINITY PREDICTED BY RF-SCORE:    0.00 PKD
ROOT
HETATM    1 CL   UNL     1     -12.046  12.703  70.116  1.00  0.00    -0.404 Cl 
HETATM    2  C   UNL     1     -10.946  12.417  68.731  1.00  0.00    -0.246 C  
HETATM    3  C   UNL     1     -10.375  13.753  68.242  1.00  0.00    -0.247 C  
ENDROOT
BRANCH   3   4
HETATM    4  N   UNL     1      -9.420  13.778  67.085  1.00  0.00    -0.235 NA 
BRANCH   4   5
HETATM    5  C   UNL     1      -9.377  15.150  66.524  1.00  0.00    -0.280 C  
HETATM    6 CL   UNL     1     -10.433  17.440  65.495  1.00  0.00    -0.214 Cl 
HETATM    7  C   UNL     1     -10.704  15.756  66.042  1.00  0.00    -0.306 C  
ENDBRANCH   4   5
BRANCH   4   8
HETATM    8  P   UNL     1      -7.963  13.132  67.583  1.00  0.00    -0.194 P  
HETATM    9  N   UNL     1      -6.799  14.217  67.218  1.00  0.00    -0.406 NA 
HETATM   10  H   UNL     1      -7.060  15.141  67.559  1.00  0.00     0.000 HD 
HETATM   11  C   UNL     1      -5.459  13.867  67.685  1.00  0.00     0.046 C  
HETATM   12  O   UNL     1      -7.694  11.755  67.054  1.00  0.00    -0.154 OA 
HETATM   13  C   UNL     1      -5.471  12.839  68.825  1.00  0.00    -0.066 C  
HETATM   14  C   UNL     1      -6.622  13.049  69.807  1.00  0.00     0.069 C  
HETATM   15  O   UNL     1      -7.896  13.149  69.190  1.00  0.00     0.150 OA 
ENDBRANCH   4   8
ENDBRANCH   3   4
TORSDOF 3
ENDMDL
MODEL      213
REMARK 921   NORMALIZED FREE ENERGY PREDICTED BY IDOCK:   -1.94 KCAL/MOL
REMARK 922        TOTAL FREE ENERGY PREDICTED BY IDOCK:   -2.52 KCAL/MOL
REMARK 923 INTER-LIGAND FREE ENERGY PREDICTED BY IDOCK:   -2.31 KCAL/MOL
REMARK 924 INTRA-LIGAND FREE ENERGY PREDICTED BY IDOCK:   -0.21 KCAL/MOL
REMARK 927      BINDING AFFINITY PREDICTED BY RF-SCORE:    0.00 PKD
ROOT
HETATM    1 CL   UNL     1      -9.619   4.160  64.346  1.00  0.00    -0.162 Cl 
HETATM    2  C   UNL     1      -8.850   5.315  65.479  1.00  0.00    -0.153 C  
HETATM    3  C   UNL     1      -9.550   5.243  66.841  1.00  0.00    -0.145 C  
ENDROOT
BRANCH   3   4
HETATM    4  N   UNL     1      -9.084   6.120  67.967  1.00  0.00    -0.116 NA 
BRANCH   4   5
HETATM    5  C   UNL     1      -9.466   7.523  67.675  1.00  0.00    -0.138 C  
HETATM    6 CL   UNL     1      -9.107  10.222  67.586  1.00  0.00    -0.140 Cl 
HETATM    7  C   UNL     1      -8.493   8.626  68.120  1.00  0.00    -0.131 C  
ENDBRANCH   4   5
BRANCH   4   8
HETATM    8  P   UNL     1      -9.641   5.481  69.405  1.00  0.00    -0.173 P  
HETATM    9  N   UNL     1      -9.272   3.891  69.407  1.00  0.00    -0.137 NA 
HETATM   10  H   UNL     1      -8.290   3.757  69.165  1.00  0.00     0.000 HD 
HETATM   11  C   UNL     1      -9.588   3.185  70.646  1.00  0.00    -0.142 C  
HETATM   12  O   UNL     1     -11.087   5.767  69.680  1.00  0.00    -0.372 OA 
HETATM   13  C   UNL     1      -9.732   4.124  71.852  1.00  0.00    -0.235 C  
HETATM   14  C   UNL     1      -8.734   5.279  71.832  1.00  0.00    -0.131 C  
HETATM   15  O   UNL     1      -8.715   6.005  70.612  1.00  0.00    -0.135 OA 
ENDBRANCH   4   8
ENDBRANCH   3   4
TORSDOF 3
ENDMDL
MODEL      214
REMARK 921   NORMALIZED FREE ENERGY PREDICTED BY IDOCK:   -1.94 KCAL/MOL
REMARK 922        TOTAL FREE ENERGY PREDICTED BY IDOCK:   -2.52 KCAL/MOL
REMARK 923 INTER-LIGAND FREE ENERGY PREDICTED BY IDOCK:   -2.27 KCAL/MOL
REMARK 924 INTRA-LIGAND FREE ENERGY PREDICTED BY IDOCK:   -0.25 KCAL/MOL
REMARK 927      BINDING AFFINITY PREDICTED BY RF-SCORE:    0.00 PKD
ROOT
HETATM    1 CL   UNL     1      -5.694   8.614  69.245  1.00  0.00    -0.035 Cl 
HETATM    2  C   UNL     1      -6.637   7.117  69.524  1.00  0.00    -0.044 C  
HETATM    3  C   UNL     1      -8.009   7.240  68.851  1.00  0.00    -0.123 C  
ENDROOT
BRANCH   3   4
HETATM    4  N   UNL     1      -8.989   6.106  68.941  1.00  0.00    -0.125 NA 
BRANCH   4   5
HETATM    5  C   UNL     1     -10.315   6.644  69.331  1.00  0.00    -0.199 C  
HETATM    6 CL   UNL     1     -12.524   6.888  70.907  1.00  0.00    -0.386 Cl 
HETATM    7  C   UNL     1     -10.988   6.029  70.568  1.00  0.00    -0.319 C  
ENDBRANCH   4   5
BRANCH   4   8
HETATM    8  P   UNL     1      -8.929   5.236  67.517  1.00  0.00    -0.110 P  
HETATM    9  N   UNL     1     -10.447   5.171  66.921  1.00  0.00    -0.242 NA 
HETATM   10  H   UNL     1     -10.857   6.105  66.901  1.00  0.00     0.000 HD 
HETATM   11  C   UNL     1     -10.570   4.538  65.610  1.00  0.00    -0.194 C  
HETATM   12  O   UNL     1      -8.274   3.894  67.650  1.00  0.00    -0.092 OA 
HETATM   13  C   UNL     1      -9.246   4.505  64.833  1.00  0.00    -0.156 C  
HETATM   14  C   UNL     1      -8.408   5.766  65.027  1.00  0.00    -0.138 C  
HETATM   15  O   UNL     1      -8.200   6.118  66.386  1.00  0.00    -0.108 OA 
ENDBRANCH   4   8
ENDBRANCH   3   4
TORSDOF 3
ENDMDL
MODEL      215
REMARK 921   NORMALIZED FREE ENERGY PREDICTED BY IDOCK:   -1.93 KCAL/MOL
REMARK 922        TOTAL FREE ENERGY PREDICTED BY IDOCK:   -2.50 KCAL/MOL
REMARK 923 INTER-LIGAND FREE ENERGY PREDICTED BY IDOCK:   -2.28 KCAL/MOL
REMARK 924 INTRA-LIGAND FREE ENERGY PREDICTED BY IDOCK:   -0.22 KCAL/MOL
REMARK 927      BINDING AFFINITY PREDICTED BY RF-SCORE:    0.00 PKD
ROOT
HETATM    1 CL   UNL     1      -9.448   3.290  68.878  1.00  0.00    -0.230 Cl 
HETATM    2  C   UNL     1      -8.945   4.773  68.009  1.00  0.00    -0.112 C  
HETATM    3  C   UNL     1      -8.863   5.946  68.994  1.00  0.00    -0.119 C  
ENDROOT
BRANCH   3   4
HETATM    4  N   UNL     1      -8.458   7.305  68.504  1.00  0.00    -0.125 NA 
BRANCH   4   5
HETATM    5  C   UNL     1      -7.920   7.182  67.128  1.00  0.00    -0.110 C  
HETATM    6 CL   UNL     1      -6.472   7.959  64.955  1.00  0.00    -0.048 Cl 
HETATM    7  C   UNL     1      -7.096   8.361  66.585  1.00  0.00    -0.073 C  
ENDBRANCH   4   5
BRANCH   4   8
HETATM    8  P   UNL     1      -9.745   8.350  68.709  1.00  0.00    -0.172 P  
HETATM    9  N   UNL     1     -10.332   8.111  70.213  1.00  0.00    -0.205 NA 
HETATM   10  H   UNL     1      -9.574   8.137  70.895  1.00  0.00     0.000 HD 
HETATM   11  C   UNL     1     -11.401   9.024  70.611  1.00  0.00    -0.265 C  
HETATM   12  O   UNL     1     -10.784   8.255  67.632  1.00  0.00    -0.219 OA 
HETATM   13  C   UNL     1     -11.432  10.312  69.777  1.00  0.00    -0.320 C  
HETATM   14  C   UNL     1     -10.039  10.830  69.426  1.00  0.00    -0.139 C  
HETATM   15  O   UNL     1      -9.192   9.855  68.838  1.00  0.00    -0.146 OA 
ENDBRANCH   4   8
ENDBRANCH   3   4
TORSDOF 3
ENDMDL
MODEL      216
REMARK 921   NORMALIZED FREE ENERGY PREDICTED BY IDOCK:   -1.91 KCAL/MOL
REMARK 922        TOTAL FREE ENERGY PREDICTED BY IDOCK:   -2.48 KCAL/MOL
REMARK 923 INTER-LIGAND FREE ENERGY PREDICTED BY IDOCK:   -2.72 KCAL/MOL
REMARK 924 INTRA-LIGAND FREE ENERGY PREDICTED BY IDOCK:    0.24 KCAL/MOL
REMARK 927      BINDING AFFINITY PREDICTED BY RF-SCORE:    0.00 PKD
ROOT
HETATM    1 CL   UNL     1      -8.006  10.038  68.541  1.00  0.00    -0.099 Cl 
HETATM    2  C   UNL     1      -9.483   9.036  68.697  1.00  0.00    -0.147 C  
HETATM    3  C   UNL     1      -9.182   7.601  68.248  1.00  0.00    -0.139 C  
ENDROOT
BRANCH   3   4
HETATM    4  N   UNL     1     -10.266   6.564  68.288  1.00  0.00    -0.158 NA 
BRANCH   4   5
HETATM    5  C   UNL     1      -9.915   5.463  67.359  1.00  0.00    -0.168 C  
HETATM    6 CL   UNL     1      -8.229   3.825  65.983  1.00  0.00    -0.100 Cl 
HETATM    7  C   UNL     1      -8.426   5.256  67.042  1.00  0.00    -0.106 C  
ENDBRANCH   4   5
BRANCH   4   8
HETATM    8  P   UNL     1     -10.537   6.137  69.879  1.00  0.00    -0.331 P  
HETATM    9  N   UNL     1      -9.509   7.010  70.799  1.00  0.00    -0.162 NA 
HETATM   10  H   UNL     1      -9.562   7.996  70.547  1.00  0.00     0.000 HD 
HETATM   11  C   UNL     1      -9.681   6.847  72.241  1.00  0.00    -0.146 C  
HETATM   12  O   UNL     1     -10.472   4.661  70.133  1.00  0.00    -0.135 OA 
HETATM   13  C   UNL     1     -11.065   6.305  72.624  1.00  0.00    -0.298 C  
HETATM   14  C   UNL     1     -12.187   6.863  71.751  1.00  0.00    -0.356 C  
HETATM   15  O   UNL     1     -11.951   6.738  70.357  1.00  0.00    -0.373 OA 
ENDBRANCH   4   8
ENDBRANCH   3   4
TORSDOF 3
ENDMDL
MODEL      217
REMARK 921   NORMALIZED FREE ENERGY PREDICTED BY IDOCK:   -1.85 KCAL/MOL
REMARK 922        TOTAL FREE ENERGY PREDICTED BY IDOCK:   -2.41 KCAL/MOL
REMARK 923 INTER-LIGAND FREE ENERGY PREDICTED BY IDOCK:   -2.18 KCAL/MOL
REMARK 924 INTRA-LIGAND FREE ENERGY PREDICTED BY IDOCK:   -0.23 KCAL/MOL
REMARK 927      BINDING AFFINITY PREDICTED BY RF-SCORE:    0.00 PKD
ROOT
HETATM    1 CL   UNL     1      -9.701   4.172  65.318  1.00  0.00    -0.187 Cl 
HETATM    2  C   UNL     1      -9.733   4.138  67.109  1.00  0.00    -0.186 C  
HETATM    3  C   UNL     1      -9.950   5.557  67.648  1.00  0.00    -0.156 C  
ENDROOT
BRANCH   3   4
HETATM    4  N   UNL     1     -10.016   5.791  69.129  1.00  0.00    -0.164 NA 
BRANCH   4   5
HETATM    5  C   UNL     1      -9.135   4.812  69.812  1.00  0.00    -0.108 C  
HETATM    6 CL   UNL     1      -8.562   2.744  71.490  1.00  0.00    -0.091 Cl 
HETATM    7  C   UNL     1      -9.781   3.901  70.868  1.00  0.00    -0.183 C  
ENDBRANCH   4   5
BRANCH   4   8
HETATM    8  P   UNL     1      -9.707   7.404  69.427  1.00  0.00    -0.162 P  
HETATM    9  N   UNL     1      -9.018   7.503  70.904  1.00  0.00    -0.148 NA 
HETATM   10  H   UNL     1      -8.246   6.841  70.977  1.00  0.00     0.000 HD 
HETATM   11  C   UNL     1      -8.573   8.841  71.290  1.00  0.00    -0.203 C  
HETATM   12  O   UNL     1     -10.900   8.295  69.256  1.00  0.00    -0.171 OA 
HETATM   13  C   UNL     1      -8.379   9.778  70.090  1.00  0.00    -0.201 C  
HETATM   14  C   UNL     1      -7.794   9.072  68.869  1.00  0.00    -0.095 C  
HETATM   15  O   UNL     1      -8.490   7.893  68.495  1.00  0.00    -0.127 OA 
ENDBRANCH   4   8
ENDBRANCH   3   4
TORSDOF 3
ENDMDL
MODEL      218
REMARK 921   NORMALIZED FREE ENERGY PREDICTED BY IDOCK:   -1.83 KCAL/MOL
REMARK 922        TOTAL FREE ENERGY PREDICTED BY IDOCK:   -2.39 KCAL/MOL
REMARK 923 INTER-LIGAND FREE ENERGY PREDICTED BY IDOCK:   -2.27 KCAL/MOL
REMARK 924 INTRA-LIGAND FREE ENERGY PREDICTED BY IDOCK:   -0.11 KCAL/MOL
REMARK 927      BINDING AFFINITY PREDICTED BY RF-SCORE:    0.00 PKD
ROOT
HETATM    1 CL   UNL     1     -11.137   6.405  66.882  1.00  0.00    -0.433 Cl 
HETATM    2  C   UNL     1      -9.854   7.115  67.910  1.00  0.00    -0.144 C  
HETATM    3  C   UNL     1     -10.012   8.639  67.952  1.00  0.00    -0.188 C  
ENDROOT
BRANCH   3   4
HETATM    4  N   UNL     1      -9.051   9.467  68.755  1.00  0.00    -0.131 NA 
BRANCH   4   5
HETATM    5  C   UNL     1      -9.049   8.981  70.156  1.00  0.00    -0.188 C  
HETATM    6 CL   UNL     1     -10.131   8.465  72.602  1.00  0.00    -0.355 Cl 
HETATM    7  C   UNL     1     -10.323   9.211  70.984  1.00  0.00    -0.293 C  
ENDBRANCH   4   5
BRANCH   4   8
HETATM    8  P   UNL     1      -7.577   9.483  67.970  1.00  0.00    -0.086 P  
HETATM    9  N   UNL     1      -7.873   9.303  66.375  1.00  0.00    -0.103 NA 
HETATM   10  H   UNL     1      -8.589   9.963  66.073  1.00  0.00     0.000 HD 
HETATM   11  C   UNL     1      -6.698   9.405  65.513  1.00  0.00    -0.075 C  
HETATM   12  O   UNL     1      -6.586   8.500  68.516  1.00  0.00    -0.057 OA 
HETATM   13  C   UNL     1      -5.525  10.137  66.182  1.00  0.00    -0.053 C  
HETATM   14  C   UNL     1      -5.971  11.308  67.053  1.00  0.00    -0.100 C  
HETATM   15  O   UNL     1      -6.977  10.975  67.998  1.00  0.00    -0.067 OA 
ENDBRANCH   4   8
ENDBRANCH   3   4
TORSDOF 3
ENDMDL
MODEL      219
REMARK 921   NORMALIZED FREE ENERGY PREDICTED BY IDOCK:   -1.79 KCAL/MOL
REMARK 922        TOTAL FREE ENERGY PREDICTED BY IDOCK:   -2.34 KCAL/MOL
REMARK 923 INTER-LIGAND FREE ENERGY PREDICTED BY IDOCK:   -2.10 KCAL/MOL
REMARK 924 INTRA-LIGAND FREE ENERGY PREDICTED BY IDOCK:   -0.24 KCAL/MOL
REMARK 927      BINDING AFFINITY PREDICTED BY RF-SCORE:    0.00 PKD
ROOT
HETATM    1 CL   UNL     1      -9.067   3.779  64.507  1.00  0.00    -0.130 Cl 
HETATM    2  C   UNL     1      -8.241   5.006  65.518  1.00  0.00    -0.118 C  
HETATM    3  C   UNL     1      -8.730   6.406  65.132  1.00  0.00     0.076 C  
ENDROOT
BRANCH   3   4
HETATM    4  N   UNL     1      -8.183   7.610  65.842  1.00  0.00    -0.125 NA 
BRANCH   4   5
HETATM    5  C   UNL     1      -7.687   8.580  64.836  1.00  0.00    -0.105 C  
HETATM    6 CL   UNL     1      -7.369   9.612  62.335  1.00  0.00    -0.112 Cl 
HETATM    7  C   UNL     1      -7.971   8.270  63.358  1.00  0.00    -0.155 C  
ENDBRANCH   4   5
BRANCH   4   8
HETATM    8  P   UNL     1      -9.340   8.171  66.908  1.00  0.00    -0.202 P  
HETATM    9  N   UNL     1      -8.637   8.279  68.377  1.00  0.00    -0.132 NA 
HETATM   10  H   UNL     1      -7.755   8.787  68.308  1.00  0.00     0.000 HD 
HETATM   11  C   UNL     1      -9.475   8.862  69.422  1.00  0.00    -0.161 C  
HETATM   12  O   UNL     1     -10.610   7.374  66.903  1.00  0.00    -0.326 OA 
HETATM   13  C   UNL     1     -10.634   9.700  68.864  1.00  0.00    -0.239 C  
HETATM   14  C   UNL     1     -10.249  10.498  67.620  1.00  0.00    -0.197 C  
HETATM   15  O   UNL     1      -9.637   9.722  66.602  1.00  0.00    -0.168 OA 
ENDBRANCH   4   8
ENDBRANCH   3   4
TORSDOF 3
ENDMDL
MODEL      220
REMARK 921   NORMALIZED FREE ENERGY PREDICTED BY IDOCK:   -1.74 KCAL/MOL
REMARK 922        TOTAL FREE ENERGY PREDICTED BY IDOCK:   -2.29 KCAL/MOL
REMARK 923 INTER-LIGAND FREE ENERGY PREDICTED BY IDOCK:   -2.28 KCAL/MOL
REMARK 924 INTRA-LIGAND FREE ENERGY PREDICTED BY IDOCK:   -0.00 KCAL/MOL
REMARK 927      BINDING AFFINITY PREDICTED BY RF-SCORE:    0.00 PKD
ROOT
HETATM    1 CL   UNL     1      -9.445   3.472  70.006  1.00  0.00    -0.254 Cl 
HETATM    2  C   UNL     1     -10.027   4.411  68.597  1.00  0.00    -0.002 C  
HETATM    3  C   UNL     1      -8.845   4.755  67.683  1.00  0.00    -0.104 C  
ENDROOT
BRANCH   3   4
HETATM    4  N   UNL     1      -9.077   5.543  66.427  1.00  0.00    -0.139 NA 
BRANCH   4   5
HETATM    5  C   UNL     1      -9.853   4.713  65.474  1.00  0.00    -0.184 C  
HETATM    6 CL   UNL     1     -10.204   2.787  63.579  1.00  0.00    -0.158 Cl 
HETATM    7  C   UNL     1      -9.065   3.747  64.575  1.00  0.00    -0.137 C  
ENDBRANCH   4   5
BRANCH   4   8
HETATM    8  P   UNL     1      -9.739   7.019  66.838  1.00  0.00    -0.176 P  
HETATM    9  N   UNL     1      -9.017   7.509  68.218  1.00  0.00    -0.131 NA 
HETATM   10  H   UNL     1      -8.003   7.441  68.128  1.00  0.00     0.000 HD 
HETATM   11  C   UNL     1      -9.394   8.845  68.672  1.00  0.00    -0.140 C  
HETATM   12  O   UNL     1     -11.236   7.018  66.907  1.00  0.00    -0.302 OA 
HETATM   13  C   UNL     1      -9.986   9.715  67.554  1.00  0.00    -0.231 C  
HETATM   14  C   UNL     1      -9.302   9.501  66.206  1.00  0.00    -0.188 C  
HETATM   15  O   UNL     1      -9.215   8.141  65.811  1.00  0.00    -0.139 OA 
ENDBRANCH   4   8
ENDBRANCH   3   4
TORSDOF 3
ENDMDL
MODEL      221
REMARK 921   NORMALIZED FREE ENERGY PREDICTED BY IDOCK:   -1.72 KCAL/MOL
REMARK 922        TOTAL FREE ENERGY PREDICTED BY IDOCK:   -2.25 KCAL/MOL
REMARK 923 INTER-LIGAND FREE ENERGY PREDICTED BY IDOCK:   -2.01 KCAL/MOL
REMARK 924 INTRA-LIGAND FREE ENERGY PREDICTED BY IDOCK:   -0.24 KCAL/MOL
REMARK 927      BINDING AFFINITY PREDICTED BY RF-SCORE:    0.00 PKD
ROOT
HETATM    1 CL   UNL     1      -8.287   3.984  64.097  1.00  0.00    -0.091 Cl 
HETATM    2  C   UNL     1      -7.516   4.757  65.517  1.00  0.00    -0.081 C  
HETATM    3  C   UNL     1      -8.159   6.125  65.773  1.00  0.00    -0.124 C  
ENDROOT
BRANCH   3   4
HETATM    4  N   UNL     1      -7.683   6.972  66.917  1.00  0.00    -0.101 NA 
BRANCH   4   5
HETATM    5  C   UNL     1      -7.507   8.366  66.444  1.00  0.00    -0.083 C  
HETATM    6 CL   UNL     1      -7.451  10.369  64.598  1.00  0.00    -0.090 Cl 
HETATM    7  C   UNL     1      -7.597   8.614  64.930  1.00  0.00    -0.100 C  
ENDBRANCH   4   5
BRANCH   4   8
HETATM    8  P   UNL     1      -8.715   6.749  68.210  1.00  0.00    -0.120 P  
HETATM    9  N   UNL     1     -10.232   6.663  67.614  1.00  0.00    -0.159 NA 
HETATM   10  H   UNL     1     -10.270   5.995  66.844  1.00  0.00     0.000 HD 
HETATM   11  C   UNL     1     -11.267   6.356  68.599  1.00  0.00    -0.248 C  
HETATM   12  O   UNL     1      -8.551   7.763  69.302  1.00  0.00    -0.136 OA 
HETATM   13  C   UNL     1     -10.710   5.696  69.868  1.00  0.00    -0.399 C  
HETATM   14  C   UNL     1      -9.574   4.717  69.584  1.00  0.00    -0.183 C  
HETATM   15  O   UNL     1      -8.533   5.257  68.784  1.00  0.00    -0.092 OA 
ENDBRANCH   4   8
ENDBRANCH   3   4
TORSDOF 3
ENDMDL
MODEL      222
REMARK 921   NORMALIZED FREE ENERGY PREDICTED BY IDOCK:   -1.70 KCAL/MOL
REMARK 922        TOTAL FREE ENERGY PREDICTED BY IDOCK:   -2.23 KCAL/MOL
REMARK 923 INTER-LIGAND FREE ENERGY PREDICTED BY IDOCK:   -2.03 KCAL/MOL
REMARK 924 INTRA-LIGAND FREE ENERGY PREDICTED BY IDOCK:   -0.21 KCAL/MOL
REMARK 927      BINDING AFFINITY PREDICTED BY RF-SCORE:    0.00 PKD
ROOT
HETATM    1 CL   UNL     1      -9.707   9.706  67.945  1.00  0.00    -0.163 Cl 
HETATM    2  C   UNL     1      -8.695   8.545  68.859  1.00  0.00    -0.131 C  
HETATM    3  C   UNL     1      -9.168   7.114  68.576  1.00  0.00    -0.134 C  
ENDROOT
BRANCH   3   4
HETATM    4  N   UNL     1      -8.472   5.955  69.228  1.00  0.00    -0.112 NA 
BRANCH   4   5
HETATM    5  C   UNL     1      -8.940   5.838  70.630  1.00  0.00    -0.140 C  
HETATM    6 CL   UNL     1     -10.792   5.774  72.627  1.00  0.00    -0.276 Cl 
HETATM    7  C   UNL     1     -10.439   6.054  70.893  1.00  0.00    -0.236 C  
ENDBRANCH   4   5
BRANCH   4   8
HETATM    8  P   UNL     1      -8.668   4.606  68.263  1.00  0.00    -0.109 P  
HETATM    9  N   UNL     1      -9.433   5.085  66.904  1.00  0.00    -0.134 NA 
HETATM   10  H   UNL     1      -8.967   5.901  66.507  1.00  0.00     0.000 HD 
HETATM   11  C   UNL     1      -9.592   4.050  65.886  1.00  0.00    -0.193 C  
HETATM   12  O   UNL     1      -9.330   3.453  68.956  1.00  0.00    -0.153 OA 
HETATM   13  C   UNL     1      -8.607   2.885  66.056  1.00  0.00    -0.119 C  
HETATM   14  C   UNL     1      -7.223   3.336  66.517  1.00  0.00    -0.063 C  
HETATM   15  O   UNL     1      -7.239   4.169  67.665  1.00  0.00    -0.065 OA 
ENDBRANCH   4   8
ENDBRANCH   3   4
TORSDOF 3
ENDMDL
MODEL      223
REMARK 921   NORMALIZED FREE ENERGY PREDICTED BY IDOCK:   -1.70 KCAL/MOL
REMARK 922        TOTAL FREE ENERGY PREDICTED BY IDOCK:   -2.23 KCAL/MOL
REMARK 923 INTER-LIGAND FREE ENERGY PREDICTED BY IDOCK:   -3.93 KCAL/MOL
REMARK 924 INTRA-LIGAND FREE ENERGY PREDICTED BY IDOCK:    1.70 KCAL/MOL
REMARK 927      BINDING AFFINITY PREDICTED BY RF-SCORE:    0.00 PKD
ROOT
HETATM    1 CL   UNL     1     -12.636  13.977  64.886  1.00  0.00    -0.400 Cl 
HETATM    2  C   UNL     1     -11.402  14.745  65.932  1.00  0.00    -0.331 C  
HETATM    3  C   UNL     1     -10.598  15.766  65.118  1.00  0.00    -0.411 C  
ENDROOT
BRANCH   3   4
HETATM    4  N   UNL     1      -9.499  16.547  65.776  1.00  0.00    -0.513 NA 
BRANCH   4   5
HETATM    5  C   UNL     1      -9.983  17.922  66.052  1.00  0.00    -0.210 C  
HETATM    6 CL   UNL     1     -10.536  20.088  67.609  1.00  0.00    -0.468 Cl 
HETATM    7  C   UNL     1     -10.011  18.377  67.520  1.00  0.00    -0.335 C  
ENDBRANCH   4   5
BRANCH   4   8
HETATM    8  P   UNL     1      -8.939  15.678  67.087  1.00  0.00    -0.245 P  
HETATM    9  N   UNL     1      -7.583  16.416  67.618  1.00  0.00    -0.136 NA 
HETATM   10  H   UNL     1      -7.750  17.416  67.735  1.00  0.00     0.000 HD 
HETATM   11  C   UNL     1      -7.011  15.854  68.839  1.00  0.00    -0.143 C  
HETATM   12  O   UNL     1      -8.765  14.214  66.818  1.00  0.00    -0.208 OA 
HETATM   13  C   UNL     1      -8.021  15.032  69.652  1.00  0.00    -0.069 C  
HETATM   14  C   UNL     1      -9.426  15.630  69.639  1.00  0.00    -0.243 C  
HETATM   15  O   UNL     1      -9.920  15.916  68.340  1.00  0.00    -0.217 OA 
ENDBRANCH   4   8
ENDBRANCH   3   4
TORSDOF 3
ENDMDL
MODEL      224
REMARK 921   NORMALIZED FREE ENERGY PREDICTED BY IDOCK:   -1.60 KCAL/MOL
REMARK 922        TOTAL FREE ENERGY PREDICTED BY IDOCK:   -2.12 KCAL/MOL
REMARK 923 INTER-LIGAND FREE ENERGY PREDICTED BY IDOCK:   -1.89 KCAL/MOL
REMARK 924 INTRA-LIGAND FREE ENERGY PREDICTED BY IDOCK:   -0.23 KCAL/MOL
REMARK 927      BINDING AFFINITY PREDICTED BY RF-SCORE:    0.00 PKD
ROOT
HETATM    1 CL   UNL     1      -6.100   7.612  72.373  1.00  0.00    -0.039 Cl 
HETATM    2  C   UNL     1      -6.227   7.344  70.607  1.00  0.00    -0.035 C  
HETATM    3  C   UNL     1      -7.704   7.278  70.200  1.00  0.00    -0.091 C  
ENDROOT
BRANCH   3   4
HETATM    4  N   UNL     1      -8.073   7.060  68.762  1.00  0.00    -0.120 NA 
BRANCH   4   5
HETATM    5  C   UNL     1      -8.813   5.781  68.642  1.00  0.00    -0.110 C  
HETATM    6 CL   UNL     1      -9.502   3.416  67.477  1.00  0.00    -0.253 Cl 
HETATM    7  C   UNL     1      -8.588   4.953  67.366  1.00  0.00    -0.104 C  
ENDBRANCH   4   5
BRANCH   4   8
HETATM    8  P   UNL     1      -8.852   8.426  68.200  1.00  0.00    -0.142 P  
HETATM    9  N   UNL     1     -10.154   8.671  69.153  1.00  0.00    -0.193 NA 
HETATM   10  H   UNL     1      -9.882   8.639  70.135  1.00  0.00     0.000 HD 
HETATM   11  C   UNL     1     -10.901   9.896  68.876  1.00  0.00    -0.210 C  
HETATM   12  O   UNL     1      -9.173   8.385  66.736  1.00  0.00    -0.152 OA 
HETATM   13  C   UNL     1     -10.075  10.942  68.114  1.00  0.00    -0.190 C  
HETATM   14  C   UNL     1      -8.615  10.988  68.555  1.00  0.00    -0.158 C  
HETATM   15  O   UNL     1      -7.971   9.724  68.555  1.00  0.00    -0.087 OA 
ENDBRANCH   4   8
ENDBRANCH   3   4
TORSDOF 3
ENDMDL
MODEL      225
REMARK 921   NORMALIZED FREE ENERGY PREDICTED BY IDOCK:   -1.59 KCAL/MOL
REMARK 922        TOTAL FREE ENERGY PREDICTED BY IDOCK:   -2.10 KCAL/MOL
REMARK 923 INTER-LIGAND FREE ENERGY PREDICTED BY IDOCK:   -1.90 KCAL/MOL
REMARK 924 INTRA-LIGAND FREE ENERGY PREDICTED BY IDOCK:   -0.20 KCAL/MOL
REMARK 927      BINDING AFFINITY PREDICTED BY RF-SCORE:    0.00 PKD
ROOT
HETATM    1 CL   UNL     1      -9.358   3.493  69.909  1.00  0.00    -0.233 Cl 
HETATM    2  C   UNL     1      -9.764   4.527  68.504  1.00  0.00    -0.130 C  
HETATM    3  C   UNL     1      -8.703   4.352  67.411  1.00  0.00    -0.105 C  
ENDROOT
BRANCH   3   4
HETATM    4  N   UNL     1      -8.823   5.117  66.125  1.00  0.00    -0.128 NA 
BRANCH   4   5
HETATM    5  C   UNL     1      -7.861   6.246  66.144  1.00  0.00    -0.105 C  
HETATM    6 CL   UNL     1      -6.967   8.728  66.824  1.00  0.00    -0.079 Cl 
HETATM    7  C   UNL     1      -8.310   7.542  66.838  1.00  0.00    -0.125 C  
ENDBRANCH   4   5
BRANCH   4   8
HETATM    8  P   UNL     1      -8.685   4.044  64.853  1.00  0.00    -0.129 P  
HETATM    9  N   UNL     1      -9.860   2.925  65.030  1.00  0.00    -0.361 NA 
HETATM   10  H   UNL     1     -10.759   3.380  65.184  1.00  0.00     0.000 HD 
HETATM   11  C   UNL     1      -9.964   1.960  63.938  1.00  0.00    -0.109 C  
HETATM   12  O   UNL     1      -7.313   3.461  64.693  1.00  0.00    -0.068 OA 
HETATM   13  C   UNL     1      -9.316   2.454  62.637  1.00  0.00    -0.090 C  
HETATM   14  C   UNL     1      -9.524   3.947  62.396  1.00  0.00    -0.111 C  
HETATM   15  O   UNL     1      -9.160   4.766  63.496  1.00  0.00    -0.122 OA 
ENDBRANCH   4   8
ENDBRANCH   3   4
TORSDOF 3
ENDMDL
MODEL      226
REMARK 921   NORMALIZED FREE ENERGY PREDICTED BY IDOCK:   -1.52 KCAL/MOL
REMARK 922        TOTAL FREE ENERGY PREDICTED BY IDOCK:   -2.02 KCAL/MOL
REMARK 923 INTER-LIGAND FREE ENERGY PREDICTED BY IDOCK:   -1.85 KCAL/MOL
REMARK 924 INTRA-LIGAND FREE ENERGY PREDICTED BY IDOCK:   -0.18 KCAL/MOL
REMARK 927      BINDING AFFINITY PREDICTED BY RF-SCORE:    0.00 PKD
ROOT
HETATM    1 CL   UNL     1      -7.865   2.550  64.455  1.00  0.00    -0.076 Cl 
HETATM    2  C   UNL     1      -7.401   3.822  65.627  1.00  0.00    -0.072 C  
HETATM    3  C   UNL     1      -8.362   5.010  65.506  1.00  0.00    -0.126 C  
ENDROOT
BRANCH   3   4
HETATM    4  N   UNL     1      -8.181   6.210  66.390  1.00  0.00    -0.111 NA 
BRANCH   4   5
HETATM    5  C   UNL     1      -8.408   7.437  65.589  1.00  0.00    -0.140 C  
HETATM    6 CL   UNL     1      -8.306   8.994  63.356  1.00  0.00    -0.187 Cl 
HETATM    7  C   UNL     1      -7.834   7.466  64.164  1.00  0.00    -0.120 C  
ENDBRANCH   4   5
BRANCH   4   8
HETATM    8  P   UNL     1      -9.134   6.020  67.747  1.00  0.00    -0.106 P  
HETATM    9  N   UNL     1      -8.212   6.385  69.044  1.00  0.00    -0.114 NA 
HETATM   10  H   UNL     1      -7.744   7.279  68.903  1.00  0.00     0.000 HD 
HETATM   11  C   UNL     1      -8.917   6.381  70.324  1.00  0.00    -0.154 C  
HETATM   12  O   UNL     1      -9.804   4.682  67.839  1.00  0.00    -0.158 OA 
HETATM   13  C   UNL     1     -10.438   6.528  70.172  1.00  0.00    -0.259 C  
HETATM   14  C   UNL     1     -10.836   7.487  69.053  1.00  0.00    -0.061 C  
HETATM   15  O   UNL     1     -10.218   7.207  67.806  1.00  0.00    -0.161 OA 
ENDBRANCH   4   8
ENDBRANCH   3   4
TORSDOF 3
ENDMDL
MODEL      227
REMARK 921   NORMALIZED FREE ENERGY PREDICTED BY IDOCK:   -1.28 KCAL/MOL
REMARK 922        TOTAL FREE ENERGY PREDICTED BY IDOCK:   -1.75 KCAL/MOL
REMARK 923 INTER-LIGAND FREE ENERGY PREDICTED BY IDOCK:   -1.65 KCAL/MOL
REMARK 924 INTRA-LIGAND FREE ENERGY PREDICTED BY IDOCK:   -0.09 KCAL/MOL
REMARK 927      BINDING AFFINITY PREDICTED BY RF-SCORE:    0.00 PKD
ROOT
HETATM    1 CL   UNL     1      -9.314   2.910  63.934  1.00  0.00    -0.106 Cl 
HETATM    2  C   UNL     1      -8.540   4.235  64.856  1.00  0.00    -0.126 C  
HETATM    3  C   UNL     1      -8.507   3.875  66.346  1.00  0.00    -0.109 C  
ENDROOT
BRANCH   3   4
HETATM    4  N   UNL     1      -7.902   4.831  67.332  1.00  0.00    -0.094 NA 
BRANCH   4   5
HETATM    5  C   UNL     1      -8.478   6.180  67.112  1.00  0.00    -0.104 C  
HETATM    6 CL   UNL     1     -10.477   8.021  66.925  1.00  0.00    -0.411 Cl 
HETATM    7  C   UNL     1     -10.010   6.301  67.113  1.00  0.00    -0.151 C  
ENDBRANCH   4   5
BRANCH   4   8
HETATM    8  P   UNL     1      -8.070   4.192  68.866  1.00  0.00    -0.071 P  
HETATM    9  N   UNL     1      -9.198   3.016  68.782  1.00  0.00    -0.153 NA 
HETATM   10  H   UNL     1      -8.987   2.380  68.013  1.00  0.00     0.000 HD 
HETATM   11  C   UNL     1      -9.399   2.263  70.018  1.00  0.00    -0.104 C  
HETATM   12  O   UNL     1      -8.342   5.216  69.926  1.00  0.00    -0.090 OA 
HETATM   13  C   UNL     1      -8.210   2.367  70.984  1.00  0.00    -0.066 C  
HETATM   14  C   UNL     1      -6.860   2.373  70.271  1.00  0.00    -0.033 C  
HETATM   15  O   UNL     1      -6.762   3.329  69.227  1.00  0.00    -0.036 OA 
ENDBRANCH   4   8
ENDBRANCH   3   4
TORSDOF 3
ENDMDL
MODEL      228
REMARK 921   NORMALIZED FREE ENERGY PREDICTED BY IDOCK:   -1.25 KCAL/MOL
REMARK 922        TOTAL FREE ENERGY PREDICTED BY IDOCK:   -1.71 KCAL/MOL
REMARK 923 INTER-LIGAND FREE ENERGY PREDICTED BY IDOCK:   -1.46 KCAL/MOL
REMARK 924 INTRA-LIGAND FREE ENERGY PREDICTED BY IDOCK:   -0.25 KCAL/MOL
REMARK 927      BINDING AFFINITY PREDICTED BY RF-SCORE:    0.00 PKD
ROOT
HETATM    1 CL   UNL     1      -5.162   7.679  73.242  1.00  0.00    -0.041 Cl 
HETATM    2  C   UNL     1      -5.346   7.848  71.469  1.00  0.00    -0.034 C  
HETATM    3  C   UNL     1      -6.572   7.056  71.000  1.00  0.00    -0.048 C  
ENDROOT
BRANCH   3   4
HETATM    4  N   UNL     1      -6.940   7.042  69.545  1.00  0.00    -0.061 NA 
BRANCH   4   5
HETATM    5  C   UNL     1      -7.386   5.677  69.173  1.00  0.00    -0.078 C  
HETATM    6 CL   UNL     1      -8.077   3.083  69.637  1.00  0.00    -0.059 Cl 
HETATM    7  C   UNL     1      -7.424   4.620  70.288  1.00  0.00    -0.050 C  
ENDBRANCH   4   5
BRANCH   4   8
HETATM    8  P   UNL     1      -8.021   8.282  69.257  1.00  0.00    -0.117 P  
HETATM    9  N   UNL     1      -8.824   7.919  67.883  1.00  0.00    -0.124 NA 
HETATM   10  H   UNL     1      -9.182   6.965  67.927  1.00  0.00     0.000 HD 
HETATM   11  C   UNL     1      -9.898   8.846  67.532  1.00  0.00    -0.184 C  
HETATM   12  O   UNL     1      -7.396   9.645  69.250  1.00  0.00    -0.071 OA 
HETATM   13  C   UNL     1     -10.393   9.672  68.728  1.00  0.00    -0.233 C  
HETATM   14  C   UNL     1     -10.429   8.875  70.029  1.00  0.00    -0.213 C  
HETATM   15  O   UNL     1      -9.215   8.206  70.332  1.00  0.00    -0.149 OA 
ENDBRANCH   4   8
ENDBRANCH   3   4
TORSDOF 3
ENDMDL
MODEL      229
REMARK 921   NORMALIZED FREE ENERGY PREDICTED BY IDOCK:   -1.24 KCAL/MOL
REMARK 922        TOTAL FREE ENERGY PREDICTED BY IDOCK:   -1.69 KCAL/MOL
REMARK 923 INTER-LIGAND FREE ENERGY PREDICTED BY IDOCK:   -1.81 KCAL/MOL
REMARK 924 INTRA-LIGAND FREE ENERGY PREDICTED BY IDOCK:    0.12 KCAL/MOL
REMARK 927      BINDING AFFINITY PREDICTED BY RF-SCORE:    0.00 PKD
ROOT
HETATM    1 CL   UNL     1      -5.239   7.723  73.188  1.00  0.00    -0.040 Cl 
HETATM    2  C   UNL     1      -5.577   8.082  71.466  1.00  0.00    -0.034 C  
HETATM    3  C   UNL     1      -7.038   7.745  71.146  1.00  0.00    -0.050 C  
ENDROOT
BRANCH   3   4
HETATM    4  N   UNL     1      -7.568   7.962  69.759  1.00  0.00    -0.088 NA 
BRANCH   4   5
HETATM    5  C   UNL     1      -8.796   7.150  69.579  1.00  0.00    -0.137 C  
HETATM    6 CL   UNL     1     -10.232   4.847  69.336  1.00  0.00    -0.275 Cl 
HETATM    7  C   UNL     1      -8.623   5.628  69.450  1.00  0.00    -0.106 C  
ENDBRANCH   4   5
BRANCH   4   8
HETATM    8  P   UNL     1      -7.717   9.604  69.496  1.00  0.00    -0.142 P  
HETATM    9  N   UNL     1      -7.019   9.932  68.057  1.00  0.00    -0.076 NA 
HETATM   10  H   UNL     1      -7.369   9.294  67.343  1.00  0.00     0.000 HD 
HETATM   11  C   UNL     1      -7.152  11.315  67.607  1.00  0.00    -0.090 C  
HETATM   12  O   UNL     1      -7.205  10.450  70.623  1.00  0.00    -0.259 OA 
HETATM   13  C   UNL     1      -8.308  12.060  68.290  1.00  0.00    -0.163 C  
HETATM   14  C   UNL     1      -9.535  11.180  68.515  1.00  0.00    -0.193 C  
HETATM   15  O   UNL     1      -9.253   9.953  69.171  1.00  0.00    -0.159 OA 
ENDBRANCH   4   8
ENDBRANCH   3   4
TORSDOF 3
ENDMDL
MODEL      230
REMARK 921   NORMALIZED FREE ENERGY PREDICTED BY IDOCK:   -1.19 KCAL/MOL
REMARK 922        TOTAL FREE ENERGY PREDICTED BY IDOCK:   -1.64 KCAL/MOL
REMARK 923 INTER-LIGAND FREE ENERGY PREDICTED BY IDOCK:   -1.58 KCAL/MOL
REMARK 924 INTRA-LIGAND FREE ENERGY PREDICTED BY IDOCK:   -0.07 KCAL/MOL
REMARK 927      BINDING AFFINITY PREDICTED BY RF-SCORE:    0.00 PKD
ROOT
HETATM    1 CL   UNL     1      -6.716   6.655  70.947  1.00  0.00    -0.053 Cl 
HETATM    2  C   UNL     1      -7.472   6.614  69.324  1.00  0.00    -0.095 C  
HETATM    3  C   UNL     1      -7.844   8.037  68.893  1.00  0.00    -0.113 C  
ENDROOT
BRANCH   3   4
HETATM    4  N   UNL     1      -8.495   8.267  67.560  1.00  0.00    -0.129 NA 
BRANCH   4   5
HETATM    5  C   UNL     1      -9.108   9.617  67.549  1.00  0.00    -0.130 C  
HETATM    6 CL   UNL     1     -11.110  11.427  67.176  1.00  0.00    -0.345 Cl 
HETATM    7  C   UNL     1     -10.542   9.736  67.009  1.00  0.00    -0.199 C  
ENDBRANCH   4   5
BRANCH   4   8
HETATM    8  P   UNL     1      -7.379   7.947  66.360  1.00  0.00    -0.089 P  
HETATM    9  N   UNL     1      -7.433   6.343  66.060  1.00  0.00    -0.080 NA 
HETATM   10  H   UNL     1      -8.397   6.045  65.916  1.00  0.00     0.000 HD 
HETATM   11  C   UNL     1      -6.595   5.894  64.951  1.00  0.00    -0.042 C  
HETATM   12  O   UNL     1      -6.002   8.460  66.656  1.00  0.00    -0.047 OA 
HETATM   13  C   UNL     1      -6.222   7.026  63.983  1.00  0.00    -0.036 C  
HETATM   14  C   UNL     1      -7.358   8.022  63.763  1.00  0.00    -0.102 C  
HETATM   15  O   UNL     1      -7.919   8.533  64.963  1.00  0.00    -0.114 OA 
ENDBRANCH   4   8
ENDBRANCH   3   4
TORSDOF 3
ENDMDL
MODEL      231
REMARK 921   NORMALIZED FREE ENERGY PREDICTED BY IDOCK:    0.24 KCAL/MOL
REMARK 922        TOTAL FREE ENERGY PREDICTED BY IDOCK:    0.05 KCAL/MOL
REMARK 923 INTER-LIGAND FREE ENERGY PREDICTED BY IDOCK:   -0.09 KCAL/MOL
REMARK 924 INTRA-LIGAND FREE ENERGY PREDICTED BY IDOCK:    0.14 KCAL/MOL
REMARK 927      BINDING AFFINITY PREDICTED BY RF-SCORE:    0.00 PKD
ROOT
HETATM    1 CL   UNL     1      -8.088  12.801  68.287  1.00  0.00    -0.151 Cl 
HETATM    2  C   UNL     1      -8.112  14.409  67.500  1.00  0.00    -0.190 C  
HETATM    3  C   UNL     1      -7.494  15.452  68.438  1.00  0.00    -0.115 C  
ENDROOT
BRANCH   3   4
HETATM    4  N   UNL     1      -7.398  16.885  68.002  1.00  0.00    -0.166 NA 
BRANCH   4   5
HETATM    5  C   UNL     1      -6.635  16.953  66.732  1.00  0.00    -0.225 C  
HETATM    6 CL   UNL     1      -5.129  18.156  64.808  1.00  0.00    -0.103 Cl 
HETATM    7  C   UNL     1      -6.089  18.327  66.311  1.00  0.00    -0.184 C  
ENDBRANCH   4   5
BRANCH   4   8
HETATM    8  P   UNL     1      -8.934  17.540  67.984  1.00  0.00    -0.270 P  
HETATM    9  N   UNL     1      -9.738  16.861  66.736  1.00  0.00    -0.255 NA 
HETATM   10  H   UNL     1      -9.645  15.846  66.768  1.00  0.00     0.000 HD 
HETATM   11  C   UNL     1     -11.146  17.236  66.631  1.00  0.00     0.391 C  
HETATM   12  O   UNL     1      -8.957  19.039  67.974  1.00  0.00    -0.292 OA 
HETATM   13  C   UNL     1     -11.724  17.775  67.948  1.00  0.00     1.464 C  
HETATM   14  C   UNL     1     -11.188  17.046  69.177  1.00  0.00     0.221 C  
HETATM   15  O   UNL     1      -9.772  16.964  69.230  1.00  0.00    -0.215 OA 
ENDBRANCH   4   8
ENDBRANCH   3   4
TORSDOF 3
ENDMDL
MODEL      232
REMARK 921   NORMALIZED FREE ENERGY PREDICTED BY IDOCK:    4.77 KCAL/MOL
REMARK 922        TOTAL FREE ENERGY PREDICTED BY IDOCK:    5.37 KCAL/MOL
REMARK 923 INTER-LIGAND FREE ENERGY PREDICTED BY IDOCK:    5.41 KCAL/MOL
REMARK 924 INTRA-LIGAND FREE ENERGY PREDICTED BY IDOCK:   -0.05 KCAL/MOL
REMARK 927      BINDING AFFINITY PREDICTED BY RF-SCORE:    0.00 PKD
ROOT
HETATM    1 CL   UNL     1      -9.700  19.313  71.913  1.00  0.00     3.633 Cl 
HETATM    2  C   UNL     1     -10.994  18.573  70.919  1.00  0.00     3.298 C  
HETATM    3  C   UNL     1     -10.691  17.085  70.705  1.00  0.00     0.794 C  
ENDROOT
BRANCH   3   4
HETATM    4  N   UNL     1     -11.635  16.240  69.900  1.00  0.00    -0.220 NA 
BRANCH   4   5
HETATM    5  C   UNL     1     -11.087  16.073  68.532  1.00  0.00    -0.347 C  
HETATM    6 CL   UNL     1      -9.959  16.905  66.196  1.00  0.00    -0.330 Cl 
HETATM    7  C   UNL     1     -10.676  17.347  67.777  1.00  0.00    -0.332 C  
ENDBRANCH   4   5
BRANCH   4   8
HETATM    8  P   UNL     1     -11.952  14.838  70.750  1.00  0.00    -0.348 P  
HETATM    9  N   UNL     1     -13.565  14.590  70.697  1.00  0.00    -0.436 NA 
HETATM   10  H   UNL     1     -13.900  14.660  69.736  1.00  0.00     0.000 HD 
HETATM   11  C   UNL     1     -14.018  13.339  71.300  1.00  0.00     0.723 C  
HETATM   12  O   UNL     1     -11.384  14.826  72.138  1.00  0.00    -0.138 OA 
HETATM   13  C   UNL     1     -12.903  12.291  71.416  1.00  0.00    -0.373 C  
HETATM   14  C   UNL     1     -11.952  12.295  70.221  1.00  0.00    -0.290 C  
HETATM   15  O   UNL     1     -11.426  13.574  69.906  1.00  0.00    -0.221 OA 
ENDBRANCH   4   8
ENDBRANCH   3   4
TORSDOF 3
ENDMDL
MODEL      233
REMARK 921   NORMALIZED FREE ENERGY PREDICTED BY IDOCK:   11.05 KCAL/MOL
REMARK 922        TOTAL FREE ENERGY PREDICTED BY IDOCK:   12.76 KCAL/MOL
REMARK 923 INTER-LIGAND FREE ENERGY PREDICTED BY IDOCK:   11.88 KCAL/MOL
REMARK 924 INTRA-LIGAND FREE ENERGY PREDICTED BY IDOCK:    0.88 KCAL/MOL
REMARK 927      BINDING AFFINITY PREDICTED BY RF-SCORE:    0.00 PKD
ROOT
HETATM    1 CL   UNL     1      -7.386  15.500  66.810  1.00  0.00    -0.055 Cl 
HETATM    2  C   UNL     1      -7.278  17.288  66.822  1.00  0.00    -0.214 C  
HETATM    3  C   UNL     1      -8.621  17.889  66.391  1.00  0.00    -0.227 C  
ENDROOT
BRANCH   3   4
HETATM    4  N   UNL     1      -8.784  19.380  66.322  1.00  0.00    -0.351 NA 
BRANCH   4   5
HETATM    5  C   UNL     1      -9.517  19.728  65.081  1.00  0.00     1.401 C  
HETATM    6 CL   UNL     1     -11.571  20.769  63.625  1.00  0.00     4.185 Cl 
HETATM    7  C   UNL     1     -10.916  20.344  65.238  1.00  0.00     0.530 C  
ENDBRANCH   4   5
BRANCH   4   8
HETATM    8  P   UNL     1      -9.456  19.909  67.756  1.00  0.00    -0.361 P  
HETATM    9  N   UNL     1     -11.039  19.512  67.728  1.00  0.00    -0.228 NA 
HETATM   10  H   UNL     1     -11.152  18.531  67.473  1.00  0.00     0.000 HD 
HETATM   11  C   UNL     1     -11.771  19.801  68.959  1.00  0.00     4.219 C  
HETATM   12  O   UNL     1      -9.201  21.356  68.051  1.00  0.00     0.433 OA 
HETATM   13  C   UNL     1     -10.854  19.948  70.181  1.00  0.00     1.748 C  
HETATM   14  C   UNL     1      -9.681  18.971  70.169  1.00  0.00     1.093 C  
HETATM   15  O   UNL     1      -8.935  18.979  68.961  1.00  0.00    -0.294 OA 
ENDBRANCH   4   8
ENDBRANCH   3   4
TORSDOF 3
ENDMDL
