MODEL        1
REMARK 921   NORMALIZED FREE ENERGY PREDICTED BY IDOCK:   -6.60 KCAL/MOL
REMARK 922        TOTAL FREE ENERGY PREDICTED BY IDOCK:   -7.72 KCAL/MOL
REMARK 923 INTER-LIGAND FREE ENERGY PREDICTED BY IDOCK:   -7.75 KCAL/MOL
REMARK 924 INTRA-LIGAND FREE ENERGY PREDICTED BY IDOCK:    0.03 KCAL/MOL
REMARK 927      BINDING AFFINITY PREDICTED BY RF-SCORE:    0.00 PKD
ROOT
HETATM    1  C   UNL     1     -10.220  14.347  65.492  1.00  0.00    -0.363 C  
HETATM    2  N   UNL     1      -9.854  14.128  66.890  1.00  0.00    -0.258 NA 
HETATM    3  C   UNL     1     -10.518  15.101  67.783  1.00  0.00    -0.247 C  
HETATM    4  C   UNL     1     -12.005  14.802  68.097  1.00  0.00    -0.230 C  
HETATM    5  N   UNL     1     -12.281  13.432  68.587  1.00  0.00    -0.223 NA 
HETATM    6  C   UNL     1     -11.674  12.498  67.602  1.00  0.00    -0.361 C  
HETATM    7  C   UNL     1     -10.174  12.750  67.311  1.00  0.00    -0.232 C  
ENDROOT
BRANCH   5   8
HETATM    8  C   UNL     1     -11.773  13.196  69.979  1.00  0.00    -0.221 C  
BRANCH   8   9
HETATM    9  C   UNL     1     -12.302  14.227  70.994  1.00  0.00    -0.431 A  
HETATM   10  C   UNL     1     -13.691  14.376  71.181  1.00  0.00    -0.297 A  
HETATM   11  C   UNL     1     -11.446  14.973  71.818  1.00  0.00    -0.376 A  
HETATM   12  C   UNL     1     -14.199  15.223  72.173  1.00  0.00    -0.667 A  
HETATM   13  C   UNL     1     -13.330  15.944  72.986  1.00  0.00    -0.663 A  
HETATM   14  C   UNL     1     -11.953  15.827  72.798  1.00  0.00    -0.598 A  
ENDBRANCH   8   9
BRANCH   8  15
HETATM   15  C   UNL     1     -12.004  11.740  70.417  1.00  0.00    -0.422 A  
HETATM   16  C   UNL     1     -13.105  10.173  71.925  1.00  0.00    -0.571 A  
HETATM   17  C   UNL     1     -11.213   9.442  70.625  1.00  0.00    -0.345 A  
HETATM   18  C   UNL     1     -13.018  11.441  71.347  1.00  0.00    -0.468 A  
HETATM   19  C   UNL     1     -11.115  10.712  70.056  1.00  0.00    -0.359 A  
HETATM   20  C   UNL     1     -12.199   9.176  71.571  1.00  0.00    -0.422 A  
ENDBRANCH   8  15
ENDBRANCH   5   8
TORSDOF 3
ENDMDL
MODEL        2
REMARK 921   NORMALIZED FREE ENERGY PREDICTED BY IDOCK:   -6.57 KCAL/MOL
REMARK 922        TOTAL FREE ENERGY PREDICTED BY IDOCK:   -7.69 KCAL/MOL
REMARK 923 INTER-LIGAND FREE ENERGY PREDICTED BY IDOCK:   -7.46 KCAL/MOL
REMARK 924 INTRA-LIGAND FREE ENERGY PREDICTED BY IDOCK:   -0.23 KCAL/MOL
REMARK 927      BINDING AFFINITY PREDICTED BY RF-SCORE:    0.00 PKD
ROOT
HETATM    1  C   UNL     1      -8.364  18.556  66.445  1.00  0.00    -0.259 C  
HETATM    2  N   UNL     1      -9.648  17.857  66.450  1.00  0.00    -0.364 NA 
HETATM    3  C   UNL     1      -9.471  16.399  66.616  1.00  0.00    -0.256 C  
HETATM    4  C   UNL     1      -9.179  15.929  68.063  1.00  0.00    -0.192 C  
HETATM    5  N   UNL     1     -10.130  16.419  69.087  1.00  0.00    -0.264 NA 
HETATM    6  C   UNL     1     -10.195  17.897  68.935  1.00  0.00    -0.330 C  
HETATM    7  C   UNL     1     -10.534  18.386  67.505  1.00  0.00    -0.419 C  
ENDROOT
BRANCH   5   8
HETATM    8  C   UNL     1     -11.483  15.779  68.980  1.00  0.00    -0.391 C  
BRANCH   8   9
HETATM    9  C   UNL     1     -11.436  14.377  68.342  1.00  0.00    -0.329 A  
HETATM   10  C   UNL     1     -10.913  13.292  69.074  1.00  0.00    -0.249 A  
HETATM   11  C   UNL     1     -11.981  14.112  67.077  1.00  0.00    -0.471 A  
HETATM   12  C   UNL     1     -10.959  11.990  68.565  1.00  0.00    -0.280 A  
HETATM   13  C   UNL     1     -11.515  11.750  67.312  1.00  0.00    -0.373 A  
HETATM   14  C   UNL     1     -12.015  12.815  66.564  1.00  0.00    -0.428 A  
ENDBRANCH   8   9
BRANCH   8  15
HETATM   15  C   UNL     1     -12.220  15.806  70.331  1.00  0.00    -0.388 A  
HETATM   16  C   UNL     1     -12.102  15.976  72.760  1.00  0.00    -0.635 A  
HETATM   17  C   UNL     1     -14.114  15.151  71.721  1.00  0.00    -0.645 A  
HETATM   18  C   UNL     1     -11.522  16.155  71.503  1.00  0.00    -0.412 A  
HETATM   19  C   UNL     1     -13.531  15.317  70.464  1.00  0.00    -0.128 A  
HETATM   20  C   UNL     1     -13.394  15.467  72.870  1.00  0.00    -0.646 A  
ENDBRANCH   8  15
ENDBRANCH   5   8
TORSDOF 3
ENDMDL
MODEL        3
REMARK 921   NORMALIZED FREE ENERGY PREDICTED BY IDOCK:   -6.52 KCAL/MOL
REMARK 922        TOTAL FREE ENERGY PREDICTED BY IDOCK:   -7.63 KCAL/MOL
REMARK 923 INTER-LIGAND FREE ENERGY PREDICTED BY IDOCK:   -7.44 KCAL/MOL
REMARK 924 INTRA-LIGAND FREE ENERGY PREDICTED BY IDOCK:   -0.19 KCAL/MOL
REMARK 927      BINDING AFFINITY PREDICTED BY RF-SCORE:    0.00 PKD
ROOT
HETATM    1  C   UNL     1     -11.956  13.238  63.476  1.00  0.00    -0.474 C  
HETATM    2  N   UNL     1     -12.426  14.242  64.430  1.00  0.00    -0.674 NA 
HETATM    3  C   UNL     1     -12.901  13.619  65.683  1.00  0.00    -0.371 C  
HETATM    4  C   UNL     1     -11.787  13.172  66.662  1.00  0.00    -0.391 C  
HETATM    5  N   UNL     1     -10.784  14.211  66.989  1.00  0.00    -0.283 NA 
HETATM    6  C   UNL     1     -10.273  14.733  65.694  1.00  0.00    -0.358 C  
HETATM    7  C   UNL     1     -11.370  15.231  64.720  1.00  0.00    -0.391 C  
ENDROOT
BRANCH   5   8
HETATM    8  C   UNL     1     -11.335  15.300  67.862  1.00  0.00    -0.334 C  
BRANCH   8   9
HETATM    9  C   UNL     1     -11.806  14.789  69.236  1.00  0.00    -0.352 A  
HETATM   10  C   UNL     1     -12.421  15.678  70.141  1.00  0.00    -0.311 A  
HETATM   11  C   UNL     1     -11.729  13.436  69.598  1.00  0.00    -0.375 A  
HETATM   12  C   UNL     1     -12.957  15.221  71.350  1.00  0.00    -0.503 A  
HETATM   13  C   UNL     1     -12.879  13.872  71.682  1.00  0.00    -0.432 A  
HETATM   14  C   UNL     1     -12.254  12.982  70.809  1.00  0.00    -0.359 A  
ENDBRANCH   8   9
BRANCH   8  15
HETATM   15  C   UNL     1     -10.359  16.485  67.957  1.00  0.00    -0.294 A  
HETATM   16  C   UNL     1      -8.229  17.365  68.753  1.00  0.00    -0.226 A  
HETATM   17  C   UNL     1      -9.949  18.889  68.027  1.00  0.00    -0.414 A  
HETATM   18  C   UNL     1      -9.056  16.282  68.451  1.00  0.00    -0.203 A  
HETATM   19  C   UNL     1     -10.782  17.808  67.736  1.00  0.00    -0.332 A  
HETATM   20  C   UNL     1      -8.678  18.668  68.549  1.00  0.00    -0.362 A  
ENDBRANCH   8  15
ENDBRANCH   5   8
TORSDOF 3
ENDMDL
MODEL        4
REMARK 921   NORMALIZED FREE ENERGY PREDICTED BY IDOCK:   -6.34 KCAL/MOL
REMARK 922        TOTAL FREE ENERGY PREDICTED BY IDOCK:   -7.41 KCAL/MOL
REMARK 923 INTER-LIGAND FREE ENERGY PREDICTED BY IDOCK:   -7.07 KCAL/MOL
REMARK 924 INTRA-LIGAND FREE ENERGY PREDICTED BY IDOCK:   -0.34 KCAL/MOL
REMARK 927      BINDING AFFINITY PREDICTED BY RF-SCORE:    0.00 PKD
ROOT
HETATM    1  C   UNL     1      -8.944  18.447  67.278  1.00  0.00    -0.263 C  
HETATM    2  N   UNL     1     -10.191  17.689  67.203  1.00  0.00    -0.330 NA 
HETATM    3  C   UNL     1     -10.204  16.779  66.038  1.00  0.00    -0.346 C  
HETATM    4  C   UNL     1      -9.388  15.474  66.210  1.00  0.00    -0.320 C  
HETATM    5  N   UNL     1      -9.697  14.696  67.432  1.00  0.00    -0.217 NA 
HETATM    6  C   UNL     1      -9.576  15.637  68.577  1.00  0.00    -0.199 C  
HETATM    7  C   UNL     1     -10.422  16.927  68.446  1.00  0.00    -0.355 C  
ENDROOT
BRANCH   5   8
HETATM    8  C   UNL     1     -11.044  14.038  67.380  1.00  0.00    -0.303 C  
BRANCH   8   9
HETATM    9  C   UNL     1     -11.259  13.209  66.099  1.00  0.00    -0.320 A  
HETATM   10  C   UNL     1     -12.443  13.371  65.351  1.00  0.00    -0.543 A  
HETATM   11  C   UNL     1     -10.274  12.351  65.588  1.00  0.00    -0.285 A  
HETATM   12  C   UNL     1     -12.618  12.716  64.127  1.00  0.00    -0.442 A  
HETATM   13  C   UNL     1     -11.622  11.879  63.635  1.00  0.00    -0.559 A  
HETATM   14  C   UNL     1     -10.454  11.688  64.373  1.00  0.00    -0.374 A  
ENDBRANCH   8   9
BRANCH   8  15
HETATM   15  C   UNL     1     -11.328  13.247  68.668  1.00  0.00    -0.324 A  
HETATM   16  C   UNL     1     -11.419  11.093  69.808  1.00  0.00    -0.388 A  
HETATM   17  C   UNL     1     -12.520  13.003  70.783  1.00  0.00    -0.384 A  
HETATM   18  C   UNL     1     -10.979  11.885  68.746  1.00  0.00    -0.280 A  
HETATM   19  C   UNL     1     -12.092  13.793  69.715  1.00  0.00    -0.400 A  
HETATM   20  C   UNL     1     -12.195  11.650  70.822  1.00  0.00    -0.443 A  
ENDBRANCH   8  15
ENDBRANCH   5   8
TORSDOF 3
ENDMDL
MODEL        5
REMARK 921   NORMALIZED FREE ENERGY PREDICTED BY IDOCK:   -6.31 KCAL/MOL
REMARK 922        TOTAL FREE ENERGY PREDICTED BY IDOCK:   -7.38 KCAL/MOL
REMARK 923 INTER-LIGAND FREE ENERGY PREDICTED BY IDOCK:   -6.95 KCAL/MOL
REMARK 924 INTRA-LIGAND FREE ENERGY PREDICTED BY IDOCK:   -0.43 KCAL/MOL
REMARK 927      BINDING AFFINITY PREDICTED BY RF-SCORE:    0.00 PKD
ROOT
HETATM    1  C   UNL     1     -11.942  12.701  63.468  1.00  0.00    -0.548 C  
HETATM    2  N   UNL     1     -11.111  12.699  64.671  1.00  0.00    -0.299 NA 
HETATM    3  C   UNL     1     -10.249  13.898  64.736  1.00  0.00    -0.324 C  
HETATM    4  C   UNL     1     -10.957  15.196  65.196  1.00  0.00    -0.417 C  
HETATM    5  N   UNL     1     -11.722  15.082  66.459  1.00  0.00    -0.202 NA 
HETATM    6  C   UNL     1     -12.638  13.921  66.299  1.00  0.00    -0.330 C  
HETATM    7  C   UNL     1     -11.941  12.600  65.887  1.00  0.00    -0.438 C  
ENDROOT
BRANCH   5   8
HETATM    8  C   UNL     1     -10.840  14.945  67.665  1.00  0.00    -0.286 C  
BRANCH   8   9
HETATM    9  C   UNL     1      -9.922  16.164  67.879  1.00  0.00    -0.239 A  
HETATM   10  C   UNL     1     -10.424  17.464  67.668  1.00  0.00    -0.368 A  
HETATM   11  C   UNL     1      -8.614  16.038  68.369  1.00  0.00    -0.185 A  
HETATM   12  C   UNL     1      -9.650  18.592  67.960  1.00  0.00    -0.348 A  
HETATM   13  C   UNL     1      -8.358  18.443  68.456  1.00  0.00    -0.344 A  
HETATM   14  C   UNL     1      -7.837  17.164  68.648  1.00  0.00    -0.265 A  
ENDBRANCH   8   9
BRANCH   8  15
HETATM   15  C   UNL     1     -11.658  14.575  68.914  1.00  0.00    -0.341 A  
HETATM   16  C   UNL     1     -12.827  15.306  70.925  1.00  0.00    -0.511 A  
HETATM   17  C   UNL     1     -12.235  12.983  70.671  1.00  0.00    -0.390 A  
HETATM   18  C   UNL     1     -12.270  15.589  69.676  1.00  0.00    -0.297 A  
HETATM   19  C   UNL     1     -11.666  13.266  69.428  1.00  0.00    -0.383 A  
HETATM   20  C   UNL     1     -12.803  14.006  71.425  1.00  0.00    -0.434 A  
ENDBRANCH   8  15
ENDBRANCH   5   8
TORSDOF 3
ENDMDL
MODEL        6
REMARK 921   NORMALIZED FREE ENERGY PREDICTED BY IDOCK:   -6.19 KCAL/MOL
REMARK 922        TOTAL FREE ENERGY PREDICTED BY IDOCK:   -7.24 KCAL/MOL
REMARK 923 INTER-LIGAND FREE ENERGY PREDICTED BY IDOCK:   -7.04 KCAL/MOL
REMARK 924 INTRA-LIGAND FREE ENERGY PREDICTED BY IDOCK:   -0.20 KCAL/MOL
REMARK 927      BINDING AFFINITY PREDICTED BY RF-SCORE:    0.00 PKD
ROOT
HETATM    1  C   UNL     1      -8.772  19.402  67.709  1.00  0.00    -0.311 C  
HETATM    2  N   UNL     1     -10.064  18.725  67.610  1.00  0.00    -0.348 NA 
HETATM    3  C   UNL     1     -10.207  18.015  66.322  1.00  0.00    -0.381 C  
HETATM    4  C   UNL     1      -9.460  16.662  66.226  1.00  0.00    -0.293 C  
HETATM    5  N   UNL     1      -9.732  15.714  67.331  1.00  0.00    -0.222 NA 
HETATM    6  C   UNL     1      -9.480  16.453  68.597  1.00  0.00    -0.239 C  
HETATM    7  C   UNL     1     -10.256  17.786  68.733  1.00  0.00    -0.373 C  
ENDROOT
BRANCH   5   8
HETATM    8  C   UNL     1     -11.116  15.137  67.278  1.00  0.00    -0.332 C  
BRANCH   8   9
HETATM    9  C   UNL     1     -11.366  14.289  66.016  1.00  0.00    -0.335 A  
HETATM   10  C   UNL     1     -10.272  13.796  65.277  1.00  0.00    -0.355 A  
HETATM   11  C   UNL     1     -12.654  13.905  65.615  1.00  0.00    -0.553 A  
HETATM   12  C   UNL     1     -10.464  12.932  64.193  1.00  0.00    -0.429 A  
HETATM   13  C   UNL     1     -11.751  12.556  63.821  1.00  0.00    -0.564 A  
HETATM   14  C   UNL     1     -12.846  13.053  64.526  1.00  0.00    -0.225 A  
ENDBRANCH   8   9
BRANCH   8  15
HETATM   15  C   UNL     1     -11.463  14.400  68.583  1.00  0.00    -0.316 A  
HETATM   16  C   UNL     1     -11.662  12.291  69.789  1.00  0.00    -0.368 A  
HETATM   17  C   UNL     1     -12.721  14.269  70.669  1.00  0.00    -0.409 A  
HETATM   18  C   UNL     1     -11.165  13.030  68.714  1.00  0.00    -0.325 A  
HETATM   19  C   UNL     1     -12.236  15.007  69.588  1.00  0.00    -0.293 A  
HETATM   20  C   UNL     1     -12.446  12.908  70.761  1.00  0.00    -0.370 A  
ENDBRANCH   8  15
ENDBRANCH   5   8
TORSDOF 3
ENDMDL
MODEL        7
REMARK 921   NORMALIZED FREE ENERGY PREDICTED BY IDOCK:   -6.18 KCAL/MOL
REMARK 922        TOTAL FREE ENERGY PREDICTED BY IDOCK:   -7.24 KCAL/MOL
REMARK 923 INTER-LIGAND FREE ENERGY PREDICTED BY IDOCK:   -6.89 KCAL/MOL
REMARK 924 INTRA-LIGAND FREE ENERGY PREDICTED BY IDOCK:   -0.35 KCAL/MOL
REMARK 927      BINDING AFFINITY PREDICTED BY RF-SCORE:    0.00 PKD
ROOT
HETATM    1  C   UNL     1     -10.483  11.011  66.460  1.00  0.00    -0.257 C  
HETATM    2  N   UNL     1      -9.846  11.828  67.493  1.00  0.00    -0.184 NA 
HETATM    3  C   UNL     1      -9.765  13.247  67.089  1.00  0.00    -0.236 C  
HETATM    4  C   UNL     1     -11.082  14.050  67.228  1.00  0.00    -0.302 C  
HETATM    5  N   UNL     1     -11.734  13.962  68.555  1.00  0.00    -0.334 NA 
HETATM    6  C   UNL     1     -11.876  12.515  68.865  1.00  0.00    -0.301 C  
HETATM    7  C   UNL     1     -10.559  11.704  68.779  1.00  0.00    -0.212 C  
ENDROOT
BRANCH   5   8
HETATM    8  C   UNL     1     -10.983  14.700  69.624  1.00  0.00    -0.226 C  
BRANCH   8   9
HETATM    9  C   UNL     1     -10.311  15.986  69.107  1.00  0.00    -0.247 A  
HETATM   10  C   UNL     1      -8.911  16.126  69.189  1.00  0.00    -0.239 A  
HETATM   11  C   UNL     1     -11.034  17.004  68.468  1.00  0.00    -0.247 A  
HETATM   12  C   UNL     1      -8.262  17.232  68.629  1.00  0.00    -0.262 A  
HETATM   13  C   UNL     1      -9.000  18.223  67.989  1.00  0.00    -0.301 A  
HETATM   14  C   UNL     1     -10.388  18.113  67.920  1.00  0.00    -0.410 A  
ENDBRANCH   8   9
BRANCH   8  15
HETATM   15  C   UNL     1     -11.863  14.932  70.864  1.00  0.00    -0.375 A  
HETATM   16  C   UNL     1     -14.083  15.322  71.795  1.00  0.00    -0.654 A  
HETATM   17  C   UNL     1     -12.134  15.763  73.142  1.00  0.00    -0.603 A  
HETATM   18  C   UNL     1     -13.266  14.901  70.744  1.00  0.00    -0.377 A  
HETATM   19  C   UNL     1     -11.315  15.355  72.088  1.00  0.00    -0.447 A  
HETATM   20  C   UNL     1     -13.517  15.760  72.990  1.00  0.00    -0.672 A  
ENDBRANCH   8  15
ENDBRANCH   5   8
TORSDOF 3
ENDMDL
MODEL        8
REMARK 921   NORMALIZED FREE ENERGY PREDICTED BY IDOCK:   -6.18 KCAL/MOL
REMARK 922        TOTAL FREE ENERGY PREDICTED BY IDOCK:   -7.23 KCAL/MOL
REMARK 923 INTER-LIGAND FREE ENERGY PREDICTED BY IDOCK:   -7.79 KCAL/MOL
REMARK 924 INTRA-LIGAND FREE ENERGY PREDICTED BY IDOCK:    0.57 KCAL/MOL
REMARK 927      BINDING AFFINITY PREDICTED BY RF-SCORE:    0.00 PKD
ROOT
HETATM    1  C   UNL     1      -9.706  11.851  65.459  1.00  0.00    -0.215 C  
HETATM    2  N   UNL     1      -9.468  12.005  66.894  1.00  0.00    -0.198 NA 
HETATM    3  C   UNL     1     -10.197  13.167  67.442  1.00  0.00    -0.232 C  
HETATM    4  C   UNL     1     -11.709  12.943  67.690  1.00  0.00    -0.370 C  
HETATM    5  N   UNL     1     -12.044  11.742  68.490  1.00  0.00    -0.455 NA 
HETATM    6  C   UNL     1     -11.363  10.592  67.837  1.00  0.00    -0.268 C  
HETATM    7  C   UNL     1      -9.840  10.778  67.625  1.00  0.00    -0.171 C  
ENDROOT
BRANCH   5   8
HETATM    8  C   UNL     1     -11.664  11.879  69.935  1.00  0.00    -0.308 C  
BRANCH   8   9
HETATM    9  C   UNL     1     -12.340  13.080  70.623  1.00  0.00    -0.391 A  
HETATM   10  C   UNL     1     -13.060  12.888  71.820  1.00  0.00    -0.458 A  
HETATM   11  C   UNL     1     -12.195  14.393  70.150  1.00  0.00    -0.401 A  
HETATM   12  C   UNL     1     -13.591  13.973  72.525  1.00  0.00    -0.670 A  
HETATM   13  C   UNL     1     -13.424  15.268  72.042  1.00  0.00    -0.547 A  
HETATM   14  C   UNL     1     -12.736  15.474  70.848  1.00  0.00    -0.525 A  
ENDBRANCH   8   9
BRANCH   8  15
HETATM   15  C   UNL     1     -11.864  10.555  70.692  1.00  0.00    -0.458 A  
HETATM   16  C   UNL     1     -13.343   9.088  71.958  1.00  0.00    -0.494 A  
HETATM   17  C   UNL     1     -10.961   8.723  72.026  1.00  0.00    -0.438 A  
HETATM   18  C   UNL     1     -13.157  10.162  71.086  1.00  0.00    -0.480 A  
HETATM   19  C   UNL     1     -10.773   9.805  71.166  1.00  0.00    -0.284 A  
HETATM   20  C   UNL     1     -12.246   8.373  72.434  1.00  0.00    -0.430 A  
ENDBRANCH   8  15
ENDBRANCH   5   8
TORSDOF 3
ENDMDL
MODEL        9
REMARK 921   NORMALIZED FREE ENERGY PREDICTED BY IDOCK:   -6.17 KCAL/MOL
REMARK 922        TOTAL FREE ENERGY PREDICTED BY IDOCK:   -7.22 KCAL/MOL
REMARK 923 INTER-LIGAND FREE ENERGY PREDICTED BY IDOCK:   -6.68 KCAL/MOL
REMARK 924 INTRA-LIGAND FREE ENERGY PREDICTED BY IDOCK:   -0.54 KCAL/MOL
REMARK 927      BINDING AFFINITY PREDICTED BY RF-SCORE:    0.00 PKD
ROOT
HETATM    1  C   UNL     1     -12.387  15.067  72.829  1.00  0.00    -0.360 C  
HETATM    2  N   UNL     1     -12.684  15.606  71.503  1.00  0.00    -0.433 NA 
HETATM    3  C   UNL     1     -11.509  16.288  70.921  1.00  0.00    -0.301 C  
HETATM    4  C   UNL     1     -10.428  15.352  70.327  1.00  0.00    -0.241 C  
HETATM    5  N   UNL     1     -10.929  14.345  69.363  1.00  0.00    -0.250 NA 
HETATM    6  C   UNL     1     -12.043  13.627  70.037  1.00  0.00    -0.348 C  
HETATM    7  C   UNL     1     -13.159  14.545  70.595  1.00  0.00    -0.250 C  
ENDROOT
BRANCH   5   8
HETATM    8  C   UNL     1     -11.352  14.948  68.056  1.00  0.00    -0.324 C  
BRANCH   8   9
HETATM    9  C   UNL     1     -10.367  16.014  67.539  1.00  0.00    -0.287 A  
HETATM   10  C   UNL     1      -9.169  15.614  66.912  1.00  0.00    -0.257 A  
HETATM   11  C   UNL     1     -10.656  17.386  67.585  1.00  0.00    -0.350 A  
HETATM   12  C   UNL     1      -8.309  16.554  66.335  1.00  0.00    -0.358 A  
HETATM   13  C   UNL     1      -8.622  17.909  66.383  1.00  0.00    -0.254 A  
HETATM   14  C   UNL     1      -9.791  18.324  67.020  1.00  0.00    -0.331 A  
ENDBRANCH   8   9
BRANCH   8  15
HETATM   15  C   UNL     1     -11.669  13.860  67.017  1.00  0.00    -0.426 A  
HETATM   16  C   UNL     1     -11.064  11.739  65.978  1.00  0.00    -0.363 A  
HETATM   17  C   UNL     1     -12.648  13.190  64.885  1.00  0.00    -0.468 A  
HETATM   18  C   UNL     1     -10.954  12.647  67.032  1.00  0.00    -0.300 A  
HETATM   19  C   UNL     1     -12.529  14.105  65.931  1.00  0.00    -0.479 A  
HETATM   20  C   UNL     1     -11.904  12.013  64.901  1.00  0.00    -0.304 A  
ENDBRANCH   8  15
ENDBRANCH   5   8
TORSDOF 3
ENDMDL
MODEL       10
REMARK 921   NORMALIZED FREE ENERGY PREDICTED BY IDOCK:   -6.15 KCAL/MOL
REMARK 922        TOTAL FREE ENERGY PREDICTED BY IDOCK:   -7.20 KCAL/MOL
REMARK 923 INTER-LIGAND FREE ENERGY PREDICTED BY IDOCK:   -7.02 KCAL/MOL
REMARK 924 INTRA-LIGAND FREE ENERGY PREDICTED BY IDOCK:   -0.18 KCAL/MOL
REMARK 927      BINDING AFFINITY PREDICTED BY RF-SCORE:    0.00 PKD
ROOT
HETATM    1  C   UNL     1      -7.965  18.822  66.856  1.00  0.00    -0.252 C  
HETATM    2  N   UNL     1      -8.003  17.417  67.257  1.00  0.00    -0.196 NA 
HETATM    3  C   UNL     1      -8.705  17.239  68.545  1.00  0.00    -0.273 C  
HETATM    4  C   UNL     1     -10.251  17.287  68.468  1.00  0.00    -0.358 C  
HETATM    5  N   UNL     1     -10.858  16.387  67.461  1.00  0.00    -0.290 NA 
HETATM    6  C   UNL     1     -10.181  16.677  66.169  1.00  0.00    -0.348 C  
HETATM    7  C   UNL     1      -8.635  16.586  66.214  1.00  0.00    -0.332 C  
ENDROOT
BRANCH   5   8
HETATM    8  C   UNL     1     -10.761  14.938  67.838  1.00  0.00    -0.265 C  
BRANCH   8   9
HETATM    9  C   UNL     1     -11.609  14.581  69.074  1.00  0.00    -0.330 A  
HETATM   10  C   UNL     1     -11.689  13.241  69.505  1.00  0.00    -0.384 A  
HETATM   11  C   UNL     1     -12.245  15.559  69.853  1.00  0.00    -0.351 A  
HETATM   12  C   UNL     1     -12.360  12.902  70.684  1.00  0.00    -0.385 A  
HETATM   13  C   UNL     1     -12.973  13.891  71.448  1.00  0.00    -0.430 A  
HETATM   14  C   UNL     1     -12.924  15.218  71.024  1.00  0.00    -0.526 A  
ENDBRANCH   8   9
BRANCH   8  15
HETATM   15  C   UNL     1     -11.037  14.028  66.630  1.00  0.00    -0.312 A  
HETATM   16  C   UNL     1     -12.654  13.052  65.088  1.00  0.00    -0.530 A  
HETATM   17  C   UNL     1     -10.443  12.107  65.248  1.00  0.00    -0.311 A  
HETATM   18  C   UNL     1     -12.314  14.019  66.036  1.00  0.00    -0.504 A  
HETATM   19  C   UNL     1     -10.104  13.064  66.205  1.00  0.00    -0.287 A  
HETATM   20  C   UNL     1     -11.723  12.092  64.700  1.00  0.00    -0.358 A  
ENDBRANCH   8  15
ENDBRANCH   5   8
TORSDOF 3
ENDMDL
MODEL       11
REMARK 921   NORMALIZED FREE ENERGY PREDICTED BY IDOCK:   -6.10 KCAL/MOL
REMARK 922        TOTAL FREE ENERGY PREDICTED BY IDOCK:   -7.14 KCAL/MOL
REMARK 923 INTER-LIGAND FREE ENERGY PREDICTED BY IDOCK:   -6.95 KCAL/MOL
REMARK 924 INTRA-LIGAND FREE ENERGY PREDICTED BY IDOCK:   -0.19 KCAL/MOL
REMARK 927      BINDING AFFINITY PREDICTED BY RF-SCORE:    0.00 PKD
ROOT
HETATM    1  C   UNL     1      -8.355  18.587  67.405  1.00  0.00    -0.256 C  
HETATM    2  N   UNL     1      -8.261  17.128  67.422  1.00  0.00    -0.180 NA 
HETATM    3  C   UNL     1      -8.875  16.560  68.639  1.00  0.00    -0.237 C  
HETATM    4  C   UNL     1     -10.422  16.486  68.627  1.00  0.00    -0.304 C  
HETATM    5  N   UNL     1     -11.010  15.828  67.437  1.00  0.00    -0.308 NA 
HETATM    6  C   UNL     1     -10.430  16.504  66.247  1.00  0.00    -0.281 C  
HETATM    7  C   UNL     1      -8.881  16.545  66.217  1.00  0.00    -0.329 C  
ENDROOT
BRANCH   5   8
HETATM    8  C   UNL     1     -10.780  14.346  67.416  1.00  0.00    -0.280 C  
BRANCH   8   9
HETATM    9  C   UNL     1     -11.435  13.619  68.605  1.00  0.00    -0.342 A  
HETATM   10  C   UNL     1     -11.295  12.222  68.735  1.00  0.00    -0.337 A  
HETATM   11  C   UNL     1     -12.101  14.308  69.629  1.00  0.00    -0.396 A  
HETATM   12  C   UNL     1     -11.783  11.550  69.861  1.00  0.00    -0.420 A  
HETATM   13  C   UNL     1     -12.430  12.257  70.870  1.00  0.00    -0.371 A  
HETATM   14  C   UNL     1     -12.599  13.635  70.746  1.00  0.00    -0.397 A  
ENDBRANCH   8   9
BRANCH   8  15
HETATM   15  C   UNL     1     -11.159  13.743  66.053  1.00  0.00    -0.291 A  
HETATM   16  C   UNL     1     -12.889  12.856  64.581  1.00  0.00    -0.323 A  
HETATM   17  C   UNL     1     -10.569  12.436  64.079  1.00  0.00    -0.444 A  
HETATM   18  C   UNL     1     -12.516  13.595  65.705  1.00  0.00    -0.540 A  
HETATM   19  C   UNL     1     -10.195  13.163  65.209  1.00  0.00    -0.299 A  
HETATM   20  C   UNL     1     -11.917  12.270  63.772  1.00  0.00    -0.609 A  
ENDBRANCH   8  15
ENDBRANCH   5   8
TORSDOF 3
ENDMDL
MODEL       12
REMARK 921   NORMALIZED FREE ENERGY PREDICTED BY IDOCK:   -6.10 KCAL/MOL
REMARK 922        TOTAL FREE ENERGY PREDICTED BY IDOCK:   -7.14 KCAL/MOL
REMARK 923 INTER-LIGAND FREE ENERGY PREDICTED BY IDOCK:   -7.42 KCAL/MOL
REMARK 924 INTRA-LIGAND FREE ENERGY PREDICTED BY IDOCK:    0.28 KCAL/MOL
REMARK 927      BINDING AFFINITY PREDICTED BY RF-SCORE:    0.00 PKD
ROOT
HETATM    1  C   UNL     1     -10.839  13.582  65.097  1.00  0.00    -0.330 C  
HETATM    2  N   UNL     1     -11.912  13.238  66.029  1.00  0.00    -0.401 NA 
HETATM    3  C   UNL     1     -11.597  12.010  66.787  1.00  0.00    -0.321 C  
HETATM    4  C   UNL     1     -10.601  12.192  67.959  1.00  0.00    -0.210 C  
HETATM    5  N   UNL     1     -10.944  13.273  68.912  1.00  0.00    -0.251 NA 
HETATM    6  C   UNL     1     -11.155  14.503  68.103  1.00  0.00    -0.266 C  
HETATM    7  C   UNL     1     -12.185  14.353  66.956  1.00  0.00    -0.239 C  
ENDROOT
BRANCH   5   8
HETATM    8  C   UNL     1     -12.134  12.944  69.764  1.00  0.00    -0.245 C  
BRANCH   8   9
HETATM    9  C   UNL     1     -12.019  11.572  70.454  1.00  0.00    -0.459 A  
HETATM   10  C   UNL     1     -13.003  11.168  71.379  1.00  0.00    -0.506 A  
HETATM   11  C   UNL     1     -11.008  10.654  70.131  1.00  0.00    -0.292 A  
HETATM   12  C   UNL     1     -12.985   9.886  71.938  1.00  0.00    -0.545 A  
HETATM   13  C   UNL     1     -11.979   8.989  71.593  1.00  0.00    -0.426 A  
HETATM   14  C   UNL     1     -10.984   9.379  70.698  1.00  0.00    -0.352 A  
ENDBRANCH   8   9
BRANCH   8  15
HETATM   15  C   UNL     1     -12.454  14.089  70.740  1.00  0.00    -0.442 A  
HETATM   16  C   UNL     1     -11.721  15.531  72.564  1.00  0.00    -0.569 A  
HETATM   17  C   UNL     1     -14.069  15.365  72.049  1.00  0.00    -0.647 A  
HETATM   18  C   UNL     1     -11.426  14.652  71.521  1.00  0.00    -0.072 A  
HETATM   19  C   UNL     1     -13.778  14.476  71.014  1.00  0.00    -0.241 A  
HETATM   20  C   UNL     1     -13.042  15.882  72.834  1.00  0.00    -0.601 A  
ENDBRANCH   8  15
ENDBRANCH   5   8
TORSDOF 3
ENDMDL
MODEL       13
REMARK 921   NORMALIZED FREE ENERGY PREDICTED BY IDOCK:   -6.04 KCAL/MOL
REMARK 922        TOTAL FREE ENERGY PREDICTED BY IDOCK:   -7.06 KCAL/MOL
REMARK 923 INTER-LIGAND FREE ENERGY PREDICTED BY IDOCK:   -6.48 KCAL/MOL
REMARK 924 INTRA-LIGAND FREE ENERGY PREDICTED BY IDOCK:   -0.58 KCAL/MOL
REMARK 927      BINDING AFFINITY PREDICTED BY RF-SCORE:    0.00 PKD
ROOT
HETATM    1  C   UNL     1     -11.519  13.265  64.049  1.00  0.00    -0.388 C  
HETATM    2  N   UNL     1     -12.105  14.316  64.878  1.00  0.00    -0.415 NA 
HETATM    3  C   UNL     1     -12.299  13.862  66.271  1.00  0.00    -0.449 C  
HETATM    4  C   UNL     1     -11.020  13.848  67.146  1.00  0.00    -0.291 C  
HETATM    5  N   UNL     1     -10.249  15.112  67.153  1.00  0.00    -0.244 NA 
HETATM    6  C   UNL     1     -10.002  15.468  65.731  1.00  0.00    -0.359 C  
HETATM    7  C   UNL     1     -11.275  15.536  64.851  1.00  0.00    -0.389 C  
ENDROOT
BRANCH   5   8
HETATM    8  C   UNL     1     -10.942  16.214  67.901  1.00  0.00    -0.318 C  
BRANCH   8   9
HETATM    9  C   UNL     1     -11.429  15.779  69.296  1.00  0.00    -0.368 A  
HETATM   10  C   UNL     1     -10.494  15.559  70.327  1.00  0.00    -0.282 A  
HETATM   11  C   UNL     1     -12.791  15.676  69.615  1.00  0.00     0.336 A  
HETATM   12  C   UNL     1     -10.912  15.272  71.631  1.00  0.00    -0.107 A  
HETATM   13  C   UNL     1     -12.269  15.187  71.926  1.00  0.00    -0.431 A  
HETATM   14  C   UNL     1     -13.208  15.378  70.913  1.00  0.00    -0.512 A  
ENDBRANCH   8   9
BRANCH   8  15
HETATM   15  C   UNL     1     -10.086  17.492  67.928  1.00  0.00    -0.330 A  
HETATM   16  C   UNL     1      -9.792  19.812  67.239  1.00  0.00    -0.513 A  
HETATM   17  C   UNL     1      -7.908  18.577  68.094  1.00  0.00    -0.308 A  
HETATM   18  C   UNL     1     -10.613  18.698  67.428  1.00  0.00    -0.490 A  
HETATM   19  C   UNL     1      -8.723  17.459  68.273  1.00  0.00    -0.261 A  
HETATM   20  C   UNL     1      -8.439  19.749  67.564  1.00  0.00    -0.366 A  
ENDBRANCH   8  15
ENDBRANCH   5   8
TORSDOF 3
ENDMDL
MODEL       14
REMARK 921   NORMALIZED FREE ENERGY PREDICTED BY IDOCK:   -6.03 KCAL/MOL
REMARK 922        TOTAL FREE ENERGY PREDICTED BY IDOCK:   -7.05 KCAL/MOL
REMARK 923 INTER-LIGAND FREE ENERGY PREDICTED BY IDOCK:   -6.70 KCAL/MOL
REMARK 924 INTRA-LIGAND FREE ENERGY PREDICTED BY IDOCK:   -0.35 KCAL/MOL
REMARK 927      BINDING AFFINITY PREDICTED BY RF-SCORE:    0.00 PKD
ROOT
HETATM    1  C   UNL     1      -8.603  18.504  67.866  1.00  0.00    -0.287 C  
HETATM    2  N   UNL     1      -8.353  17.074  67.691  1.00  0.00    -0.188 NA 
HETATM    3  C   UNL     1      -8.853  16.291  68.839  1.00  0.00    -0.253 C  
HETATM    4  C   UNL     1     -10.383  16.048  68.858  1.00  0.00    -0.235 C  
HETATM    5  N   UNL     1     -10.945  15.485  67.608  1.00  0.00    -0.310 NA 
HETATM    6  C   UNL     1     -10.488  16.366  66.501  1.00  0.00    -0.282 C  
HETATM    7  C   UNL     1      -8.956  16.582  66.437  1.00  0.00    -0.305 C  
ENDROOT
BRANCH   5   8
HETATM    8  C   UNL     1     -10.558  14.052  67.389  1.00  0.00    -0.278 C  
BRANCH   8   9
HETATM    9  C   UNL     1     -11.025  13.122  68.524  1.00  0.00    -0.289 A  
HETATM   10  C   UNL     1     -11.918  13.605  69.502  1.00  0.00    -0.397 A  
HETATM   11  C   UNL     1     -10.664  11.768  68.579  1.00  0.00    -0.251 A  
HETATM   12  C   UNL     1     -12.446  12.755  70.480  1.00  0.00    -0.280 A  
HETATM   13  C   UNL     1     -12.083  11.412  70.507  1.00  0.00    -0.487 A  
HETATM   14  C   UNL     1     -11.182  10.923  69.563  1.00  0.00    -0.340 A  
ENDBRANCH   8   9
BRANCH   8  15
HETATM   15  C   UNL     1     -10.986  13.567  65.993  1.00  0.00    -0.281 A  
HETATM   16  C   UNL     1     -12.755  12.744  64.531  1.00  0.00    -0.405 A  
HETATM   17  C   UNL     1     -10.451  12.491  63.870  1.00  0.00    -0.464 A  
HETATM   18  C   UNL     1     -12.352  13.387  65.703  1.00  0.00    -0.521 A  
HETATM   19  C   UNL     1     -10.046  13.122  65.047  1.00  0.00    -0.240 A  
HETATM   20  C   UNL     1     -11.805  12.290  63.618  1.00  0.00    -0.610 A  
ENDBRANCH   8  15
ENDBRANCH   5   8
TORSDOF 3
ENDMDL
MODEL       15
REMARK 921   NORMALIZED FREE ENERGY PREDICTED BY IDOCK:   -6.00 KCAL/MOL
REMARK 922        TOTAL FREE ENERGY PREDICTED BY IDOCK:   -7.02 KCAL/MOL
REMARK 923 INTER-LIGAND FREE ENERGY PREDICTED BY IDOCK:   -6.45 KCAL/MOL
REMARK 924 INTRA-LIGAND FREE ENERGY PREDICTED BY IDOCK:   -0.58 KCAL/MOL
REMARK 927      BINDING AFFINITY PREDICTED BY RF-SCORE:    0.00 PKD
ROOT
HETATM    1  C   UNL     1     -10.173  17.426  68.664  1.00  0.00    -0.361 C  
HETATM    2  N   UNL     1     -11.189  16.406  68.409  1.00  0.00    -0.361 NA 
HETATM    3  C   UNL     1     -11.079  15.862  67.040  1.00  0.00    -0.119 C  
HETATM    4  C   UNL     1      -9.948  14.826  66.828  1.00  0.00    -0.251 C  
HETATM    5  N   UNL     1      -9.934  13.704  67.796  1.00  0.00    -0.230 NA 
HETATM    6  C   UNL     1      -9.949  14.312  69.153  1.00  0.00    -0.022 C  
HETATM    7  C   UNL     1     -11.103  15.315  69.399  1.00  0.00    -0.280 C  
ENDROOT
BRANCH   5   8
HETATM    8  C   UNL     1     -11.070  12.745  67.593  1.00  0.00    -0.258 C  
BRANCH   8   9
HETATM    9  C   UNL     1     -11.244  12.323  66.121  1.00  0.00    -0.372 A  
HETATM   10  C   UNL     1     -12.386  12.736  65.405  1.00  0.00    -0.528 A  
HETATM   11  C   UNL     1     -10.258  11.608  65.426  1.00  0.00    -0.306 A  
HETATM   12  C   UNL     1     -12.518  12.462  64.039  1.00  0.00    -0.554 A  
HETATM   13  C   UNL     1     -11.521  11.761  63.368  1.00  0.00    -0.424 A  
HETATM   14  C   UNL     1     -10.396  11.324  64.066  1.00  0.00    -0.430 A  
ENDBRANCH   8   9
BRANCH   8  15
HETATM   15  C   UNL     1     -10.971  11.551  68.558  1.00  0.00    -0.268 A  
HETATM   16  C   UNL     1     -11.872  10.351  70.479  1.00  0.00    -0.430 A  
HETATM   17  C   UNL     1      -9.631   9.881  69.728  1.00  0.00    -0.261 A  
HETATM   18  C   UNL     1     -12.026  11.282  69.451  1.00  0.00    -0.410 A  
HETATM   19  C   UNL     1      -9.778  10.821  68.707  1.00  0.00    -0.197 A  
HETATM   20  C   UNL     1     -10.673   9.656  70.623  1.00  0.00    -0.388 A  
ENDBRANCH   8  15
ENDBRANCH   5   8
TORSDOF 3
ENDMDL
MODEL       16
REMARK 921   NORMALIZED FREE ENERGY PREDICTED BY IDOCK:   -5.98 KCAL/MOL
REMARK 922        TOTAL FREE ENERGY PREDICTED BY IDOCK:   -6.99 KCAL/MOL
REMARK 923 INTER-LIGAND FREE ENERGY PREDICTED BY IDOCK:   -6.54 KCAL/MOL
REMARK 924 INTRA-LIGAND FREE ENERGY PREDICTED BY IDOCK:   -0.45 KCAL/MOL
REMARK 927      BINDING AFFINITY PREDICTED BY RF-SCORE:    0.00 PKD
ROOT
HETATM    1  C   UNL     1     -11.876  14.856  71.704  1.00  0.00    -0.366 C  
HETATM    2  N   UNL     1     -12.144  15.522  70.430  1.00  0.00    -0.366 NA 
HETATM    3  C   UNL     1     -10.987  16.325  69.985  1.00  0.00    -0.355 C  
HETATM    4  C   UNL     1      -9.826  15.519  69.351  1.00  0.00    -0.283 C  
HETATM    5  N   UNL     1     -10.223  14.599  68.260  1.00  0.00    -0.223 NA 
HETATM    6  C   UNL     1     -11.322  13.753  68.796  1.00  0.00    -0.283 C  
HETATM    7  C   UNL     1     -12.515  14.543  69.390  1.00  0.00    -0.078 C  
ENDROOT
BRANCH   5   8
HETATM    8  C   UNL     1     -10.621  15.319  67.006  1.00  0.00    -0.306 C  
BRANCH   8   9
HETATM    9  C   UNL     1      -9.721  16.529  66.695  1.00  0.00    -0.275 A  
HETATM   10  C   UNL     1     -10.250  17.834  66.768  1.00  0.00    -0.351 A  
HETATM   11  C   UNL     1      -8.351  16.393  66.425  1.00  0.00    -0.363 A  
HETATM   12  C   UNL     1      -9.431  18.955  66.600  1.00  0.00    -0.357 A  
HETATM   13  C   UNL     1      -8.073  18.796  66.345  1.00  0.00    -0.296 A  
HETATM   14  C   UNL     1      -7.536  17.513  66.246  1.00  0.00    -0.343 A  
ENDBRANCH   8   9
BRANCH   8  15
HETATM   15  C   UNL     1     -10.756  14.344  65.823  1.00  0.00    -0.312 A  
HETATM   16  C   UNL     1     -12.075  13.529  63.942  1.00  0.00    -0.493 A  
HETATM   17  C   UNL     1     -10.252  12.196  64.783  1.00  0.00    -0.310 A  
HETATM   18  C   UNL     1     -11.797  14.515  64.890  1.00  0.00    -0.417 A  
HETATM   19  C   UNL     1      -9.980  13.175  65.740  1.00  0.00    -0.260 A  
HETATM   20  C   UNL     1     -11.308  12.367  63.893  1.00  0.00    -0.502 A  
ENDBRANCH   8  15
ENDBRANCH   5   8
TORSDOF 3
ENDMDL
MODEL       17
REMARK 921   NORMALIZED FREE ENERGY PREDICTED BY IDOCK:   -5.92 KCAL/MOL
REMARK 922        TOTAL FREE ENERGY PREDICTED BY IDOCK:   -6.93 KCAL/MOL
REMARK 923 INTER-LIGAND FREE ENERGY PREDICTED BY IDOCK:   -6.37 KCAL/MOL
REMARK 924 INTRA-LIGAND FREE ENERGY PREDICTED BY IDOCK:   -0.56 KCAL/MOL
REMARK 927      BINDING AFFINITY PREDICTED BY RF-SCORE:    0.00 PKD
ROOT
HETATM    1  C   UNL     1      -8.408  17.479  68.239  1.00  0.00    -0.265 C  
HETATM    2  N   UNL     1      -8.123  16.081  67.919  1.00  0.00    -0.140 NA 
HETATM    3  C   UNL     1      -8.599  15.174  68.985  1.00  0.00    -0.219 C  
HETATM    4  C   UNL     1     -10.122  14.892  68.982  1.00  0.00    -0.237 C  
HETATM    5  N   UNL     1     -10.675  14.443  67.684  1.00  0.00    -0.260 NA 
HETATM    6  C   UNL     1     -10.246  15.443  66.670  1.00  0.00    -0.277 C  
HETATM    7  C   UNL     1      -8.720  15.702  66.624  1.00  0.00    -0.298 C  
ENDROOT
BRANCH   5   8
HETATM    8  C   UNL     1     -10.254  13.050  67.320  1.00  0.00    -0.239 C  
BRANCH   8   9
HETATM    9  C   UNL     1     -10.492  12.035  68.454  1.00  0.00    -0.231 A  
HETATM   10  C   UNL     1     -11.728  12.018  69.131  1.00  0.00    -0.389 A  
HETATM   11  C   UNL     1      -9.549  11.052  68.788  1.00  0.00    -0.194 A  
HETATM   12  C   UNL     1     -12.013  11.038  70.088  1.00  0.00    -0.443 A  
HETATM   13  C   UNL     1     -11.066  10.066  70.394  1.00  0.00    -0.393 A  
HETATM   14  C   UNL     1      -9.829  10.081  69.751  1.00  0.00    -0.270 A  
ENDBRANCH   8   9
BRANCH   8  15
HETATM   15  C   UNL     1     -10.868  12.615  65.978  1.00  0.00    -0.306 A  
HETATM   16  C   UNL     1     -10.538  12.018  63.637  1.00  0.00    -0.503 A  
HETATM   17  C   UNL     1     -12.746  12.584  64.421  1.00  0.00    -0.447 A  
HETATM   18  C   UNL     1     -10.029  12.205  64.924  1.00  0.00    -0.235 A  
HETATM   19  C   UNL     1     -12.237  12.784  65.705  1.00  0.00    -0.469 A  
HETATM   20  C   UNL     1     -11.894  12.215  63.384  1.00  0.00    -0.553 A  
ENDBRANCH   8  15
ENDBRANCH   5   8
TORSDOF 3
ENDMDL
MODEL       18
REMARK 921   NORMALIZED FREE ENERGY PREDICTED BY IDOCK:   -5.91 KCAL/MOL
REMARK 922        TOTAL FREE ENERGY PREDICTED BY IDOCK:   -6.91 KCAL/MOL
REMARK 923 INTER-LIGAND FREE ENERGY PREDICTED BY IDOCK:   -6.41 KCAL/MOL
REMARK 924 INTRA-LIGAND FREE ENERGY PREDICTED BY IDOCK:   -0.50 KCAL/MOL
REMARK 927      BINDING AFFINITY PREDICTED BY RF-SCORE:    0.00 PKD
ROOT
HETATM    1  C   UNL     1      -6.521  16.964  67.999  1.00  0.00    -0.144 C  
HETATM    2  N   UNL     1      -7.960  17.025  67.750  1.00  0.00    -0.183 NA 
HETATM    3  C   UNL     1      -8.390  15.979  66.799  1.00  0.00    -0.270 C  
HETATM    4  C   UNL     1      -8.527  14.557  67.396  1.00  0.00    -0.205 C  
HETATM    5  N   UNL     1      -9.356  14.466  68.620  1.00  0.00    -0.202 NA 
HETATM    6  C   UNL     1      -8.818  15.471  69.574  1.00  0.00    -0.229 C  
HETATM    7  C   UNL     1      -8.719  16.910  69.011  1.00  0.00    -0.150 C  
ENDROOT
BRANCH   5   8
HETATM    8  C   UNL     1     -10.818  14.667  68.350  1.00  0.00    -0.245 C  
BRANCH   8   9
HETATM    9  C   UNL     1     -11.343  13.789  67.199  1.00  0.00    -0.344 A  
HETATM   10  C   UNL     1     -12.218  14.340  66.240  1.00  0.00    -0.433 A  
HETATM   11  C   UNL     1     -10.913  12.467  67.009  1.00  0.00    -0.306 A  
HETATM   12  C   UNL     1     -12.623  13.600  65.124  1.00  0.00    -0.474 A  
HETATM   13  C   UNL     1     -12.173  12.295  64.951  1.00  0.00    -0.410 A  
HETATM   14  C   UNL     1     -11.327  11.725  65.902  1.00  0.00    -0.324 A  
ENDBRANCH   8   9
BRANCH   8  15
HETATM   15  C   UNL     1     -11.646  14.535  69.640  1.00  0.00    -0.346 A  
HETATM   16  C   UNL     1     -12.822  13.094  71.217  1.00  0.00    -0.384 A  
HETATM   17  C   UNL     1     -13.228  15.470  71.244  1.00  0.00    -0.588 A  
HETATM   18  C   UNL     1     -11.899  13.260  70.183  1.00  0.00    -0.333 A  
HETATM   19  C   UNL     1     -12.316  15.636  70.202  1.00  0.00    -0.366 A  
HETATM   20  C   UNL     1     -13.492  14.197  71.742  1.00  0.00    -0.471 A  
ENDBRANCH   8  15
ENDBRANCH   5   8
TORSDOF 3
ENDMDL
MODEL       19
REMARK 921   NORMALIZED FREE ENERGY PREDICTED BY IDOCK:   -5.89 KCAL/MOL
REMARK 922        TOTAL FREE ENERGY PREDICTED BY IDOCK:   -6.89 KCAL/MOL
REMARK 923 INTER-LIGAND FREE ENERGY PREDICTED BY IDOCK:   -7.12 KCAL/MOL
REMARK 924 INTRA-LIGAND FREE ENERGY PREDICTED BY IDOCK:    0.23 KCAL/MOL
REMARK 927      BINDING AFFINITY PREDICTED BY RF-SCORE:    0.00 PKD
ROOT
HETATM    1  C   UNL     1     -10.469   7.935  69.259  1.00  0.00    -0.216 C  
HETATM    2  N   UNL     1      -9.973   9.278  69.553  1.00  0.00    -0.179 NA 
HETATM    3  C   UNL     1      -9.940  10.122  68.341  1.00  0.00    -0.156 C  
HETATM    4  C   UNL     1     -11.309  10.695  67.896  1.00  0.00    -0.268 C  
HETATM    5  N   UNL     1     -12.068  11.401  68.953  1.00  0.00    -0.469 NA 
HETATM    6  C   UNL     1     -12.152  10.470  70.110  1.00  0.00    -0.300 C  
HETATM    7  C   UNL     1     -10.788   9.924  70.601  1.00  0.00    -0.330 C  
ENDROOT
BRANCH   5   8
HETATM    8  C   UNL     1     -11.457  12.719  69.329  1.00  0.00    -0.289 C  
BRANCH   8   9
HETATM    9  C   UNL     1     -11.066  13.570  68.107  1.00  0.00    -0.283 A  
HETATM   10  C   UNL     1      -9.730  13.991  67.946  1.00  0.00    -0.229 A  
HETATM   11  C   UNL     1     -11.976  13.875  67.085  1.00  0.00    -0.455 A  
HETATM   12  C   UNL     1      -9.322  14.670  66.792  1.00  0.00    -0.275 A  
HETATM   13  C   UNL     1     -10.241  14.951  65.786  1.00  0.00    -0.358 A  
HETATM   14  C   UNL     1     -11.571  14.563  65.940  1.00  0.00    -0.349 A  
ENDBRANCH   8   9
BRANCH   8  15
HETATM   15  C   UNL     1     -12.340  13.474  70.337  1.00  0.00    -0.397 A  
HETATM   16  C   UNL     1     -13.035  15.601  71.306  1.00  0.00    -0.556 A  
HETATM   17  C   UNL     1     -13.552  13.545  72.453  1.00  0.00    -0.709 A  
HETATM   18  C   UNL     1     -12.424  14.879  70.279  1.00  0.00    -0.386 A  
HETATM   19  C   UNL     1     -12.930  12.822  71.435  1.00  0.00    -0.359 A  
HETATM   20  C   UNL     1     -13.592  14.936  72.396  1.00  0.00    -0.554 A  
ENDBRANCH   8  15
ENDBRANCH   5   8
TORSDOF 3
ENDMDL
MODEL       20
REMARK 921   NORMALIZED FREE ENERGY PREDICTED BY IDOCK:   -5.83 KCAL/MOL
REMARK 922        TOTAL FREE ENERGY PREDICTED BY IDOCK:   -6.82 KCAL/MOL
REMARK 923 INTER-LIGAND FREE ENERGY PREDICTED BY IDOCK:   -6.29 KCAL/MOL
REMARK 924 INTRA-LIGAND FREE ENERGY PREDICTED BY IDOCK:   -0.53 KCAL/MOL
REMARK 927      BINDING AFFINITY PREDICTED BY RF-SCORE:    0.00 PKD
ROOT
HETATM    1  C   UNL     1      -5.530  14.280  69.173  1.00  0.00    -0.084 C  
HETATM    2  N   UNL     1      -6.884  14.739  69.480  1.00  0.00    -0.158 NA 
HETATM    3  C   UNL     1      -7.066  16.163  69.128  1.00  0.00    -0.209 C  
HETATM    4  C   UNL     1      -7.282  16.450  67.622  1.00  0.00    -0.134 C  
HETATM    5  N   UNL     1      -8.352  15.653  66.978  1.00  0.00    -0.207 NA 
HETATM    6  C   UNL     1      -8.063  14.226  67.284  1.00  0.00    -0.178 C  
HETATM    7  C   UNL     1      -7.892  13.911  68.791  1.00  0.00    -0.079 C  
ENDROOT
BRANCH   5   8
HETATM    8  C   UNL     1      -9.727  16.059  67.417  1.00  0.00    -0.232 C  
BRANCH   8   9
HETATM    9  C   UNL     1      -9.941  17.585  67.387  1.00  0.00    -0.315 A  
HETATM   10  C   UNL     1     -10.075  18.296  68.597  1.00  0.00    -0.407 A  
HETATM   11  C   UNL     1      -9.920  18.321  66.194  1.00  0.00    -0.313 A  
HETATM   12  C   UNL     1     -10.159  19.693  68.607  1.00  0.00    -0.547 A  
HETATM   13  C   UNL     1     -10.124  20.402  67.410  1.00  0.00    -0.500 A  
HETATM   14  C   UNL     1     -10.016  19.713  66.203  1.00  0.00    -0.554 A  
ENDBRANCH   8   9
BRANCH   8  15
HETATM   15  C   UNL     1     -10.810  15.281  66.650  1.00  0.00    -0.310 A  
HETATM   16  C   UNL     1     -12.535  13.558  66.665  1.00  0.00    -0.263 A  
HETATM   17  C   UNL     1     -11.683  14.370  64.562  1.00  0.00    -0.430 A  
HETATM   18  C   UNL     1     -11.695  14.438  67.350  1.00  0.00    -0.424 A  
HETATM   19  C   UNL     1     -10.833  15.241  65.245  1.00  0.00    -0.417 A  
HETATM   20  C   UNL     1     -12.524  13.518  65.273  1.00  0.00    -0.525 A  
ENDBRANCH   8  15
ENDBRANCH   5   8
TORSDOF 3
ENDMDL
MODEL       21
REMARK 921   NORMALIZED FREE ENERGY PREDICTED BY IDOCK:   -5.83 KCAL/MOL
REMARK 922        TOTAL FREE ENERGY PREDICTED BY IDOCK:   -6.82 KCAL/MOL
REMARK 923 INTER-LIGAND FREE ENERGY PREDICTED BY IDOCK:   -6.30 KCAL/MOL
REMARK 924 INTRA-LIGAND FREE ENERGY PREDICTED BY IDOCK:   -0.52 KCAL/MOL
REMARK 927      BINDING AFFINITY PREDICTED BY RF-SCORE:    0.00 PKD
ROOT
HETATM    1  C   UNL     1     -11.832  13.015  63.370  1.00  0.00    -0.476 C  
HETATM    2  N   UNL     1     -10.891  13.357  64.435  1.00  0.00    -0.403 NA 
HETATM    3  C   UNL     1     -11.495  14.286  65.413  1.00  0.00    -0.332 C  
HETATM    4  C   UNL     1     -12.459  13.635  66.436  1.00  0.00    -0.324 C  
HETATM    5  N   UNL     1     -11.912  12.464  67.158  1.00  0.00    -0.549 NA 
HETATM    6  C   UNL     1     -11.408  11.523  66.123  1.00  0.00    -0.131 C  
HETATM    7  C   UNL     1     -10.404  12.143  65.119  1.00  0.00    -0.279 C  
ENDROOT
BRANCH   5   8
HETATM    8  C   UNL     1     -10.851  12.834  68.152  1.00  0.00    -0.228 C  
BRANCH   8   9
HETATM    9  C   UNL     1     -11.356  13.804  69.237  1.00  0.00    -0.325 A  
HETATM   10  C   UNL     1     -10.841  15.115  69.299  1.00  0.00    -0.255 A  
HETATM   11  C   UNL     1     -12.387  13.463  70.125  1.00  0.00    -0.322 A  
HETATM   12  C   UNL     1     -11.358  16.051  70.201  1.00  0.00    -0.369 A  
HETATM   13  C   UNL     1     -12.389  15.693  71.064  1.00  0.00    -0.481 A  
HETATM   14  C   UNL     1     -12.894  14.393  71.033  1.00  0.00    -0.423 A  
ENDBRANCH   8   9
BRANCH   8  15
HETATM   15  C   UNL     1     -10.166  11.583  68.728  1.00  0.00    -0.204 A  
HETATM   16  C   UNL     1     -10.226   9.717  70.296  1.00  0.00    -0.333 A  
HETATM   17  C   UNL     1      -8.138  10.338  69.265  1.00  0.00    -0.156 A  
HETATM   18  C   UNL     1     -10.880  10.727  69.589  1.00  0.00    -0.294 A  
HETATM   19  C   UNL     1      -8.787  11.358  68.568  1.00  0.00    -0.151 A  
HETATM   20  C   UNL     1      -8.855   9.527  70.140  1.00  0.00    -0.266 A  
ENDBRANCH   8  15
ENDBRANCH   5   8
TORSDOF 3
ENDMDL
MODEL       22
REMARK 921   NORMALIZED FREE ENERGY PREDICTED BY IDOCK:   -5.80 KCAL/MOL
REMARK 922        TOTAL FREE ENERGY PREDICTED BY IDOCK:   -6.78 KCAL/MOL
REMARK 923 INTER-LIGAND FREE ENERGY PREDICTED BY IDOCK:   -6.27 KCAL/MOL
REMARK 924 INTRA-LIGAND FREE ENERGY PREDICTED BY IDOCK:   -0.51 KCAL/MOL
REMARK 927      BINDING AFFINITY PREDICTED BY RF-SCORE:    0.00 PKD
ROOT
HETATM    1  C   UNL     1     -12.910  14.956  70.686  1.00  0.00    -0.353 C  
HETATM    2  N   UNL     1     -11.699  14.263  70.249  1.00  0.00    -0.285 NA 
HETATM    3  C   UNL     1     -11.984  13.313  69.153  1.00  0.00    -0.296 C  
HETATM    4  C   UNL     1     -12.157  13.952  67.753  1.00  0.00    -0.293 C  
HETATM    5  N   UNL     1     -11.061  14.856  67.335  1.00  0.00    -0.315 NA 
HETATM    6  C   UNL     1     -10.884  15.845  68.430  1.00  0.00    -0.316 C  
HETATM    7  C   UNL     1     -10.661  15.225  69.832  1.00  0.00    -0.285 C  
ENDROOT
BRANCH   5   8
HETATM    8  C   UNL     1      -9.789  14.125  67.021  1.00  0.00    -0.258 C  
BRANCH   8   9
HETATM    9  C   UNL     1      -9.944  13.117  65.866  1.00  0.00    -0.275 A  
HETATM   10  C   UNL     1      -9.698  11.748  66.094  1.00  0.00    -0.250 A  
HETATM   11  C   UNL     1     -10.411  13.497  64.600  1.00  0.00    -0.439 A  
HETATM   12  C   UNL     1      -9.937  10.796  65.096  1.00  0.00    -0.351 A  
HETATM   13  C   UNL     1     -10.413  11.196  63.851  1.00  0.00    -0.445 A  
HETATM   14  C   UNL     1     -10.638  12.549  63.600  1.00  0.00    -0.446 A  
ENDBRANCH   8   9
BRANCH   8  15
HETATM   15  C   UNL     1      -8.619  15.103  66.819  1.00  0.00    -0.297 A  
HETATM   16  C   UNL     1      -6.414  15.878  67.514  1.00  0.00    -0.205 A  
HETATM   17  C   UNL     1      -7.779  17.279  66.106  1.00  0.00    -0.317 A  
HETATM   18  C   UNL     1      -7.407  14.897  67.506  1.00  0.00    -0.229 A  
HETATM   19  C   UNL     1      -8.778  16.305  66.107  1.00  0.00    -0.353 A  
HETATM   20  C   UNL     1      -6.603  17.072  66.822  1.00  0.00    -0.262 A  
ENDBRANCH   8  15
ENDBRANCH   5   8
TORSDOF 3
ENDMDL
MODEL       23
REMARK 921   NORMALIZED FREE ENERGY PREDICTED BY IDOCK:   -5.80 KCAL/MOL
REMARK 922        TOTAL FREE ENERGY PREDICTED BY IDOCK:   -6.78 KCAL/MOL
REMARK 923 INTER-LIGAND FREE ENERGY PREDICTED BY IDOCK:   -6.19 KCAL/MOL
REMARK 924 INTRA-LIGAND FREE ENERGY PREDICTED BY IDOCK:   -0.59 KCAL/MOL
REMARK 927      BINDING AFFINITY PREDICTED BY RF-SCORE:    0.00 PKD
ROOT
HETATM    1  C   UNL     1     -10.950  10.572  67.068  1.00  0.00    -0.180 C  
HETATM    2  N   UNL     1     -11.715  11.811  67.199  1.00  0.00    -0.593 NA 
HETATM    3  C   UNL     1     -12.157  12.031  68.592  1.00  0.00    -0.088 C  
HETATM    4  C   UNL     1     -11.069  12.571  69.553  1.00  0.00    -0.006 C  
HETATM    5  N   UNL     1     -10.352  13.777  69.077  1.00  0.00    -0.133 NA 
HETATM    6  C   UNL     1      -9.850  13.463  67.714  1.00  0.00    -0.234 C  
HETATM    7  C   UNL     1     -10.933  12.968  66.723  1.00  0.00    -0.276 C  
ENDROOT
BRANCH   5   8
HETATM    8  C   UNL     1     -11.208  15.009  69.097  1.00  0.00    -0.281 C  
BRANCH   8   9
HETATM    9  C   UNL     1     -11.962  15.197  70.427  1.00  0.00    -0.364 A  
HETATM   10  C   UNL     1     -11.248  15.536  71.594  1.00  0.00    -0.388 A  
HETATM   11  C   UNL     1     -13.360  15.131  70.511  1.00  0.00    -0.200 A  
HETATM   12  C   UNL     1     -11.915  15.821  72.791  1.00  0.00    -0.598 A  
HETATM   13  C   UNL     1     -13.304  15.761  72.847  1.00  0.00    -0.661 A  
HETATM   14  C   UNL     1     -14.025  15.404  71.708  1.00  0.00    -0.626 A  
ENDBRANCH   8   9
BRANCH   8  15
HETATM   15  C   UNL     1     -10.405  16.251  68.674  1.00  0.00    -0.263 A  
HETATM   16  C   UNL     1     -10.050  18.048  67.064  1.00  0.00    -0.348 A  
HETATM   17  C   UNL     1      -8.323  17.522  68.661  1.00  0.00    -0.258 A  
HETATM   18  C   UNL     1     -10.862  17.052  67.609  1.00  0.00    -0.244 A  
HETATM   19  C   UNL     1      -9.128  16.517  69.199  1.00  0.00    -0.184 A  
HETATM   20  C   UNL     1      -8.778  18.278  67.584  1.00  0.00    -0.261 A  
ENDBRANCH   8  15
ENDBRANCH   5   8
TORSDOF 3
ENDMDL
MODEL       24
REMARK 921   NORMALIZED FREE ENERGY PREDICTED BY IDOCK:   -5.72 KCAL/MOL
REMARK 922        TOTAL FREE ENERGY PREDICTED BY IDOCK:   -6.69 KCAL/MOL
REMARK 923 INTER-LIGAND FREE ENERGY PREDICTED BY IDOCK:   -6.29 KCAL/MOL
REMARK 924 INTRA-LIGAND FREE ENERGY PREDICTED BY IDOCK:   -0.40 KCAL/MOL
REMARK 927      BINDING AFFINITY PREDICTED BY RF-SCORE:    0.00 PKD
ROOT
HETATM    1  C   UNL     1      -8.165  18.949  66.288  1.00  0.00    -0.268 C  
HETATM    2  N   UNL     1      -8.130  17.707  67.059  1.00  0.00    -0.214 NA 
HETATM    3  C   UNL     1      -8.816  17.857  68.359  1.00  0.00    -0.289 C  
HETATM    4  C   UNL     1     -10.363  17.809  68.300  1.00  0.00    -0.385 C  
HETATM    5  N   UNL     1     -10.930  16.640  67.588  1.00  0.00    -0.253 NA 
HETATM    6  C   UNL     1     -10.274  16.597  66.254  1.00  0.00    -0.334 C  
HETATM    7  C   UNL     1      -8.726  16.594  66.294  1.00  0.00    -0.324 C  
ENDROOT
BRANCH   5   8
HETATM    8  C   UNL     1     -10.759  15.357  68.346  1.00  0.00    -0.256 C  
BRANCH   8   9
HETATM    9  C   UNL     1     -11.521  15.343  69.684  1.00  0.00    -0.331 A  
HETATM   10  C   UNL     1     -10.807  15.410  70.898  1.00  0.00    -0.253 A  
HETATM   11  C   UNL     1     -12.923  15.356  69.748  1.00  0.00     0.226 A  
HETATM   12  C   UNL     1     -11.475  15.511  72.123  1.00  0.00    -0.512 A  
HETATM   13  C   UNL     1     -12.866  15.534  72.160  1.00  0.00    -0.492 A  
HETATM   14  C   UNL     1     -13.588  15.444  70.971  1.00  0.00    -0.465 A  
ENDBRANCH   8   9
BRANCH   8  15
HETATM   15  C   UNL     1     -11.071  14.140  67.458  1.00  0.00    -0.304 A  
HETATM   16  C   UNL     1     -10.292  12.089  66.394  1.00  0.00    -0.246 A  
HETATM   17  C   UNL     1     -12.344  13.111  65.649  1.00  0.00    -0.519 A  
HETATM   18  C   UNL     1     -10.137  13.091  67.354  1.00  0.00    -0.231 A  
HETATM   19  C   UNL     1     -12.184  14.121  66.599  1.00  0.00    -0.450 A  
HETATM   20  C   UNL     1     -11.391  12.102  65.537  1.00  0.00    -0.393 A  
ENDBRANCH   8  15
ENDBRANCH   5   8
TORSDOF 3
ENDMDL
MODEL       25
REMARK 921   NORMALIZED FREE ENERGY PREDICTED BY IDOCK:   -5.69 KCAL/MOL
REMARK 922        TOTAL FREE ENERGY PREDICTED BY IDOCK:   -6.65 KCAL/MOL
REMARK 923 INTER-LIGAND FREE ENERGY PREDICTED BY IDOCK:   -6.14 KCAL/MOL
REMARK 924 INTRA-LIGAND FREE ENERGY PREDICTED BY IDOCK:   -0.51 KCAL/MOL
REMARK 927      BINDING AFFINITY PREDICTED BY RF-SCORE:    0.00 PKD
ROOT
HETATM    1  C   UNL     1      -5.414  13.964  69.415  1.00  0.00    -0.084 C  
HETATM    2  N   UNL     1      -5.917  14.479  68.143  1.00  0.00    -0.125 NA 
HETATM    3  C   UNL     1      -7.060  13.683  67.649  1.00  0.00    -0.170 C  
HETATM    4  C   UNL     1      -8.417  13.977  68.335  1.00  0.00    -0.166 C  
HETATM    5  N   UNL     1      -8.805  15.405  68.373  1.00  0.00    -0.171 NA 
HETATM    6  C   UNL     1      -7.658  16.143  68.966  1.00  0.00    -0.213 C  
HETATM    7  C   UNL     1      -6.300  15.899  68.262  1.00  0.00    -0.117 C  
ENDROOT
BRANCH   5   8
HETATM    8  C   UNL     1      -9.188  15.942  67.025  1.00  0.00    -0.214 C  
BRANCH   8   9
HETATM    9  C   UNL     1     -10.439  15.260  66.440  1.00  0.00    -0.307 A  
HETATM   10  C   UNL     1     -10.585  15.146  65.042  1.00  0.00    -0.439 A  
HETATM   11  C   UNL     1     -11.412  14.657  67.251  1.00  0.00    -0.386 A  
HETATM   12  C   UNL     1     -11.653  14.436  64.484  1.00  0.00    -0.393 A  
HETATM   13  C   UNL     1     -12.600  13.837  65.309  1.00  0.00    -0.510 A  
HETATM   14  C   UNL     1     -12.484  13.959  66.693  1.00  0.00    -0.313 A  
ENDBRANCH   8   9
BRANCH   8  15
HETATM   15  C   UNL     1      -9.288  17.477  67.044  1.00  0.00    -0.262 A  
HETATM   16  C   UNL     1     -10.643  19.467  67.427  1.00  0.00    -0.607 A  
HETATM   17  C   UNL     1      -8.570  19.655  66.213  1.00  0.00    -0.393 A  
HETATM   18  C   UNL     1     -10.426  18.098  67.593  1.00  0.00    -0.432 A  
HETATM   19  C   UNL     1      -8.357  18.285  66.367  1.00  0.00    -0.267 A  
HETATM   20  C   UNL     1      -9.720  20.244  66.731  1.00  0.00    -0.571 A  
ENDBRANCH   8  15
ENDBRANCH   5   8
TORSDOF 3
ENDMDL
MODEL       26
REMARK 921   NORMALIZED FREE ENERGY PREDICTED BY IDOCK:   -5.67 KCAL/MOL
REMARK 922        TOTAL FREE ENERGY PREDICTED BY IDOCK:   -6.63 KCAL/MOL
REMARK 923 INTER-LIGAND FREE ENERGY PREDICTED BY IDOCK:   -6.55 KCAL/MOL
REMARK 924 INTRA-LIGAND FREE ENERGY PREDICTED BY IDOCK:   -0.08 KCAL/MOL
REMARK 927      BINDING AFFINITY PREDICTED BY RF-SCORE:    0.00 PKD
ROOT
HETATM    1  C   UNL     1      -8.569   8.192  66.109  1.00  0.00    -0.139 C  
HETATM    2  N   UNL     1      -9.898   8.793  66.214  1.00  0.00    -0.281 NA 
HETATM    3  C   UNL     1     -10.304   8.966  67.624  1.00  0.00    -0.251 C  
HETATM    4  C   UNL     1      -9.669  10.177  68.352  1.00  0.00    -0.147 C  
HETATM    5  N   UNL     1      -9.803  11.473  67.649  1.00  0.00    -0.179 NA 
HETATM    6  C   UNL     1      -9.291  11.264  66.269  1.00  0.00    -0.207 C  
HETATM    7  C   UNL     1      -9.949  10.087  65.507  1.00  0.00    -0.296 C  
ENDROOT
BRANCH   5   8
HETATM    8  C   UNL     1     -11.208  12.000  67.658  1.00  0.00    -0.282 C  
BRANCH   8   9
HETATM    9  C   UNL     1     -11.760  12.212  69.081  1.00  0.00    -0.384 A  
HETATM   10  C   UNL     1     -11.857  13.516  69.607  1.00  0.00    -0.398 A  
HETATM   11  C   UNL     1     -12.263  11.155  69.854  1.00  0.00    -0.385 A  
HETATM   12  C   UNL     1     -12.456  13.750  70.850  1.00  0.00    -0.451 A  
HETATM   13  C   UNL     1     -12.958  12.687  71.593  1.00  0.00    -0.400 A  
HETATM   14  C   UNL     1     -12.849  11.388  71.099  1.00  0.00    -0.440 A  
ENDBRANCH   8   9
BRANCH   8  15
HETATM   15  C   UNL     1     -11.342  13.244  66.764  1.00  0.00    -0.359 A  
HETATM   16  C   UNL     1     -12.295  14.280  64.773  1.00  0.00    -0.440 A  
HETATM   17  C   UNL     1     -10.422  15.321  65.874  1.00  0.00    -0.345 A  
HETATM   18  C   UNL     1     -12.300  13.265  65.731  1.00  0.00    -0.505 A  
HETATM   19  C   UNL     1     -10.415  14.300  66.826  1.00  0.00    -0.273 A  
HETATM   20  C   UNL     1     -11.353  15.303  64.840  1.00  0.00    -0.387 A  
ENDBRANCH   8  15
ENDBRANCH   5   8
TORSDOF 3
ENDMDL
MODEL       27
REMARK 921   NORMALIZED FREE ENERGY PREDICTED BY IDOCK:   -5.58 KCAL/MOL
REMARK 922        TOTAL FREE ENERGY PREDICTED BY IDOCK:   -6.53 KCAL/MOL
REMARK 923 INTER-LIGAND FREE ENERGY PREDICTED BY IDOCK:   -6.16 KCAL/MOL
REMARK 924 INTRA-LIGAND FREE ENERGY PREDICTED BY IDOCK:   -0.36 KCAL/MOL
REMARK 927      BINDING AFFINITY PREDICTED BY RF-SCORE:    0.00 PKD
ROOT
HETATM    1  C   UNL     1     -10.640  11.135  63.792  1.00  0.00    -0.356 C  
HETATM    2  N   UNL     1      -9.909  11.551  64.988  1.00  0.00    -0.252 NA 
HETATM    3  C   UNL     1     -10.458  12.802  65.551  1.00  0.00    -0.287 C  
HETATM    4  C   UNL     1     -11.762  12.641  66.372  1.00  0.00    -0.405 C  
HETATM    5  N   UNL     1     -11.712  11.613  67.437  1.00  0.00    -0.606 NA 
HETATM    6  C   UNL     1     -11.246  10.356  66.794  1.00  0.00     0.210 C  
HETATM    7  C   UNL     1      -9.917  10.486  66.009  1.00  0.00    -0.237 C  
ENDROOT
BRANCH   5   8
HETATM    8  C   UNL     1     -10.844  12.014  68.594  1.00  0.00    -0.237 C  
BRANCH   8   9
HETATM    9  C   UNL     1     -11.041  13.483  69.012  1.00  0.00    -0.293 A  
HETATM   10  C   UNL     1     -12.237  13.876  69.646  1.00  0.00    -0.374 A  
HETATM   11  C   UNL     1     -10.030  14.444  68.868  1.00  0.00    -0.183 A  
HETATM   12  C   UNL     1     -12.400  15.176  70.137  1.00  0.00    -0.385 A  
HETATM   13  C   UNL     1     -11.378  16.110  69.992  1.00  0.00    -0.332 A  
HETATM   14  C   UNL     1     -10.197  15.745  69.346  1.00  0.00    -0.262 A  
ENDBRANCH   8   9
BRANCH   8  15
HETATM   15  C   UNL     1     -10.984  11.026  69.764  1.00  0.00    -0.258 A  
HETATM   16  C   UNL     1     -10.105   9.104  70.979  1.00  0.00    -0.373 A  
HETATM   17  C   UNL     1     -12.384   9.799  71.342  1.00  0.00    -0.480 A  
HETATM   18  C   UNL     1      -9.925  10.151  70.074  1.00  0.00    -0.213 A  
HETATM   19  C   UNL     1     -12.210  10.839  70.427  1.00  0.00    -0.437 A  
HETATM   20  C   UNL     1     -11.335   8.923  71.607  1.00  0.00    -0.407 A  
ENDBRANCH   8  15
ENDBRANCH   5   8
TORSDOF 3
ENDMDL
MODEL       28
REMARK 921   NORMALIZED FREE ENERGY PREDICTED BY IDOCK:   -5.54 KCAL/MOL
REMARK 922        TOTAL FREE ENERGY PREDICTED BY IDOCK:   -6.48 KCAL/MOL
REMARK 923 INTER-LIGAND FREE ENERGY PREDICTED BY IDOCK:   -6.38 KCAL/MOL
REMARK 924 INTRA-LIGAND FREE ENERGY PREDICTED BY IDOCK:   -0.10 KCAL/MOL
REMARK 927      BINDING AFFINITY PREDICTED BY RF-SCORE:    0.00 PKD
ROOT
HETATM    1  C   UNL     1     -12.082  13.513  63.592  1.00  0.00    -0.400 C  
HETATM    2  N   UNL     1     -12.551  12.871  64.819  1.00  0.00    -0.649 NA 
HETATM    3  C   UNL     1     -11.529  11.963  65.380  1.00  0.00    -0.251 C  
HETATM    4  C   UNL     1     -10.379  12.658  66.151  1.00  0.00    -0.256 C  
HETATM    5  N   UNL     1     -10.812  13.607  67.203  1.00  0.00    -0.283 NA 
HETATM    6  C   UNL     1     -11.762  14.552  66.559  1.00  0.00    -0.368 C  
HETATM    7  C   UNL     1     -12.946  13.877  65.824  1.00  0.00    -0.276 C  
ENDROOT
BRANCH   5   8
HETATM    8  C   UNL     1     -11.413  12.923  68.395  1.00  0.00    -0.312 C  
BRANCH   8   9
HETATM    9  C   UNL     1     -10.685  11.618  68.770  1.00  0.00    -0.254 A  
HETATM   10  C   UNL     1      -9.276  11.582  68.786  1.00  0.00    -0.076 A  
HETATM   11  C   UNL     1     -11.374  10.470  69.189  1.00  0.00    -0.319 A  
HETATM   12  C   UNL     1      -8.588  10.447  69.228  1.00  0.00    -0.159 A  
HETATM   13  C   UNL     1      -9.294   9.324  69.651  1.00  0.00    -0.187 A  
HETATM   14  C   UNL     1     -10.688   9.334  69.619  1.00  0.00    -0.244 A  
ENDBRANCH   8   9
BRANCH   8  15
HETATM   15  C   UNL     1     -11.564  13.895  69.578  1.00  0.00    -0.358 A  
HETATM   16  C   UNL     1     -12.831  14.607  71.535  1.00  0.00    -0.404 A  
HETATM   17  C   UNL     1     -11.197  16.092  70.571  1.00  0.00    -0.381 A  
HETATM   18  C   UNL     1     -12.523  13.639  70.577  1.00  0.00    -0.394 A  
HETATM   19  C   UNL     1     -10.896  15.132  69.605  1.00  0.00    -0.297 A  
HETATM   20  C   UNL     1     -12.175  15.835  71.528  1.00  0.00    -0.513 A  
ENDBRANCH   8  15
ENDBRANCH   5   8
TORSDOF 3
ENDMDL
MODEL       29
REMARK 921   NORMALIZED FREE ENERGY PREDICTED BY IDOCK:   -5.53 KCAL/MOL
REMARK 922        TOTAL FREE ENERGY PREDICTED BY IDOCK:   -6.47 KCAL/MOL
REMARK 923 INTER-LIGAND FREE ENERGY PREDICTED BY IDOCK:   -5.94 KCAL/MOL
REMARK 924 INTRA-LIGAND FREE ENERGY PREDICTED BY IDOCK:   -0.53 KCAL/MOL
REMARK 927      BINDING AFFINITY PREDICTED BY RF-SCORE:    0.00 PKD
ROOT
HETATM    1  C   UNL     1      -9.198   7.646  69.597  1.00  0.00    -0.146 C  
HETATM    2  N   UNL     1      -8.743   8.840  68.887  1.00  0.00    -0.133 NA 
HETATM    3  C   UNL     1      -9.394   8.966  67.566  1.00  0.00    -0.136 C  
HETATM    4  C   UNL     1     -10.847   9.502  67.593  1.00  0.00    -0.187 C  
HETATM    5  N   UNL     1     -11.037  10.763  68.347  1.00  0.00    -0.245 NA 
HETATM    6  C   UNL     1     -10.450  10.545  69.695  1.00  0.00    -0.219 C  
HETATM    7  C   UNL     1      -8.981  10.055  69.690  1.00  0.00    -0.202 C  
ENDROOT
BRANCH   5   8
HETATM    8  C   UNL     1     -10.441  11.953  67.654  1.00  0.00    -0.208 C  
BRANCH   8   9
HETATM    9  C   UNL     1     -10.839  12.047  66.169  1.00  0.00    -0.325 A  
HETATM   10  C   UNL     1     -12.132  12.484  65.818  1.00  0.00    -0.443 A  
HETATM   11  C   UNL     1      -9.928  11.796  65.132  1.00  0.00    -0.285 A  
HETATM   12  C   UNL     1     -12.487  12.685  64.479  1.00  0.00    -0.525 A  
HETATM   13  C   UNL     1     -11.562  12.441  63.468  1.00  0.00    -0.577 A  
HETATM   14  C   UNL     1     -10.286  11.985  63.797  1.00  0.00    -0.457 A  
ENDBRANCH   8   9
BRANCH   8  15
HETATM   15  C   UNL     1     -10.713  13.248  68.438  1.00  0.00    -0.273 A  
HETATM   16  C   UNL     1      -9.846  15.303  69.423  1.00  0.00    -0.253 A  
HETATM   17  C   UNL     1     -12.019  14.493  70.079  1.00  0.00    -0.388 A  
HETATM   18  C   UNL     1      -9.707  14.228  68.543  1.00  0.00    -0.225 A  
HETATM   19  C   UNL     1     -11.877  13.411  69.210  1.00  0.00    -0.385 A  
HETATM   20  C   UNL     1     -10.998  15.432  70.196  1.00  0.00    -0.327 A  
ENDBRANCH   8  15
ENDBRANCH   5   8
TORSDOF 3
ENDMDL
MODEL       30
REMARK 921   NORMALIZED FREE ENERGY PREDICTED BY IDOCK:   -5.50 KCAL/MOL
REMARK 922        TOTAL FREE ENERGY PREDICTED BY IDOCK:   -6.44 KCAL/MOL
REMARK 923 INTER-LIGAND FREE ENERGY PREDICTED BY IDOCK:   -6.27 KCAL/MOL
REMARK 924 INTRA-LIGAND FREE ENERGY PREDICTED BY IDOCK:   -0.17 KCAL/MOL
REMARK 927      BINDING AFFINITY PREDICTED BY RF-SCORE:    0.00 PKD
ROOT
HETATM    1  C   UNL     1      -8.395   7.623  66.606  1.00  0.00    -0.127 C  
HETATM    2  N   UNL     1      -9.709   8.265  66.616  1.00  0.00    -0.230 NA 
HETATM    3  C   UNL     1     -10.087   8.705  67.975  1.00  0.00    -0.196 C  
HETATM    4  C   UNL     1      -9.413  10.013  68.458  1.00  0.00    -0.148 C  
HETATM    5  N   UNL     1      -9.532  11.161  67.530  1.00  0.00    -0.167 NA 
HETATM    6  C   UNL     1      -9.050  10.688  66.205  1.00  0.00    -0.167 C  
HETATM    7  C   UNL     1      -9.746   9.407  65.683  1.00  0.00    -0.266 C  
ENDROOT
BRANCH   5   8
HETATM    8  C   UNL     1     -10.926  11.714  67.461  1.00  0.00    -0.259 C  
BRANCH   8   9
HETATM    9  C   UNL     1     -11.468  12.150  68.835  1.00  0.00    -0.350 A  
HETATM   10  C   UNL     1     -11.452  13.514  69.193  1.00  0.00    -0.345 A  
HETATM   11  C   UNL     1     -12.067  11.247  69.725  1.00  0.00    -0.394 A  
HETATM   12  C   UNL     1     -12.037  13.953  70.386  1.00  0.00    -0.421 A  
HETATM   13  C   UNL     1     -12.636  13.039  71.247  1.00  0.00    -0.373 A  
HETATM   14  C   UNL     1     -12.640  11.684  70.920  1.00  0.00    -0.409 A  
ENDBRANCH   8   9
BRANCH   8  15
HETATM   15  C   UNL     1     -11.037  12.811  66.389  1.00  0.00    -0.320 A  
HETATM   16  C   UNL     1     -10.180  14.889  65.445  1.00  0.00    -0.409 A  
HETATM   17  C   UNL     1     -12.386  14.129  64.842  1.00  0.00    -0.446 A  
HETATM   18  C   UNL     1     -10.008  13.762  66.250  1.00  0.00    -0.312 A  
HETATM   19  C   UNL     1     -12.221  13.008  65.657  1.00  0.00    -0.521 A  
HETATM   20  C   UNL     1     -11.371  15.077  64.747  1.00  0.00    -0.409 A  
ENDBRANCH   8  15
ENDBRANCH   5   8
TORSDOF 3
ENDMDL
MODEL       31
REMARK 921   NORMALIZED FREE ENERGY PREDICTED BY IDOCK:   -5.49 KCAL/MOL
REMARK 922        TOTAL FREE ENERGY PREDICTED BY IDOCK:   -6.42 KCAL/MOL
REMARK 923 INTER-LIGAND FREE ENERGY PREDICTED BY IDOCK:   -5.93 KCAL/MOL
REMARK 924 INTRA-LIGAND FREE ENERGY PREDICTED BY IDOCK:   -0.48 KCAL/MOL
REMARK 927      BINDING AFFINITY PREDICTED BY RF-SCORE:    0.00 PKD
ROOT
HETATM    1  C   UNL     1      -9.025   7.409  69.282  1.00  0.00    -0.136 C  
HETATM    2  N   UNL     1      -8.597   8.649  68.637  1.00  0.00    -0.130 NA 
HETATM    3  C   UNL     1      -9.286   8.853  67.346  1.00  0.00    -0.136 C  
HETATM    4  C   UNL     1     -10.741   9.376  67.448  1.00  0.00    -0.210 C  
HETATM    5  N   UNL     1     -10.916  10.585  68.285  1.00  0.00    -0.243 NA 
HETATM    6  C   UNL     1     -10.290  10.287  69.600  1.00  0.00    -0.248 C  
HETATM    7  C   UNL     1      -8.819   9.809  69.522  1.00  0.00    -0.193 C  
ENDROOT
BRANCH   5   8
HETATM    8  C   UNL     1     -10.346  11.821  67.653  1.00  0.00    -0.200 C  
BRANCH   8   9
HETATM    9  C   UNL     1     -10.844  12.043  66.212  1.00  0.00    -0.316 A  
HETATM   10  C   UNL     1     -10.014  11.703  65.124  1.00  0.00    -0.297 A  
HETATM   11  C   UNL     1     -12.142  12.494  65.930  1.00  0.00    -0.420 A  
HETATM   12  C   UNL     1     -10.480  11.790  63.808  1.00  0.00    -0.466 A  
HETATM   13  C   UNL     1     -11.775  12.229  63.553  1.00  0.00    -0.584 A  
HETATM   14  C   UNL     1     -12.601  12.593  64.616  1.00  0.00    -0.517 A  
ENDBRANCH   8   9
BRANCH   8  15
HETATM   15  C   UNL     1     -10.540  13.050  68.558  1.00  0.00    -0.274 A  
HETATM   16  C   UNL     1     -12.038  14.430  69.896  1.00  0.00    -0.398 A  
HETATM   17  C   UNL     1      -9.890  15.301  69.238  1.00  0.00    -0.255 A  
HETATM   18  C   UNL     1     -11.754  13.226  69.249  1.00  0.00    -0.380 A  
HETATM   19  C   UNL     1      -9.608  14.103  68.579  1.00  0.00    -0.214 A  
HETATM   20  C   UNL     1     -11.111  15.470  69.884  1.00  0.00    -0.318 A  
ENDBRANCH   8  15
ENDBRANCH   5   8
TORSDOF 3
ENDMDL
MODEL       32
REMARK 921   NORMALIZED FREE ENERGY PREDICTED BY IDOCK:   -5.44 KCAL/MOL
REMARK 922        TOTAL FREE ENERGY PREDICTED BY IDOCK:   -6.36 KCAL/MOL
REMARK 923 INTER-LIGAND FREE ENERGY PREDICTED BY IDOCK:   -5.76 KCAL/MOL
REMARK 924 INTRA-LIGAND FREE ENERGY PREDICTED BY IDOCK:   -0.60 KCAL/MOL
REMARK 927      BINDING AFFINITY PREDICTED BY RF-SCORE:    0.00 PKD
ROOT
HETATM    1  C   UNL     1     -13.613  14.137  72.148  1.00  0.00    -0.475 C  
HETATM    2  N   UNL     1     -12.295  13.913  71.556  1.00  0.00    -0.293 NA 
HETATM    3  C   UNL     1     -12.397  13.558  70.125  1.00  0.00    -0.275 C  
HETATM    4  C   UNL     1     -12.656  14.746  69.166  1.00  0.00     0.176 C  
HETATM    5  N   UNL     1     -11.725  15.889  69.314  1.00  0.00    -0.370 NA 
HETATM    6  C   UNL     1     -11.737  16.263  70.753  1.00  0.00    -0.193 C  
HETATM    7  C   UNL     1     -11.431  15.097  71.727  1.00  0.00    -0.380 C  
ENDROOT
BRANCH   5   8
HETATM    8  C   UNL     1     -10.342  15.582  68.819  1.00  0.00    -0.217 C  
BRANCH   8   9
HETATM    9  C   UNL     1     -10.335  14.893  67.442  1.00  0.00    -0.243 A  
HETATM   10  C   UNL     1     -10.696  15.624  66.291  1.00  0.00    -0.295 A  
HETATM   11  C   UNL     1      -9.894  13.573  67.267  1.00  0.00    -0.237 A  
HETATM   12  C   UNL     1     -10.593  15.059  65.016  1.00  0.00    -0.437 A  
HETATM   13  C   UNL     1     -10.142  13.751  64.867  1.00  0.00    -0.297 A  
HETATM   14  C   UNL     1      -9.804  13.005  65.996  1.00  0.00    -0.259 A  
ENDBRANCH   8   9
BRANCH   8  15
HETATM   15  C   UNL     1      -9.441  16.828  68.879  1.00  0.00    -0.246 A  
HETATM   16  C   UNL     1      -9.178  19.223  68.509  1.00  0.00    -0.434 A  
HETATM   17  C   UNL     1      -7.224  17.842  68.791  1.00  0.00    -0.271 A  
HETATM   18  C   UNL     1      -9.997  18.106  68.679  1.00  0.00    -0.409 A  
HETATM   19  C   UNL     1      -8.040  16.721  68.948  1.00  0.00    -0.230 A  
HETATM   20  C   UNL     1      -7.792  19.091  68.557  1.00  0.00    -0.375 A  
ENDBRANCH   8  15
ENDBRANCH   5   8
TORSDOF 3
ENDMDL
MODEL       33
REMARK 921   NORMALIZED FREE ENERGY PREDICTED BY IDOCK:   -5.44 KCAL/MOL
REMARK 922        TOTAL FREE ENERGY PREDICTED BY IDOCK:   -6.36 KCAL/MOL
REMARK 923 INTER-LIGAND FREE ENERGY PREDICTED BY IDOCK:   -6.35 KCAL/MOL
REMARK 924 INTRA-LIGAND FREE ENERGY PREDICTED BY IDOCK:   -0.00 KCAL/MOL
REMARK 927      BINDING AFFINITY PREDICTED BY RF-SCORE:    0.00 PKD
ROOT
HETATM    1  C   UNL     1     -11.019  15.068  64.618  1.00  0.00    -0.303 C  
HETATM    2  N   UNL     1     -10.412  14.739  65.906  1.00  0.00    -0.296 NA 
HETATM    3  C   UNL     1     -11.379  14.882  67.014  1.00  0.00    -0.342 C  
HETATM    4  C   UNL     1     -12.391  13.718  67.163  1.00  0.00    -0.204 C  
HETATM    5  N   UNL     1     -11.789  12.366  67.220  1.00  0.00    -0.519 NA 
HETATM    6  C   UNL     1     -10.902  12.245  66.033  1.00  0.00    -0.275 C  
HETATM    7  C   UNL     1      -9.851  13.374  65.893  1.00  0.00    -0.238 C  
ENDROOT
BRANCH   5   8
HETATM    8  C   UNL     1     -11.057  12.107  68.503  1.00  0.00    -0.252 C  
BRANCH   8   9
HETATM    9  C   UNL     1     -11.941  12.303  69.750  1.00  0.00    -0.365 A  
HETATM   10  C   UNL     1     -12.358  11.183  70.496  1.00  0.00    -0.454 A  
HETATM   11  C   UNL     1     -12.280  13.575  70.233  1.00  0.00    -0.417 A  
HETATM   12  C   UNL     1     -13.067  11.336  71.693  1.00  0.00    -0.513 A  
HETATM   13  C   UNL     1     -13.382  12.609  72.158  1.00  0.00    -0.570 A  
HETATM   14  C   UNL     1     -12.998  13.728  71.420  1.00  0.00    -0.433 A  
ENDBRANCH   8   9
BRANCH   8  15
HETATM   15  C   UNL     1     -10.346  10.743  68.473  1.00  0.00    -0.202 A  
HETATM   16  C   UNL     1      -8.288   9.465  68.752  1.00  0.00    -0.117 A  
HETATM   17  C   UNL     1     -10.159   8.473  67.601  1.00  0.00    -0.271 A  
HETATM   18  C   UNL     1      -9.032  10.627  68.966  1.00  0.00    -0.165 A  
HETATM   19  C   UNL     1     -10.899   9.638  67.802  1.00  0.00    -0.278 A  
HETATM   20  C   UNL     1      -8.848   8.391  68.063  1.00  0.00    -0.142 A  
ENDBRANCH   8  15
ENDBRANCH   5   8
TORSDOF 3
ENDMDL
MODEL       34
REMARK 921   NORMALIZED FREE ENERGY PREDICTED BY IDOCK:   -5.42 KCAL/MOL
REMARK 922        TOTAL FREE ENERGY PREDICTED BY IDOCK:   -6.34 KCAL/MOL
REMARK 923 INTER-LIGAND FREE ENERGY PREDICTED BY IDOCK:   -6.07 KCAL/MOL
REMARK 924 INTRA-LIGAND FREE ENERGY PREDICTED BY IDOCK:   -0.27 KCAL/MOL
REMARK 927      BINDING AFFINITY PREDICTED BY RF-SCORE:    0.00 PKD
ROOT
HETATM    1  C   UNL     1      -6.413   9.476  67.515  1.00  0.00    -0.062 C  
HETATM    2  N   UNL     1      -6.938  10.826  67.711  1.00  0.00    -0.076 NA 
HETATM    3  C   UNL     1      -7.800  11.242  66.585  1.00  0.00    -0.152 C  
HETATM    4  C   UNL     1      -9.233  10.654  66.597  1.00  0.00    -0.164 C  
HETATM    5  N   UNL     1      -9.976  10.835  67.865  1.00  0.00    -0.171 NA 
HETATM    6  C   UNL     1      -9.101  10.313  68.949  1.00  0.00    -0.168 C  
HETATM    7  C   UNL     1      -7.679  10.925  68.983  1.00  0.00    -0.135 C  
ENDROOT
BRANCH   5   8
HETATM    8  C   UNL     1     -10.385  12.259  68.104  1.00  0.00    -0.216 C  
BRANCH   8   9
HETATM    9  C   UNL     1     -10.830  12.979  66.817  1.00  0.00    -0.285 A  
HETATM   10  C   UNL     1     -12.020  12.587  66.171  1.00  0.00    -0.432 A  
HETATM   11  C   UNL     1     -10.138  14.086  66.302  1.00  0.00    -0.307 A  
HETATM   12  C   UNL     1     -12.507  13.294  65.065  1.00  0.00    -0.498 A  
HETATM   13  C   UNL     1     -11.809  14.395  64.579  1.00  0.00    -0.463 A  
HETATM   14  C   UNL     1     -10.618  14.783  65.192  1.00  0.00    -0.439 A  
ENDBRANCH   8   9
BRANCH   8  15
HETATM   15  C   UNL     1     -11.415  12.359  69.242  1.00  0.00    -0.349 A  
HETATM   16  C   UNL     1     -12.526  13.729  70.925  1.00  0.00    -0.451 A  
HETATM   17  C   UNL     1     -12.651  11.327  71.075  1.00  0.00    -0.495 A  
HETATM   18  C   UNL     1     -11.770  13.621  69.756  1.00  0.00    -0.364 A  
HETATM   19  C   UNL     1     -11.884  11.217  69.914  1.00  0.00    -0.439 A  
HETATM   20  C   UNL     1     -12.960  12.584  71.588  1.00  0.00    -0.405 A  
ENDBRANCH   8  15
ENDBRANCH   5   8
TORSDOF 3
ENDMDL
MODEL       35
REMARK 921   NORMALIZED FREE ENERGY PREDICTED BY IDOCK:   -5.40 KCAL/MOL
REMARK 922        TOTAL FREE ENERGY PREDICTED BY IDOCK:   -6.31 KCAL/MOL
REMARK 923 INTER-LIGAND FREE ENERGY PREDICTED BY IDOCK:   -5.82 KCAL/MOL
REMARK 924 INTRA-LIGAND FREE ENERGY PREDICTED BY IDOCK:   -0.49 KCAL/MOL
REMARK 927      BINDING AFFINITY PREDICTED BY RF-SCORE:    0.00 PKD
ROOT
HETATM    1  C   UNL     1      -9.716  18.209  68.733  1.00  0.00    -0.325 C  
HETATM    2  N   UNL     1      -9.102  17.054  68.080  1.00  0.00    -0.231 NA 
HETATM    3  C   UNL     1      -8.998  15.903  69.001  1.00  0.00    -0.245 C  
HETATM    4  C   UNL     1     -10.312  15.112  69.223  1.00  0.00    -0.257 C  
HETATM    5  N   UNL     1     -11.001  14.680  67.986  1.00  0.00    -0.260 NA 
HETATM    6  C   UNL     1     -11.164  15.893  67.142  1.00  0.00    -0.060 C  
HETATM    7  C   UNL     1      -9.852  16.671  66.868  1.00  0.00    -0.263 C  
ENDROOT
BRANCH   5   8
HETATM    8  C   UNL     1     -10.274  13.582  67.266  1.00  0.00    -0.242 C  
BRANCH   8   9
HETATM    9  C   UNL     1     -10.102  12.313  68.122  1.00  0.00    -0.211 A  
HETATM   10  C   UNL     1     -11.174  11.849  68.909  1.00  0.00    -0.310 A  
HETATM   11  C   UNL     1      -8.934  11.537  68.083  1.00  0.00    -0.172 A  
HETATM   12  C   UNL     1     -11.085  10.641  69.609  1.00  0.00    -0.342 A  
HETATM   13  C   UNL     1      -9.920   9.882  69.546  1.00  0.00    -0.240 A  
HETATM   14  C   UNL     1      -8.841  10.338  68.791  1.00  0.00    -0.148 A  
ENDBRANCH   8   9
BRANCH   8  15
HETATM   15  C   UNL     1     -10.905  13.305  65.890  1.00  0.00    -0.289 A  
HETATM   16  C   UNL     1     -12.895  12.776  64.585  1.00  0.00    -0.355 A  
HETATM   17  C   UNL     1     -10.714  12.482  63.602  1.00  0.00    -0.469 A  
HETATM   18  C   UNL     1     -12.306  13.240  65.762  1.00  0.00    -0.505 A  
HETATM   19  C   UNL     1     -10.123  12.933  64.782  1.00  0.00    -0.242 A  
HETATM   20  C   UNL     1     -12.100  12.390  63.508  1.00  0.00    -0.651 A  
ENDBRANCH   8  15
ENDBRANCH   5   8
TORSDOF 3
ENDMDL
MODEL       36
REMARK 921   NORMALIZED FREE ENERGY PREDICTED BY IDOCK:   -5.40 KCAL/MOL
REMARK 922        TOTAL FREE ENERGY PREDICTED BY IDOCK:   -6.31 KCAL/MOL
REMARK 923 INTER-LIGAND FREE ENERGY PREDICTED BY IDOCK:   -5.69 KCAL/MOL
REMARK 924 INTRA-LIGAND FREE ENERGY PREDICTED BY IDOCK:   -0.62 KCAL/MOL
REMARK 927      BINDING AFFINITY PREDICTED BY RF-SCORE:    0.00 PKD
ROOT
HETATM    1  C   UNL     1      -9.267   3.166  73.694  1.00  0.00    -0.085 C  
HETATM    2  N   UNL     1     -10.315   3.506  72.733  1.00  0.00    -0.166 NA 
HETATM    3  C   UNL     1     -11.137   4.639  73.206  1.00  0.00    -0.321 C  
HETATM    4  C   UNL     1     -10.494   6.038  73.041  1.00  0.00    -0.224 C  
HETATM    5  N   UNL     1      -9.991   6.342  71.681  1.00  0.00    -0.179 NA 
HETATM    6  C   UNL     1      -9.096   5.218  71.297  1.00  0.00    -0.144 C  
HETATM    7  C   UNL     1      -9.739   3.813  71.409  1.00  0.00    -0.172 C  
ENDROOT
BRANCH   5   8
HETATM    8  C   UNL     1     -11.093   6.554  70.685  1.00  0.00    -0.309 C  
BRANCH   8   9
HETATM    9  C   UNL     1     -12.086   7.652  71.112  1.00  0.00    -0.322 A  
HETATM   10  C   UNL     1     -13.422   7.312  71.408  1.00  0.00    -0.400 A  
HETATM   11  C   UNL     1     -11.690   8.983  71.309  1.00  0.00    -0.382 A  
HETATM   12  C   UNL     1     -14.316   8.266  71.904  1.00  0.00    -0.564 A  
HETATM   13  C   UNL     1     -13.897   9.579  72.102  1.00  0.00    -0.376 A  
HETATM   14  C   UNL     1     -12.586   9.938  71.792  1.00  0.00    -0.506 A  
ENDBRANCH   8   9
BRANCH   8  15
HETATM   15  C   UNL     1     -10.532   6.762  69.268  1.00  0.00    -0.241 A  
HETATM   16  C   UNL     1      -9.187   8.106  67.742  1.00  0.00    -0.143 A  
HETATM   17  C   UNL     1     -10.720   6.474  66.853  1.00  0.00    -0.403 A  
HETATM   18  C   UNL     1      -9.551   7.747  69.041  1.00  0.00    -0.155 A  
HETATM   19  C   UNL     1     -11.096   6.122  68.151  1.00  0.00    -0.328 A  
HETATM   20  C   UNL     1      -9.776   7.476  66.649  1.00  0.00    -0.273 A  
ENDBRANCH   8  15
ENDBRANCH   5   8
TORSDOF 3
ENDMDL
MODEL       37
REMARK 921   NORMALIZED FREE ENERGY PREDICTED BY IDOCK:   -5.36 KCAL/MOL
REMARK 922        TOTAL FREE ENERGY PREDICTED BY IDOCK:   -6.27 KCAL/MOL
REMARK 923 INTER-LIGAND FREE ENERGY PREDICTED BY IDOCK:   -5.75 KCAL/MOL
REMARK 924 INTRA-LIGAND FREE ENERGY PREDICTED BY IDOCK:   -0.52 KCAL/MOL
REMARK 927      BINDING AFFINITY PREDICTED BY RF-SCORE:    0.00 PKD
ROOT
HETATM    1  C   UNL     1     -12.218  12.937  63.212  1.00  0.00    -0.397 C  
HETATM    2  N   UNL     1     -11.611  12.464  64.454  1.00  0.00    -0.335 NA 
HETATM    3  C   UNL     1     -10.217  12.935  64.590  1.00  0.00    -0.298 C  
HETATM    4  C   UNL     1     -10.057  14.408  65.041  1.00  0.00    -0.286 C  
HETATM    5  N   UNL     1     -10.812  14.777  66.262  1.00  0.00    -0.315 NA 
HETATM    6  C   UNL     1     -12.222  14.367  66.030  1.00  0.00    -0.336 C  
HETATM    7  C   UNL     1     -12.406  12.883  65.624  1.00  0.00    -0.423 C  
ENDROOT
BRANCH   5   8
HETATM    8  C   UNL     1     -10.242  14.165  67.507  1.00  0.00    -0.241 C  
BRANCH   8   9
HETATM    9  C   UNL     1      -8.724  14.390  67.647  1.00  0.00    -0.191 A  
HETATM   10  C   UNL     1      -7.880  13.301  67.945  1.00  0.00    -0.152 A  
HETATM   11  C   UNL     1      -8.126  15.634  67.400  1.00  0.00    -0.195 A  
HETATM   12  C   UNL     1      -6.489  13.453  67.968  1.00  0.00    -0.131 A  
HETATM   13  C   UNL     1      -5.918  14.695  67.708  1.00  0.00    -0.119 A  
HETATM   14  C   UNL     1      -6.739  15.788  67.435  1.00  0.00    -0.228 A  
ENDBRANCH   8   9
BRANCH   8  15
HETATM   15  C   UNL     1     -11.036  14.595  68.753  1.00  0.00    -0.268 A  
HETATM   16  C   UNL     1     -11.396  16.229  70.526  1.00  0.00    -0.318 A  
HETATM   17  C   UNL     1     -12.344  14.023  70.730  1.00  0.00    -0.443 A  
HETATM   18  C   UNL     1     -10.862  15.888  69.282  1.00  0.00    -0.276 A  
HETATM   19  C   UNL     1     -11.800  13.676  69.493  1.00  0.00    -0.394 A  
HETATM   20  C   UNL     1     -12.130  15.295  71.254  1.00  0.00    -0.407 A  
ENDBRANCH   8  15
ENDBRANCH   5   8
TORSDOF 3
ENDMDL
MODEL       38
REMARK 921   NORMALIZED FREE ENERGY PREDICTED BY IDOCK:   -5.34 KCAL/MOL
REMARK 922        TOTAL FREE ENERGY PREDICTED BY IDOCK:   -6.25 KCAL/MOL
REMARK 923 INTER-LIGAND FREE ENERGY PREDICTED BY IDOCK:   -6.39 KCAL/MOL
REMARK 924 INTRA-LIGAND FREE ENERGY PREDICTED BY IDOCK:    0.15 KCAL/MOL
REMARK 927      BINDING AFFINITY PREDICTED BY RF-SCORE:    0.00 PKD
ROOT
HETATM    1  C   UNL     1     -11.022   5.878  71.581  1.00  0.00    -0.268 C  
HETATM    2  N   UNL     1     -11.743   6.785  70.689  1.00  0.00    -0.370 NA 
HETATM    3  C   UNL     1     -12.421   7.860  71.442  1.00  0.00    -0.309 C  
HETATM    4  C   UNL     1     -11.504   9.014  71.918  1.00  0.00    -0.370 C  
HETATM    5  N   UNL     1     -10.661   9.623  70.864  1.00  0.00    -0.320 NA 
HETATM    6  C   UNL     1      -9.932   8.506  70.206  1.00  0.00    -0.183 C  
HETATM    7  C   UNL     1     -10.836   7.365  69.679  1.00  0.00    -0.210 C  
ENDROOT
BRANCH   5   8
HETATM    8  C   UNL     1     -11.450  10.440  69.884  1.00  0.00    -0.297 C  
BRANCH   8   9
HETATM    9  C   UNL     1     -12.086  11.691  70.519  1.00  0.00    -0.458 A  
HETATM   10  C   UNL     1     -11.849  12.960  69.954  1.00  0.00    -0.373 A  
HETATM   11  C   UNL     1     -12.977  11.611  71.599  1.00  0.00    -0.483 A  
HETATM   12  C   UNL     1     -12.499  14.099  70.440  1.00  0.00    -0.424 A  
HETATM   13  C   UNL     1     -13.388  13.994  71.506  1.00  0.00    -0.422 A  
HETATM   14  C   UNL     1     -13.617  12.750  72.092  1.00  0.00    -0.547 A  
ENDBRANCH   8   9
BRANCH   8  15
HETATM   15  C   UNL     1     -10.623  10.752  68.625  1.00  0.00    -0.226 A  
HETATM   16  C   UNL     1      -8.728  11.908  67.618  1.00  0.00    -0.162 A  
HETATM   17  C   UNL     1     -10.474  11.032  66.206  1.00  0.00    -0.310 A  
HETATM   18  C   UNL     1      -9.389  11.419  68.746  1.00  0.00    -0.115 A  
HETATM   19  C   UNL     1     -11.143  10.554  67.334  1.00  0.00    -0.322 A  
HETATM   20  C   UNL     1      -9.273  11.722  66.350  1.00  0.00    -0.223 A  
ENDBRANCH   8  15
ENDBRANCH   5   8
TORSDOF 3
ENDMDL
MODEL       39
REMARK 921   NORMALIZED FREE ENERGY PREDICTED BY IDOCK:   -5.33 KCAL/MOL
REMARK 922        TOTAL FREE ENERGY PREDICTED BY IDOCK:   -6.23 KCAL/MOL
REMARK 923 INTER-LIGAND FREE ENERGY PREDICTED BY IDOCK:   -5.68 KCAL/MOL
REMARK 924 INTRA-LIGAND FREE ENERGY PREDICTED BY IDOCK:   -0.55 KCAL/MOL
REMARK 927      BINDING AFFINITY PREDICTED BY RF-SCORE:    0.00 PKD
ROOT
HETATM    1  C   UNL     1      -7.682   5.424  74.562  1.00  0.00    -0.091 C  
HETATM    2  N   UNL     1      -8.964   5.421  73.859  1.00  0.00    -0.120 NA 
HETATM    3  C   UNL     1      -9.700   6.685  74.067  1.00  0.00    -0.262 C  
HETATM    4  C   UNL     1      -9.207   7.884  73.219  1.00  0.00    -0.282 C  
HETATM    5  N   UNL     1      -9.098   7.623  71.765  1.00  0.00    -0.131 NA 
HETATM    6  C   UNL     1      -8.269   6.397  71.614  1.00  0.00    -0.117 C  
HETATM    7  C   UNL     1      -8.775   5.173  72.417  1.00  0.00    -0.124 C  
ENDROOT
BRANCH   5   8
HETATM    8  C   UNL     1     -10.433   7.491  71.094  1.00  0.00    -0.205 C  
BRANCH   8   9
HETATM    9  C   UNL     1     -11.391   8.650  71.429  1.00  0.00    -0.350 A  
HETATM   10  C   UNL     1     -11.183   9.919  70.852  1.00  0.00    -0.433 A  
HETATM   11  C   UNL     1     -12.531   8.472  72.226  1.00  0.00    -0.448 A  
HETATM   12  C   UNL     1     -12.097  10.960  71.048  1.00  0.00    -0.425 A  
HETATM   13  C   UNL     1     -13.228  10.756  71.834  1.00  0.00    -0.524 A  
HETATM   14  C   UNL     1     -13.437   9.514  72.432  1.00  0.00    -0.475 A  
ENDBRANCH   8   9
BRANCH   8  15
HETATM   15  C   UNL     1     -10.276   7.252  69.583  1.00  0.00    -0.214 A  
HETATM   16  C   UNL     1      -9.556   8.089  67.409  1.00  0.00    -0.196 A  
HETATM   17  C   UNL     1     -11.015   6.174  67.523  1.00  0.00    -0.404 A  
HETATM   18  C   UNL     1      -9.532   8.158  68.803  1.00  0.00    -0.148 A  
HETATM   19  C   UNL     1     -11.003   6.250  68.916  1.00  0.00    -0.435 A  
HETATM   20  C   UNL     1     -10.303   7.103  66.769  1.00  0.00    -0.297 A  
ENDBRANCH   8  15
ENDBRANCH   5   8
TORSDOF 3
ENDMDL
MODEL       40
REMARK 921   NORMALIZED FREE ENERGY PREDICTED BY IDOCK:   -5.30 KCAL/MOL
REMARK 922        TOTAL FREE ENERGY PREDICTED BY IDOCK:   -6.20 KCAL/MOL
REMARK 923 INTER-LIGAND FREE ENERGY PREDICTED BY IDOCK:   -5.69 KCAL/MOL
REMARK 924 INTRA-LIGAND FREE ENERGY PREDICTED BY IDOCK:   -0.51 KCAL/MOL
REMARK 927      BINDING AFFINITY PREDICTED BY RF-SCORE:    0.00 PKD
ROOT
HETATM    1  C   UNL     1     -13.742  15.270  72.924  1.00  0.00    -0.436 C  
HETATM    2  N   UNL     1     -12.678  14.499  72.283  1.00  0.00    -0.329 NA 
HETATM    3  C   UNL     1     -13.060  14.078  70.919  1.00  0.00    -0.228 C  
HETATM    4  C   UNL     1     -12.955  15.177  69.833  1.00  0.00     0.098 C  
HETATM    5  N   UNL     1     -11.652  15.879  69.774  1.00  0.00    -0.340 NA 
HETATM    6  C   UNL     1     -11.366  16.363  71.151  1.00  0.00    -0.141 C  
HETATM    7  C   UNL     1     -11.419  15.268  72.245  1.00  0.00    -0.385 C  
ENDROOT
BRANCH   5   8
HETATM    8  C   UNL     1     -10.548  15.017  69.236  1.00  0.00    -0.247 C  
BRANCH   8   9
HETATM    9  C   UNL     1     -10.967  14.213  67.990  1.00  0.00    -0.269 A  
HETATM   10  C   UNL     1     -11.048  12.807  68.059  1.00  0.00    -0.284 A  
HETATM   11  C   UNL     1     -11.363  14.834  66.797  1.00  0.00    -0.347 A  
HETATM   12  C   UNL     1     -11.531  12.059  66.980  1.00  0.00    -0.402 A  
HETATM   13  C   UNL     1     -11.929  12.698  65.810  1.00  0.00    -0.503 A  
HETATM   14  C   UNL     1     -11.833  14.086  65.716  1.00  0.00    -0.393 A  
ENDBRANCH   8   9
BRANCH   8  15
HETATM   15  C   UNL     1      -9.258  15.828  69.028  1.00  0.00    -0.243 A  
HETATM   16  C   UNL     1      -6.858  16.047  69.398  1.00  0.00    -0.215 A  
HETATM   17  C   UNL     1      -8.134  17.968  68.696  1.00  0.00    -0.293 A  
HETATM   18  C   UNL     1      -8.013  15.264  69.368  1.00  0.00    -0.223 A  
HETATM   19  C   UNL     1      -9.292  17.190  68.678  1.00  0.00    -0.269 A  
HETATM   20  C   UNL     1      -6.919  17.400  69.070  1.00  0.00    -0.238 A  
ENDBRANCH   8  15
ENDBRANCH   5   8
TORSDOF 3
ENDMDL
MODEL       41
REMARK 921   NORMALIZED FREE ENERGY PREDICTED BY IDOCK:   -5.27 KCAL/MOL
REMARK 922        TOTAL FREE ENERGY PREDICTED BY IDOCK:   -6.16 KCAL/MOL
REMARK 923 INTER-LIGAND FREE ENERGY PREDICTED BY IDOCK:   -6.11 KCAL/MOL
REMARK 924 INTRA-LIGAND FREE ENERGY PREDICTED BY IDOCK:   -0.05 KCAL/MOL
REMARK 927      BINDING AFFINITY PREDICTED BY RF-SCORE:    0.00 PKD
ROOT
HETATM    1  C   UNL     1     -11.279  15.102  66.213  1.00  0.00    -0.273 C  
HETATM    2  N   UNL     1     -10.372  14.259  66.988  1.00  0.00    -0.265 NA 
HETATM    3  C   UNL     1     -10.835  14.104  68.383  1.00  0.00    -0.254 C  
HETATM    4  C   UNL     1     -11.991  13.094  68.588  1.00  0.00    -0.284 C  
HETATM    5  N   UNL     1     -11.765  11.752  68.003  1.00  0.00    -0.485 NA 
HETATM    6  C   UNL     1     -11.396  11.966  66.578  1.00  0.00    -0.341 C  
HETATM    7  C   UNL     1     -10.209  12.936  66.355  1.00  0.00    -0.267 C  
ENDROOT
BRANCH   5   8
HETATM    8  C   UNL     1     -10.728  10.960  68.743  1.00  0.00    -0.207 C  
BRANCH   8   9
HETATM    9  C   UNL     1     -11.263  10.341  70.048  1.00  0.00    -0.376 A  
HETATM   10  C   UNL     1     -12.567  10.649  70.486  1.00  0.00    -0.433 A  
HETATM   11  C   UNL     1     -10.531   9.398  70.785  1.00  0.00    -0.372 A  
HETATM   12  C   UNL     1     -13.120  10.017  71.605  1.00  0.00    -0.547 A  
HETATM   13  C   UNL     1     -12.378   9.077  72.314  1.00  0.00    -0.402 A  
HETATM   14  C   UNL     1     -11.078   8.777  71.909  1.00  0.00    -0.434 A  
ENDBRANCH   8   9
BRANCH   8  15
HETATM   15  C   UNL     1     -10.046   9.935  67.821  1.00  0.00    -0.221 A  
HETATM   16  C   UNL     1     -10.113   7.761  66.720  1.00  0.00    -0.341 A  
HETATM   17  C   UNL     1      -8.020   8.943  66.891  1.00  0.00    -0.101 A  
HETATM   18  C   UNL     1     -10.764   8.811  67.371  1.00  0.00    -0.216 A  
HETATM   19  C   UNL     1      -8.666   9.988  67.554  1.00  0.00    -0.125 A  
HETATM   20  C   UNL     1      -8.741   7.823  66.487  1.00  0.00    -0.162 A  
ENDBRANCH   8  15
ENDBRANCH   5   8
TORSDOF 3
ENDMDL
MODEL       42
REMARK 921   NORMALIZED FREE ENERGY PREDICTED BY IDOCK:   -5.25 KCAL/MOL
REMARK 922        TOTAL FREE ENERGY PREDICTED BY IDOCK:   -6.13 KCAL/MOL
REMARK 923 INTER-LIGAND FREE ENERGY PREDICTED BY IDOCK:   -5.55 KCAL/MOL
REMARK 924 INTRA-LIGAND FREE ENERGY PREDICTED BY IDOCK:   -0.58 KCAL/MOL
REMARK 927      BINDING AFFINITY PREDICTED BY RF-SCORE:    0.00 PKD
ROOT
HETATM    1  C   UNL     1      -7.467   6.000  74.533  1.00  0.00    -0.093 C  
HETATM    2  N   UNL     1      -7.818   7.073  73.604  1.00  0.00    -0.095 NA 
HETATM    3  C   UNL     1      -7.682   6.638  72.198  1.00  0.00    -0.096 C  
HETATM    4  C   UNL     1      -8.839   5.759  71.663  1.00  0.00    -0.136 C  
HETATM    5  N   UNL     1     -10.197   6.316  71.866  1.00  0.00    -0.199 NA 
HETATM    6  C   UNL     1     -10.310   6.645  73.312  1.00  0.00    -0.253 C  
HETATM    7  C   UNL     1      -9.187   7.563  73.855  1.00  0.00    -0.262 C  
ENDROOT
BRANCH   5   8
HETATM    8  C   UNL     1     -10.479   7.501  70.991  1.00  0.00    -0.215 C  
BRANCH   8   9
HETATM    9  C   UNL     1     -10.199   7.229  69.501  1.00  0.00    -0.200 A  
HETATM   10  C   UNL     1     -11.058   6.383  68.771  1.00  0.00    -0.404 A  
HETATM   11  C   UNL     1      -9.162   7.867  68.806  1.00  0.00    -0.143 A  
HETATM   12  C   UNL     1     -10.895   6.204  67.393  1.00  0.00    -0.431 A  
HETATM   13  C   UNL     1      -9.865   6.857  66.722  1.00  0.00    -0.243 A  
HETATM   14  C   UNL     1      -8.991   7.679  67.433  1.00  0.00    -0.130 A  
ENDBRANCH   8   9
BRANCH   8  15
HETATM   15  C   UNL     1     -11.887   8.063  71.251  1.00  0.00    -0.321 A  
HETATM   16  C   UNL     1     -13.279   9.915  72.011  1.00  0.00    -0.555 A  
HETATM   17  C   UNL     1     -14.235   7.712  71.812  1.00  0.00    -0.549 A  
HETATM   18  C   UNL     1     -12.052   9.428  71.558  1.00  0.00    -0.456 A  
HETATM   19  C   UNL     1     -13.006   7.220  71.372  1.00  0.00    -0.420 A  
HETATM   20  C   UNL     1     -14.368   9.057  72.145  1.00  0.00    -0.350 A  
ENDBRANCH   8  15
ENDBRANCH   5   8
TORSDOF 3
ENDMDL
MODEL       43
REMARK 921   NORMALIZED FREE ENERGY PREDICTED BY IDOCK:   -5.23 KCAL/MOL
REMARK 922        TOTAL FREE ENERGY PREDICTED BY IDOCK:   -6.12 KCAL/MOL
REMARK 923 INTER-LIGAND FREE ENERGY PREDICTED BY IDOCK:   -5.51 KCAL/MOL
REMARK 924 INTRA-LIGAND FREE ENERGY PREDICTED BY IDOCK:   -0.60 KCAL/MOL
REMARK 927      BINDING AFFINITY PREDICTED BY RF-SCORE:    0.00 PKD
ROOT
HETATM    1  C   UNL     1     -11.651   9.360  70.901  1.00  0.00    -0.312 C  
HETATM    2  N   UNL     1     -10.627  10.162  70.234  1.00  0.00    -0.290 NA 
HETATM    3  C   UNL     1     -10.036   9.441  69.087  1.00  0.00    -0.195 C  
HETATM    4  C   UNL     1     -10.900   9.423  67.801  1.00  0.00    -0.159 C  
HETATM    5  N   UNL     1     -11.373  10.750  67.344  1.00  0.00    -0.446 NA 
HETATM    6  C   UNL     1     -12.041  11.388  68.510  1.00  0.00    -0.098 C  
HETATM    7  C   UNL     1     -11.175  11.459  69.792  1.00  0.00    -0.192 C  
ENDROOT
BRANCH   5   8
HETATM    8  C   UNL     1     -10.272  11.603  66.786  1.00  0.00    -0.217 C  
BRANCH   8   9
HETATM    9  C   UNL     1      -9.360  10.841  65.806  1.00  0.00    -0.235 A  
HETATM   10  C   UNL     1      -9.861  10.441  64.550  1.00  0.00    -0.405 A  
HETATM   11  C   UNL     1      -8.005  10.600  66.077  1.00  0.00    -0.159 A  
HETATM   12  C   UNL     1      -9.027   9.847  63.597  1.00  0.00    -0.278 A  
HETATM   13  C   UNL     1      -7.683   9.629  63.884  1.00  0.00    -0.131 A  
HETATM   14  C   UNL     1      -7.176   9.996  65.130  1.00  0.00    -0.139 A  
ENDBRANCH   8   9
BRANCH   8  15
HETATM   15  C   UNL     1     -10.824  12.916  66.205  1.00  0.00    -0.300 A  
HETATM   16  C   UNL     1     -12.552  14.054  64.917  1.00  0.00    -0.369 A  
HETATM   17  C   UNL     1     -10.455  15.165  65.336  1.00  0.00    -0.416 A  
HETATM   18  C   UNL     1     -12.114  12.945  65.643  1.00  0.00    -0.511 A  
HETATM   19  C   UNL     1     -10.010  14.053  66.051  1.00  0.00    -0.331 A  
HETATM   20  C   UNL     1     -11.721  15.160  64.757  1.00  0.00    -0.331 A  
ENDBRANCH   8  15
ENDBRANCH   5   8
TORSDOF 3
ENDMDL
MODEL       44
REMARK 921   NORMALIZED FREE ENERGY PREDICTED BY IDOCK:   -5.21 KCAL/MOL
REMARK 922        TOTAL FREE ENERGY PREDICTED BY IDOCK:   -6.09 KCAL/MOL
REMARK 923 INTER-LIGAND FREE ENERGY PREDICTED BY IDOCK:   -5.47 KCAL/MOL
REMARK 924 INTRA-LIGAND FREE ENERGY PREDICTED BY IDOCK:   -0.62 KCAL/MOL
REMARK 927      BINDING AFFINITY PREDICTED BY RF-SCORE:    0.00 PKD
ROOT
HETATM    1  C   UNL     1      -6.263   7.140  73.340  1.00  0.00    -0.061 C  
HETATM    2  N   UNL     1      -7.310   6.591  72.480  1.00  0.00    -0.089 NA 
HETATM    3  C   UNL     1      -8.649   6.762  73.079  1.00  0.00    -0.119 C  
HETATM    4  C   UNL     1      -9.253   8.183  72.954  1.00  0.00    -0.273 C  
HETATM    5  N   UNL     1      -9.263   8.743  71.583  1.00  0.00    -0.253 NA 
HETATM    6  C   UNL     1      -7.873   8.632  71.068  1.00  0.00    -0.111 C  
HETATM    7  C   UNL     1      -7.268   7.208  71.139  1.00  0.00    -0.074 C  
ENDROOT
BRANCH   5   8
HETATM    8  C   UNL     1     -10.256   8.067  70.683  1.00  0.00    -0.196 C  
BRANCH   8   9
HETATM    9  C   UNL     1     -11.702   8.161  71.207  1.00  0.00    -0.310 A  
HETATM   10  C   UNL     1     -12.184   9.383  71.718  1.00  0.00    -0.465 A  
HETATM   11  C   UNL     1     -12.603   7.090  71.113  1.00  0.00    -0.387 A  
HETATM   12  C   UNL     1     -13.523   9.528  72.098  1.00  0.00    -0.535 A  
HETATM   13  C   UNL     1     -14.400   8.454  71.985  1.00  0.00    -0.555 A  
HETATM   14  C   UNL     1     -13.935   7.231  71.503  1.00  0.00    -0.486 A  
ENDBRANCH   8   9
BRANCH   8  15
HETATM   15  C   UNL     1     -10.106   8.545  69.229  1.00  0.00    -0.203 A  
HETATM   16  C   UNL     1     -10.306  10.350  67.603  1.00  0.00    -0.260 A  
HETATM   17  C   UNL     1     -10.113   8.074  66.835  1.00  0.00    -0.362 A  
HETATM   18  C   UNL     1     -10.218   9.916  68.926  1.00  0.00    -0.209 A  
HETATM   19  C   UNL     1     -10.038   7.636  68.158  1.00  0.00    -0.220 A  
HETATM   20  C   UNL     1     -10.261   9.430  66.558  1.00  0.00    -0.308 A  
ENDBRANCH   8  15
ENDBRANCH   5   8
TORSDOF 3
ENDMDL
MODEL       45
REMARK 921   NORMALIZED FREE ENERGY PREDICTED BY IDOCK:   -5.20 KCAL/MOL
REMARK 922        TOTAL FREE ENERGY PREDICTED BY IDOCK:   -6.08 KCAL/MOL
REMARK 923 INTER-LIGAND FREE ENERGY PREDICTED BY IDOCK:   -5.56 KCAL/MOL
REMARK 924 INTRA-LIGAND FREE ENERGY PREDICTED BY IDOCK:   -0.52 KCAL/MOL
REMARK 927      BINDING AFFINITY PREDICTED BY RF-SCORE:    0.00 PKD
ROOT
HETATM    1  C   UNL     1      -6.295  10.319  68.078  1.00  0.00    -0.056 C  
HETATM    2  N   UNL     1      -6.654  11.188  66.958  1.00  0.00    -0.097 NA 
HETATM    3  C   UNL     1      -7.989  10.855  66.420  1.00  0.00    -0.157 C  
HETATM    4  C   UNL     1      -9.187  11.382  67.248  1.00  0.00    -0.165 C  
HETATM    5  N   UNL     1      -9.142  12.828  67.567  1.00  0.00    -0.184 NA 
HETATM    6  C   UNL     1      -7.818  13.085  68.192  1.00  0.00    -0.145 C  
HETATM    7  C   UNL     1      -6.604  12.609  67.356  1.00  0.00    -0.144 C  
ENDROOT
BRANCH   5   8
HETATM    8  C   UNL     1      -9.382  13.698  66.368  1.00  0.00    -0.186 C  
BRANCH   8   9
HETATM    9  C   UNL     1     -10.426  13.112  65.399  1.00  0.00    -0.307 A  
HETATM   10  C   UNL     1     -11.790  13.115  65.754  1.00  0.00    -0.442 A  
HETATM   11  C   UNL     1     -10.084  12.647  64.121  1.00  0.00    -0.293 A  
HETATM   12  C   UNL     1     -12.772  12.692  64.852  1.00  0.00    -0.450 A  
HETATM   13  C   UNL     1     -12.409  12.247  63.584  1.00  0.00    -0.664 A  
HETATM   14  C   UNL     1     -11.062  12.214  63.225  1.00  0.00    -0.408 A  
ENDBRANCH   8   9
BRANCH   8  15
HETATM   15  C   UNL     1      -9.686  15.147  66.783  1.00  0.00    -0.255 A  
HETATM   16  C   UNL     1     -10.759  16.680  68.347  1.00  0.00    -0.353 A  
HETATM   17  C   UNL     1     -10.038  17.488  66.194  1.00  0.00    -0.317 A  
HETATM   18  C   UNL     1     -10.273  15.409  68.037  1.00  0.00    -0.235 A  
HETATM   19  C   UNL     1      -9.563  16.215  65.876  1.00  0.00    -0.359 A  
HETATM   20  C   UNL     1     -10.649  17.717  67.424  1.00  0.00    -0.341 A  
ENDBRANCH   8  15
ENDBRANCH   5   8
TORSDOF 3
ENDMDL
MODEL       46
REMARK 921   NORMALIZED FREE ENERGY PREDICTED BY IDOCK:   -5.15 KCAL/MOL
REMARK 922        TOTAL FREE ENERGY PREDICTED BY IDOCK:   -6.02 KCAL/MOL
REMARK 923 INTER-LIGAND FREE ENERGY PREDICTED BY IDOCK:   -5.55 KCAL/MOL
REMARK 924 INTRA-LIGAND FREE ENERGY PREDICTED BY IDOCK:   -0.47 KCAL/MOL
REMARK 927      BINDING AFFINITY PREDICTED BY RF-SCORE:    0.00 PKD
ROOT
HETATM    1  C   UNL     1      -9.432  20.950  67.483  1.00  0.00    -0.196 C  
HETATM    2  N   UNL     1      -9.902  19.749  68.171  1.00  0.00    -0.402 NA 
HETATM    3  C   UNL     1     -10.825  18.966  67.323  1.00  0.00    -0.372 C  
HETATM    4  C   UNL     1     -10.149  18.106  66.227  1.00  0.00    -0.371 C  
HETATM    5  N   UNL     1      -9.063  17.219  66.704  1.00  0.00    -0.255 NA 
HETATM    6  C   UNL     1      -8.117  18.077  67.467  1.00  0.00    -0.230 C  
HETATM    7  C   UNL     1      -8.768  18.908  68.600  1.00  0.00    -0.339 C  
ENDROOT
BRANCH   5   8
HETATM    8  C   UNL     1      -9.568  16.067  67.522  1.00  0.00    -0.222 C  
BRANCH   8   9
HETATM    9  C   UNL     1     -10.542  15.161  66.746  1.00  0.00    -0.298 A  
HETATM   10  C   UNL     1     -10.260  14.813  65.409  1.00  0.00    -0.415 A  
HETATM   11  C   UNL     1     -11.670  14.585  67.349  1.00  0.00    -0.425 A  
HETATM   12  C   UNL     1     -11.067  13.904  64.715  1.00  0.00    -0.386 A  
HETATM   13  C   UNL     1     -12.174  13.337  65.338  1.00  0.00    -0.501 A  
HETATM   14  C   UNL     1     -12.481  13.688  66.652  1.00  0.00    -0.291 A  
ENDBRANCH   8   9
BRANCH   8  15
HETATM   15  C   UNL     1      -8.407  15.294  68.171  1.00  0.00    -0.149 A  
HETATM   16  C   UNL     1      -7.018  14.892  70.134  1.00  0.00    -0.012 A  
HETATM   17  C   UNL     1      -6.286  14.103  67.978  1.00  0.00    -0.154 A  
HETATM   18  C   UNL     1      -8.183  15.400  69.558  1.00  0.00    -0.207 A  
HETATM   19  C   UNL     1      -7.445  14.622  67.397  1.00  0.00    -0.212 A  
HETATM   20  C   UNL     1      -6.066  14.251  69.344  1.00  0.00    -0.108 A  
ENDBRANCH   8  15
ENDBRANCH   5   8
TORSDOF 3
ENDMDL
MODEL       47
REMARK 921   NORMALIZED FREE ENERGY PREDICTED BY IDOCK:   -5.14 KCAL/MOL
REMARK 922        TOTAL FREE ENERGY PREDICTED BY IDOCK:   -6.01 KCAL/MOL
REMARK 923 INTER-LIGAND FREE ENERGY PREDICTED BY IDOCK:   -5.71 KCAL/MOL
REMARK 924 INTRA-LIGAND FREE ENERGY PREDICTED BY IDOCK:   -0.30 KCAL/MOL
REMARK 927      BINDING AFFINITY PREDICTED BY RF-SCORE:    0.00 PKD
ROOT
HETATM    1  C   UNL     1     -11.402  16.238  68.475  1.00  0.00    -0.330 C  
HETATM    2  N   UNL     1     -10.564  15.176  69.029  1.00  0.00    -0.236 NA 
HETATM    3  C   UNL     1     -11.224  14.503  70.167  1.00  0.00    -0.146 C  
HETATM    4  C   UNL     1     -12.319  13.476  69.784  1.00  0.00    -0.190 C  
HETATM    5  N   UNL     1     -11.904  12.455  68.794  1.00  0.00    -0.322 NA 
HETATM    6  C   UNL     1     -11.337  13.193  67.634  1.00  0.00    -0.298 C  
HETATM    7  C   UNL     1     -10.206  14.190  67.992  1.00  0.00    -0.232 C  
ENDROOT
BRANCH   5   8
HETATM    8  C   UNL     1     -10.937  11.456  69.358  1.00  0.00    -0.205 C  
BRANCH   8   9
HETATM    9  C   UNL     1     -11.589  10.492  70.368  1.00  0.00    -0.430 A  
HETATM   10  C   UNL     1     -10.788   9.574  71.077  1.00  0.00    -0.423 A  
HETATM   11  C   UNL     1     -12.954  10.550  70.683  1.00  0.00    -0.362 A  
HETATM   12  C   UNL     1     -11.334   8.764  72.079  1.00  0.00    -0.441 A  
HETATM   13  C   UNL     1     -12.689   8.848  72.382  1.00  0.00    -0.436 A  
HETATM   14  C   UNL     1     -13.501   9.733  71.674  1.00  0.00    -0.436 A  
ENDBRANCH   8   9
BRANCH   8  15
HETATM   15  C   UNL     1     -10.168  10.732  68.239  1.00  0.00    -0.187 A  
HETATM   16  C   UNL     1     -10.146   9.018  66.505  1.00  0.00    -0.354 A  
HETATM   17  C   UNL     1      -8.065   9.963  67.272  1.00  0.00    -0.113 A  
HETATM   18  C   UNL     1     -10.849   9.849  67.379  1.00  0.00    -0.293 A  
HETATM   19  C   UNL     1      -8.765  10.784  68.156  1.00  0.00    -0.130 A  
HETATM   20  C   UNL     1      -8.754   9.069  66.457  1.00  0.00    -0.144 A  
ENDBRANCH   8  15
ENDBRANCH   5   8
TORSDOF 3
ENDMDL
MODEL       48
REMARK 921   NORMALIZED FREE ENERGY PREDICTED BY IDOCK:   -5.12 KCAL/MOL
REMARK 922        TOTAL FREE ENERGY PREDICTED BY IDOCK:   -5.99 KCAL/MOL
REMARK 923 INTER-LIGAND FREE ENERGY PREDICTED BY IDOCK:   -5.54 KCAL/MOL
REMARK 924 INTRA-LIGAND FREE ENERGY PREDICTED BY IDOCK:   -0.45 KCAL/MOL
REMARK 927      BINDING AFFINITY PREDICTED BY RF-SCORE:    0.00 PKD
ROOT
HETATM    1  C   UNL     1     -12.910  12.080  63.557  1.00  0.00    -0.341 C  
HETATM    2  N   UNL     1     -12.671  12.356  64.973  1.00  0.00    -0.640 NA 
HETATM    3  C   UNL     1     -11.353  11.849  65.409  1.00  0.00    -0.277 C  
HETATM    4  C   UNL     1     -10.141  12.724  65.006  1.00  0.00    -0.218 C  
HETATM    5  N   UNL     1     -10.251  14.156  65.369  1.00  0.00    -0.348 NA 
HETATM    6  C   UNL     1     -11.548  14.635  64.823  1.00  0.00    -0.418 C  
HETATM    7  C   UNL     1     -12.779  13.800  65.255  1.00  0.00    -0.439 C  
ENDROOT
BRANCH   5   8
HETATM    8  C   UNL     1     -10.135  14.393  66.846  1.00  0.00    -0.259 C  
BRANCH   8   9
HETATM    9  C   UNL     1      -8.976  13.611  67.492  1.00  0.00    -0.209 A  
HETATM   10  C   UNL     1      -9.242  12.422  68.200  1.00  0.00    -0.205 A  
HETATM   11  C   UNL     1      -7.635  13.989  67.328  1.00  0.00    -0.094 A  
HETATM   12  C   UNL     1      -8.202  11.632  68.702  1.00  0.00    -0.110 A  
HETATM   13  C   UNL     1      -6.879  12.022  68.517  1.00  0.00    -0.078 A  
HETATM   14  C   UNL     1      -6.598  13.208  67.839  1.00  0.00    -0.137 A  
ENDBRANCH   8   9
BRANCH   8  15
HETATM   15  C   UNL     1     -10.105  15.897  67.168  1.00  0.00    -0.264 A  
HETATM   16  C   UNL     1      -9.123  18.091  66.761  1.00  0.00    -0.280 A  
HETATM   17  C   UNL     1     -10.459  17.733  68.734  1.00  0.00    -0.252 A  
HETATM   18  C   UNL     1      -9.345  16.770  66.367  1.00  0.00    -0.305 A  
HETATM   19  C   UNL     1     -10.671  16.409  68.349  1.00  0.00    -0.327 A  
HETATM   20  C   UNL     1      -9.673  18.570  67.947  1.00  0.00    -0.339 A  
ENDBRANCH   8  15
ENDBRANCH   5   8
TORSDOF 3
ENDMDL
MODEL       49
REMARK 921   NORMALIZED FREE ENERGY PREDICTED BY IDOCK:   -5.11 KCAL/MOL
REMARK 922        TOTAL FREE ENERGY PREDICTED BY IDOCK:   -5.98 KCAL/MOL
REMARK 923 INTER-LIGAND FREE ENERGY PREDICTED BY IDOCK:   -5.80 KCAL/MOL
REMARK 924 INTRA-LIGAND FREE ENERGY PREDICTED BY IDOCK:   -0.18 KCAL/MOL
REMARK 927      BINDING AFFINITY PREDICTED BY RF-SCORE:    0.00 PKD
ROOT
HETATM    1  C   UNL     1      -8.959   7.237  68.466  1.00  0.00    -0.130 C  
HETATM    2  N   UNL     1     -10.177   8.041  68.379  1.00  0.00    -0.203 NA 
HETATM    3  C   UNL     1     -10.151   9.169  69.333  1.00  0.00    -0.197 C  
HETATM    4  C   UNL     1      -9.288  10.380  68.902  1.00  0.00    -0.186 C  
HETATM    5  N   UNL     1      -9.572  10.902  67.545  1.00  0.00    -0.155 NA 
HETATM    6  C   UNL     1      -9.490   9.743  66.617  1.00  0.00    -0.171 C  
HETATM    7  C   UNL     1     -10.384   8.539  67.006  1.00  0.00    -0.309 C  
ENDROOT
BRANCH   5   8
HETATM    8  C   UNL     1     -10.894  11.607  67.456  1.00  0.00    -0.237 C  
BRANCH   8   9
HETATM    9  C   UNL     1     -11.110  12.625  68.591  1.00  0.00    -0.305 A  
HETATM   10  C   UNL     1     -10.447  13.868  68.553  1.00  0.00    -0.253 A  
HETATM   11  C   UNL     1     -12.021  12.401  69.634  1.00  0.00    -0.341 A  
HETATM   12  C   UNL     1     -10.707  14.855  69.510  1.00  0.00    -0.256 A  
HETATM   13  C   UNL     1     -11.624  14.614  70.529  1.00  0.00    -0.319 A  
HETATM   14  C   UNL     1     -12.272  13.381  70.596  1.00  0.00    -0.427 A  
ENDBRANCH   8   9
BRANCH   8  15
HETATM   15  C   UNL     1     -11.112  12.206  66.055  1.00  0.00    -0.354 A  
HETATM   16  C   UNL     1     -12.663  13.060  64.379  1.00  0.00    -0.275 A  
HETATM   17  C   UNL     1     -10.423  12.453  63.729  1.00  0.00    -0.475 A  
HETATM   18  C   UNL     1     -12.376  12.716  65.701  1.00  0.00    -0.390 A  
HETATM   19  C   UNL     1     -10.138  12.097  65.047  1.00  0.00    -0.289 A  
HETATM   20  C   UNL     1     -11.690  12.921  63.392  1.00  0.00    -0.526 A  
ENDBRANCH   8  15
ENDBRANCH   5   8
TORSDOF 3
ENDMDL
MODEL       50
REMARK 921   NORMALIZED FREE ENERGY PREDICTED BY IDOCK:   -5.10 KCAL/MOL
REMARK 922        TOTAL FREE ENERGY PREDICTED BY IDOCK:   -5.96 KCAL/MOL
REMARK 923 INTER-LIGAND FREE ENERGY PREDICTED BY IDOCK:   -6.21 KCAL/MOL
REMARK 924 INTRA-LIGAND FREE ENERGY PREDICTED BY IDOCK:    0.25 KCAL/MOL
REMARK 927      BINDING AFFINITY PREDICTED BY RF-SCORE:    0.00 PKD
ROOT
HETATM    1  C   UNL     1      -8.264   8.931  66.216  1.00  0.00    -0.111 C  
HETATM    2  N   UNL     1      -9.551   8.651  66.851  1.00  0.00    -0.177 NA 
HETATM    3  C   UNL     1      -9.375   8.055  68.192  1.00  0.00    -0.139 C  
HETATM    4  C   UNL     1      -9.006   9.054  69.317  1.00  0.00    -0.144 C  
HETATM    5  N   UNL     1      -9.895  10.233  69.427  1.00  0.00    -0.223 NA 
HETATM    6  C   UNL     1      -9.958  10.846  68.073  1.00  0.00    -0.171 C  
HETATM    7  C   UNL     1     -10.373   9.873  66.941  1.00  0.00    -0.235 C  
ENDROOT
BRANCH   5   8
HETATM    8  C   UNL     1     -11.256   9.890  69.957  1.00  0.00    -0.276 C  
BRANCH   8   9
HETATM    9  C   UNL     1     -11.224   8.777  71.022  1.00  0.00    -0.329 A  
HETATM   10  C   UNL     1     -12.016   7.623  70.853  1.00  0.00    -0.252 A  
HETATM   11  C   UNL     1     -10.359   8.822  72.125  1.00  0.00    -0.378 A  
HETATM   12  C   UNL     1     -11.924   6.549  71.745  1.00  0.00    -0.394 A  
HETATM   13  C   UNL     1     -11.051   6.612  72.826  1.00  0.00    -0.283 A  
HETATM   14  C   UNL     1     -10.277   7.755  73.021  1.00  0.00    -0.393 A  
ENDBRANCH   8   9
BRANCH   8  15
HETATM   15  C   UNL     1     -12.008  11.150  70.420  1.00  0.00    -0.469 A  
HETATM   16  C   UNL     1     -12.207  13.580  70.390  1.00  0.00    -0.426 A  
HETATM   17  C   UNL     1     -13.376  12.311  72.073  1.00  0.00    -0.491 A  
HETATM   18  C   UNL     1     -11.705  12.398  69.842  1.00  0.00    -0.339 A  
HETATM   19  C   UNL     1     -12.865  11.129  71.534  1.00  0.00    -0.542 A  
HETATM   20  C   UNL     1     -13.036  13.537  71.509  1.00  0.00    -0.440 A  
ENDBRANCH   8  15
ENDBRANCH   5   8
TORSDOF 3
ENDMDL
MODEL       51
REMARK 921   NORMALIZED FREE ENERGY PREDICTED BY IDOCK:   -5.10 KCAL/MOL
REMARK 922        TOTAL FREE ENERGY PREDICTED BY IDOCK:   -5.96 KCAL/MOL
REMARK 923 INTER-LIGAND FREE ENERGY PREDICTED BY IDOCK:   -5.69 KCAL/MOL
REMARK 924 INTRA-LIGAND FREE ENERGY PREDICTED BY IDOCK:   -0.27 KCAL/MOL
REMARK 927      BINDING AFFINITY PREDICTED BY RF-SCORE:    0.00 PKD
ROOT
HETATM    1  C   UNL     1      -9.210   5.607  66.527  1.00  0.00    -0.144 C  
HETATM    2  N   UNL     1     -10.201   5.612  67.602  1.00  0.00    -0.180 NA 
HETATM    3  C   UNL     1      -9.559   5.562  68.932  1.00  0.00    -0.136 C  
HETATM    4  C   UNL     1      -8.970   6.904  69.433  1.00  0.00    -0.138 C  
HETATM    5  N   UNL     1      -9.903   8.055  69.390  1.00  0.00    -0.178 NA 
HETATM    6  C   UNL     1     -10.443   8.113  68.006  1.00  0.00    -0.183 C  
HETATM    7  C   UNL     1     -11.080   6.793  67.504  1.00  0.00    -0.265 C  
ENDROOT
BRANCH   5   8
HETATM    8  C   UNL     1     -10.990   7.963  70.419  1.00  0.00    -0.249 C  
BRANCH   8   9
HETATM    9  C   UNL     1     -10.500   7.389  71.762  1.00  0.00    -0.221 A  
HETATM   10  C   UNL     1      -9.540   8.095  72.516  1.00  0.00    -0.347 A  
HETATM   11  C   UNL     1     -11.040   6.221  72.319  1.00  0.00    -0.311 A  
HETATM   12  C   UNL     1      -9.158   7.656  73.789  1.00  0.00    -0.332 A  
HETATM   13  C   UNL     1      -9.717   6.500  74.325  1.00  0.00    -0.309 A  
HETATM   14  C   UNL     1     -10.650   5.777  73.583  1.00  0.00    -0.302 A  
ENDBRANCH   8   9
BRANCH   8  15
HETATM   15  C   UNL     1     -11.732   9.302  70.567  1.00  0.00    -0.225 A  
HETATM   16  C   UNL     1     -11.811  11.696  70.110  1.00  0.00    -0.428 A  
HETATM   17  C   UNL     1     -13.236  10.762  71.815  1.00  0.00    -0.523 A  
HETATM   18  C   UNL     1     -11.302  10.426  69.834  1.00  0.00    -0.370 A  
HETATM   19  C   UNL     1     -12.720   9.493  71.549  1.00  0.00    -0.461 A  
HETATM   20  C   UNL     1     -12.772  11.866  71.105  1.00  0.00    -0.384 A  
ENDBRANCH   8  15
ENDBRANCH   5   8
TORSDOF 3
ENDMDL
MODEL       52
REMARK 921   NORMALIZED FREE ENERGY PREDICTED BY IDOCK:   -5.09 KCAL/MOL
REMARK 922        TOTAL FREE ENERGY PREDICTED BY IDOCK:   -5.95 KCAL/MOL
REMARK 923 INTER-LIGAND FREE ENERGY PREDICTED BY IDOCK:   -5.41 KCAL/MOL
REMARK 924 INTRA-LIGAND FREE ENERGY PREDICTED BY IDOCK:   -0.55 KCAL/MOL
REMARK 927      BINDING AFFINITY PREDICTED BY RF-SCORE:    0.00 PKD
ROOT
HETATM    1  C   UNL     1     -13.590  14.093  72.218  1.00  0.00    -0.500 C  
HETATM    2  N   UNL     1     -12.210  13.967  71.754  1.00  0.00    -0.182 NA 
HETATM    3  C   UNL     1     -12.120  13.125  70.543  1.00  0.00    -0.306 C  
HETATM    4  C   UNL     1     -12.530  13.820  69.221  1.00  0.00     0.036 C  
HETATM    5  N   UNL     1     -11.860  15.115  68.959  1.00  0.00    -0.315 NA 
HETATM    6  C   UNL     1     -12.065  15.953  70.169  1.00  0.00    -0.255 C  
HETATM    7  C   UNL     1     -11.616  15.293  71.497  1.00  0.00    -0.396 C  
ENDROOT
BRANCH   5   8
HETATM    8  C   UNL     1     -10.408  14.961  68.615  1.00  0.00    -0.237 C  
BRANCH   8   9
HETATM    9  C   UNL     1     -10.138  13.787  67.655  1.00  0.00    -0.242 A  
HETATM   10  C   UNL     1     -10.815  13.723  66.420  1.00  0.00    -0.287 A  
HETATM   11  C   UNL     1      -9.167  12.811  67.921  1.00  0.00    -0.205 A  
HETATM   12  C   UNL     1     -10.511  12.731  65.481  1.00  0.00    -0.306 A  
HETATM   13  C   UNL     1      -9.535  11.780  65.763  1.00  0.00    -0.232 A  
HETATM   14  C   UNL     1      -8.872  11.814  66.989  1.00  0.00    -0.182 A  
ENDBRANCH   8   9
BRANCH   8  15
HETATM   15  C   UNL     1      -9.807  16.292  68.130  1.00  0.00    -0.229 A  
HETATM   16  C   UNL     1      -8.178  18.077  68.453  1.00  0.00    -0.305 A  
HETATM   17  C   UNL     1     -10.047  18.425  66.971  1.00  0.00    -0.382 A  
HETATM   18  C   UNL     1      -8.622  16.780  68.715  1.00  0.00    -0.255 A  
HETATM   19  C   UNL     1     -10.500  17.133  67.241  1.00  0.00    -0.313 A  
HETATM   20  C   UNL     1      -8.894  18.902  67.588  1.00  0.00    -0.312 A  
ENDBRANCH   8  15
ENDBRANCH   5   8
TORSDOF 3
ENDMDL
MODEL       53
REMARK 921   NORMALIZED FREE ENERGY PREDICTED BY IDOCK:   -5.09 KCAL/MOL
REMARK 922        TOTAL FREE ENERGY PREDICTED BY IDOCK:   -5.95 KCAL/MOL
REMARK 923 INTER-LIGAND FREE ENERGY PREDICTED BY IDOCK:   -5.55 KCAL/MOL
REMARK 924 INTRA-LIGAND FREE ENERGY PREDICTED BY IDOCK:   -0.40 KCAL/MOL
REMARK 927      BINDING AFFINITY PREDICTED BY RF-SCORE:    0.00 PKD
ROOT
HETATM    1  C   UNL     1      -8.094   8.245  64.535  1.00  0.00    -0.146 C  
HETATM    2  N   UNL     1      -7.932   9.120  65.695  1.00  0.00    -0.105 NA 
HETATM    3  C   UNL     1      -8.444  10.480  65.424  1.00  0.00    -0.170 C  
HETATM    4  C   UNL     1      -9.983  10.632  65.490  1.00  0.00    -0.272 C  
HETATM    5  N   UNL     1     -10.613  10.118  66.729  1.00  0.00    -0.202 NA 
HETATM    6  C   UNL     1     -10.138   8.719  66.898  1.00  0.00    -0.278 C  
HETATM    7  C   UNL     1      -8.598   8.552  66.883  1.00  0.00    -0.117 C  
ENDROOT
BRANCH   5   8
HETATM    8  C   UNL     1     -10.316  10.966  67.930  1.00  0.00    -0.187 C  
BRANCH   8   9
HETATM    9  C   UNL     1     -10.690  12.446  67.728  1.00  0.00    -0.247 A  
HETATM   10  C   UNL     1      -9.774  13.456  68.087  1.00  0.00    -0.226 A  
HETATM   11  C   UNL     1     -11.887  12.838  67.110  1.00  0.00    -0.415 A  
HETATM   12  C   UNL     1     -10.039  14.802  67.814  1.00  0.00    -0.224 A  
HETATM   13  C   UNL     1     -11.228  15.165  67.189  1.00  0.00    -0.320 A  
HETATM   14  C   UNL     1     -12.157  14.182  66.848  1.00  0.00    -0.466 A  
ENDBRANCH   8   9
BRANCH   8  15
HETATM   15  C   UNL     1     -10.922  10.356  69.206  1.00  0.00    -0.287 A  
HETATM   16  C   UNL     1     -12.735  10.323  70.836  1.00  0.00    -0.462 A  
HETATM   17  C   UNL     1     -10.642   9.251  71.362  1.00  0.00    -0.417 A  
HETATM   18  C   UNL     1     -12.240  10.682  69.581  1.00  0.00    -0.277 A  
HETATM   19  C   UNL     1     -10.140   9.620  70.114  1.00  0.00    -0.311 A  
HETATM   20  C   UNL     1     -11.935   9.615  71.729  1.00  0.00    -0.421 A  
ENDBRANCH   8  15
ENDBRANCH   5   8
TORSDOF 3
ENDMDL
MODEL       54
REMARK 921   NORMALIZED FREE ENERGY PREDICTED BY IDOCK:   -5.06 KCAL/MOL
REMARK 922        TOTAL FREE ENERGY PREDICTED BY IDOCK:   -5.91 KCAL/MOL
REMARK 923 INTER-LIGAND FREE ENERGY PREDICTED BY IDOCK:   -5.33 KCAL/MOL
REMARK 924 INTRA-LIGAND FREE ENERGY PREDICTED BY IDOCK:   -0.59 KCAL/MOL
REMARK 927      BINDING AFFINITY PREDICTED BY RF-SCORE:    0.00 PKD
ROOT
HETATM    1  C   UNL     1      -9.581  19.176  68.805  1.00  0.00    -0.416 C  
HETATM    2  N   UNL     1      -8.955  18.229  67.884  1.00  0.00    -0.271 NA 
HETATM    3  C   UNL     1      -8.388  17.069  68.602  1.00  0.00    -0.264 C  
HETATM    4  C   UNL     1      -9.417  15.999  69.046  1.00  0.00    -0.243 C  
HETATM    5  N   UNL     1     -10.318  15.511  67.976  1.00  0.00    -0.243 NA 
HETATM    6  C   UNL     1     -10.931  16.715  67.354  1.00  0.00    -0.103 C  
HETATM    7  C   UNL     1      -9.916  17.775  66.860  1.00  0.00    -0.332 C  
ENDROOT
BRANCH   5   8
HETATM    8  C   UNL     1      -9.615  14.649  66.969  1.00  0.00    -0.240 C  
BRANCH   8   9
HETATM    9  C   UNL     1      -8.709  13.585  67.617  1.00  0.00    -0.194 A  
HETATM   10  C   UNL     1      -9.286  12.458  68.238  1.00  0.00    -0.189 A  
HETATM   11  C   UNL     1      -7.310  13.644  67.537  1.00  0.00    -0.178 A  
HETATM   12  C   UNL     1      -8.489  11.422  68.737  1.00  0.00    -0.089 A  
HETATM   13  C   UNL     1      -7.103  11.498  68.635  1.00  0.00    -0.098 A  
HETATM   14  C   UNL     1      -6.515  12.616  68.046  1.00  0.00    -0.093 A  
ENDBRANCH   8   9
BRANCH   8  15
HETATM   15  C   UNL     1     -10.606  14.062  65.950  1.00  0.00    -0.302 A  
HETATM   16  C   UNL     1     -12.768  13.022  65.514  1.00  0.00    -0.291 A  
HETATM   17  C   UNL     1     -11.044  12.935  63.831  1.00  0.00    -0.454 A  
HETATM   18  C   UNL     1     -11.921  13.753  66.349  1.00  0.00    -0.473 A  
HETATM   19  C   UNL     1     -10.192  13.654  64.670  1.00  0.00    -0.338 A  
HETATM   20  C   UNL     1     -12.328  12.606  64.259  1.00  0.00    -0.517 A  
ENDBRANCH   8  15
ENDBRANCH   5   8
TORSDOF 3
ENDMDL
MODEL       55
REMARK 921   NORMALIZED FREE ENERGY PREDICTED BY IDOCK:   -5.05 KCAL/MOL
REMARK 922        TOTAL FREE ENERGY PREDICTED BY IDOCK:   -5.90 KCAL/MOL
REMARK 923 INTER-LIGAND FREE ENERGY PREDICTED BY IDOCK:   -5.27 KCAL/MOL
REMARK 924 INTRA-LIGAND FREE ENERGY PREDICTED BY IDOCK:   -0.63 KCAL/MOL
REMARK 927      BINDING AFFINITY PREDICTED BY RF-SCORE:    0.00 PKD
ROOT
HETATM    1  C   UNL     1      -6.125   7.339  73.413  1.00  0.00    -0.056 C  
HETATM    2  N   UNL     1      -6.966   8.429  72.922  1.00  0.00    -0.190 NA 
HETATM    3  C   UNL     1      -6.941   8.510  71.447  1.00  0.00    -0.079 C  
HETATM    4  C   UNL     1      -7.819   7.467  70.712  1.00  0.00    -0.098 C  
HETATM    5  N   UNL     1      -9.226   7.398  71.167  1.00  0.00    -0.154 NA 
HETATM    6  C   UNL     1      -9.188   7.221  72.643  1.00  0.00    -0.140 C  
HETATM    7  C   UNL     1      -8.354   8.284  73.401  1.00  0.00    -0.185 C  
ENDROOT
BRANCH   5   8
HETATM    8  C   UNL     1     -10.031   8.598  70.762  1.00  0.00    -0.197 C  
BRANCH   8   9
HETATM    9  C   UNL     1      -9.954   8.890  69.251  1.00  0.00    -0.192 A  
HETATM   10  C   UNL     1     -10.383   7.916  68.327  1.00  0.00    -0.239 A  
HETATM   11  C   UNL     1      -9.553  10.137  68.749  1.00  0.00    -0.170 A  
HETATM   12  C   UNL     1     -10.430   8.193  66.956  1.00  0.00    -0.396 A  
HETATM   13  C   UNL     1     -10.038   9.442  66.483  1.00  0.00    -0.332 A  
HETATM   14  C   UNL     1      -9.588  10.409  67.381  1.00  0.00    -0.178 A  
ENDBRANCH   8   9
BRANCH   8  15
HETATM   15  C   UNL     1     -11.473   8.507  71.289  1.00  0.00    -0.329 A  
HETATM   16  C   UNL     1     -13.546   7.236  71.462  1.00  0.00    -0.442 A  
HETATM   17  C   UNL     1     -13.547   9.590  71.977  1.00  0.00    -0.492 A  
HETATM   18  C   UNL     1     -12.177   7.290  71.197  1.00  0.00    -0.376 A  
HETATM   19  C   UNL     1     -12.181   9.650  71.700  1.00  0.00    -0.484 A  
HETATM   20  C   UNL     1     -14.233   8.386  71.845  1.00  0.00    -0.541 A  
ENDBRANCH   8  15
ENDBRANCH   5   8
TORSDOF 3
ENDMDL
MODEL       56
REMARK 921   NORMALIZED FREE ENERGY PREDICTED BY IDOCK:   -5.05 KCAL/MOL
REMARK 922        TOTAL FREE ENERGY PREDICTED BY IDOCK:   -5.90 KCAL/MOL
REMARK 923 INTER-LIGAND FREE ENERGY PREDICTED BY IDOCK:   -5.37 KCAL/MOL
REMARK 924 INTRA-LIGAND FREE ENERGY PREDICTED BY IDOCK:   -0.53 KCAL/MOL
REMARK 927      BINDING AFFINITY PREDICTED BY RF-SCORE:    0.00 PKD
ROOT
HETATM    1  C   UNL     1     -12.334  13.492  63.207  1.00  0.00    -0.078 C  
HETATM    2  N   UNL     1     -11.195  13.006  63.984  1.00  0.00    -0.395 NA 
HETATM    3  C   UNL     1     -10.445  14.120  64.600  1.00  0.00    -0.339 C  
HETATM    4  C   UNL     1     -11.088  14.727  65.872  1.00  0.00    -0.340 C  
HETATM    5  N   UNL     1     -11.446  13.747  66.923  1.00  0.00    -0.331 NA 
HETATM    6  C   UNL     1     -12.278  12.704  66.266  1.00  0.00    -0.155 C  
HETATM    7  C   UNL     1     -11.631  12.050  65.020  1.00  0.00    -0.263 C  
ENDROOT
BRANCH   5   8
HETATM    8  C   UNL     1     -10.247  13.165  67.612  1.00  0.00    -0.224 C  
BRANCH   8   9
HETATM    9  C   UNL     1      -9.199  14.227  67.994  1.00  0.00    -0.192 A  
HETATM   10  C   UNL     1      -7.883  14.121  67.500  1.00  0.00    -0.207 A  
HETATM   11  C   UNL     1      -9.525  15.362  68.751  1.00  0.00    -0.211 A  
HETATM   12  C   UNL     1      -6.940  15.127  67.739  1.00  0.00    -0.190 A  
HETATM   13  C   UNL     1      -7.290  16.249  68.483  1.00  0.00    -0.169 A  
HETATM   14  C   UNL     1      -8.581  16.359  68.999  1.00  0.00    -0.230 A  
ENDBRANCH   8   9
BRANCH   8  15
HETATM   15  C   UNL     1     -10.663  12.271  68.793  1.00  0.00    -0.247 A  
HETATM   16  C   UNL     1     -10.553  10.099  69.896  1.00  0.00    -0.331 A  
HETATM   17  C   UNL     1     -12.265  11.671  70.532  1.00  0.00    -0.451 A  
HETATM   18  C   UNL     1     -10.047  11.017  68.974  1.00  0.00    -0.197 A  
HETATM   19  C   UNL     1     -11.770  12.585  69.601  1.00  0.00    -0.372 A  
HETATM   20  C   UNL     1     -11.665  10.422  70.669  1.00  0.00    -0.444 A  
ENDBRANCH   8  15
ENDBRANCH   5   8
TORSDOF 3
ENDMDL
MODEL       57
REMARK 921   NORMALIZED FREE ENERGY PREDICTED BY IDOCK:   -5.04 KCAL/MOL
REMARK 922        TOTAL FREE ENERGY PREDICTED BY IDOCK:   -5.89 KCAL/MOL
REMARK 923 INTER-LIGAND FREE ENERGY PREDICTED BY IDOCK:   -5.50 KCAL/MOL
REMARK 924 INTRA-LIGAND FREE ENERGY PREDICTED BY IDOCK:   -0.39 KCAL/MOL
REMARK 927      BINDING AFFINITY PREDICTED BY RF-SCORE:    0.00 PKD
ROOT
HETATM    1  C   UNL     1     -10.905  15.072  66.357  1.00  0.00    -0.326 C  
HETATM    2  N   UNL     1     -11.528  13.752  66.447  1.00  0.00    -0.325 NA 
HETATM    3  C   UNL     1     -10.642  12.697  65.913  1.00  0.00    -0.273 C  
HETATM    4  C   UNL     1      -9.499  12.252  66.859  1.00  0.00    -0.217 C  
HETATM    5  N   UNL     1      -9.925  11.878  68.227  1.00  0.00    -0.198 NA 
HETATM    6  C   UNL     1     -10.731  13.014  68.748  1.00  0.00    -0.221 C  
HETATM    7  C   UNL     1     -11.909  13.442  67.839  1.00  0.00    -0.357 C  
ENDROOT
BRANCH   5   8
HETATM    8  C   UNL     1     -10.681  10.582  68.268  1.00  0.00    -0.229 C  
BRANCH   8   9
HETATM    9  C   UNL     1      -9.900   9.411  67.641  1.00  0.00    -0.217 A  
HETATM   10  C   UNL     1      -8.494   9.378  67.732  1.00  0.00    -0.116 A  
HETATM   11  C   UNL     1     -10.544   8.313  67.052  1.00  0.00    -0.328 A  
HETATM   12  C   UNL     1      -7.766   8.276  67.271  1.00  0.00    -0.101 A  
HETATM   13  C   UNL     1      -8.428   7.193  66.700  1.00  0.00    -0.121 A  
HETATM   14  C   UNL     1      -9.817   7.219  66.580  1.00  0.00    -0.257 A  
ENDBRANCH   8   9
BRANCH   8  15
HETATM   15  C   UNL     1     -11.191  10.279  69.688  1.00  0.00    -0.322 A  
HETATM   16  C   UNL     1     -10.871   9.121  71.809  1.00  0.00    -0.416 A  
HETATM   17  C   UNL     1     -13.035  10.032  71.266  1.00  0.00    -0.495 A  
HETATM   18  C   UNL     1     -10.361   9.600  70.600  1.00  0.00    -0.365 A  
HETATM   19  C   UNL     1     -12.531  10.500  70.051  1.00  0.00    -0.243 A  
HETATM   20  C   UNL     1     -12.208   9.330  72.138  1.00  0.00    -0.377 A  
ENDBRANCH   8  15
ENDBRANCH   5   8
TORSDOF 3
ENDMDL
MODEL       58
REMARK 921   NORMALIZED FREE ENERGY PREDICTED BY IDOCK:   -5.03 KCAL/MOL
REMARK 922        TOTAL FREE ENERGY PREDICTED BY IDOCK:   -5.87 KCAL/MOL
REMARK 923 INTER-LIGAND FREE ENERGY PREDICTED BY IDOCK:   -5.30 KCAL/MOL
REMARK 924 INTRA-LIGAND FREE ENERGY PREDICTED BY IDOCK:   -0.57 KCAL/MOL
REMARK 927      BINDING AFFINITY PREDICTED BY RF-SCORE:    0.00 PKD
ROOT
HETATM    1  C   UNL     1     -11.660  15.453  67.949  1.00  0.00    -0.257 C  
HETATM    2  N   UNL     1     -10.203  15.413  67.829  1.00  0.00    -0.238 NA 
HETATM    3  C   UNL     1      -9.748  16.002  66.553  1.00  0.00    -0.264 C  
HETATM    4  C   UNL     1      -9.736  17.550  66.506  1.00  0.00    -0.295 C  
HETATM    5  N   UNL     1      -9.020  18.207  67.623  1.00  0.00    -0.257 NA 
HETATM    6  C   UNL     1      -9.585  17.647  68.879  1.00  0.00    -0.217 C  
HETATM    7  C   UNL     1      -9.560  16.100  68.966  1.00  0.00    -0.251 C  
ENDROOT
BRANCH   5   8
HETATM    8  C   UNL     1      -7.531  18.033  67.544  1.00  0.00    -0.211 C  
BRANCH   8   9
HETATM    9  C   UNL     1      -6.906  18.754  66.334  1.00  0.00    -0.239 A  
HETATM   10  C   UNL     1      -5.976  18.076  65.519  1.00  0.00    -0.195 A  
HETATM   11  C   UNL     1      -7.293  20.046  65.950  1.00  0.00    -0.327 A  
HETATM   12  C   UNL     1      -5.476  18.664  64.353  1.00  0.00    -0.191 A  
HETATM   13  C   UNL     1      -5.884  19.943  63.986  1.00  0.00    -0.316 A  
HETATM   14  C   UNL     1      -6.784  20.638  64.793  1.00  0.00    -0.201 A  
ENDBRANCH   8   9
BRANCH   8  15
HETATM   15  C   UNL     1      -6.857  18.392  68.879  1.00  0.00    -0.278 A  
HETATM   16  C   UNL     1      -6.030  20.115  70.393  1.00  0.00    -0.389 A  
HETATM   17  C   UNL     1      -5.336  17.828  70.700  1.00  0.00    -0.268 A  
HETATM   18  C   UNL     1      -6.819  19.733  69.307  1.00  0.00    -0.370 A  
HETATM   19  C   UNL     1      -6.114  17.446  69.607  1.00  0.00    -0.249 A  
HETATM   20  C   UNL     1      -5.283  19.164  71.085  1.00  0.00    -0.288 A  
ENDBRANCH   8  15
ENDBRANCH   5   8
TORSDOF 3
ENDMDL
MODEL       59
REMARK 921   NORMALIZED FREE ENERGY PREDICTED BY IDOCK:   -4.99 KCAL/MOL
REMARK 922        TOTAL FREE ENERGY PREDICTED BY IDOCK:   -5.83 KCAL/MOL
REMARK 923 INTER-LIGAND FREE ENERGY PREDICTED BY IDOCK:   -5.29 KCAL/MOL
REMARK 924 INTRA-LIGAND FREE ENERGY PREDICTED BY IDOCK:   -0.54 KCAL/MOL
REMARK 927      BINDING AFFINITY PREDICTED BY RF-SCORE:    0.00 PKD
ROOT
HETATM    1  C   UNL     1     -11.368   9.616  71.418  1.00  0.00    -0.374 C  
HETATM    2  N   UNL     1     -11.688   9.549  69.993  1.00  0.00    -0.066 NA 
HETATM    3  C   UNL     1     -12.139  10.858  69.478  1.00  0.00    -0.309 C  
HETATM    4  C   UNL     1     -11.013  11.886  69.204  1.00  0.00    -0.198 C  
HETATM    5  N   UNL     1      -9.903  11.392  68.358  1.00  0.00    -0.200 NA 
HETATM    6  C   UNL     1      -9.427  10.127  68.977  1.00  0.00    -0.190 C  
HETATM    7  C   UNL     1     -10.531   9.066  69.214  1.00  0.00    -0.228 C  
ENDROOT
BRANCH   5   8
HETATM    8  C   UNL     1     -10.301  11.205  66.923  1.00  0.00    -0.231 C  
BRANCH   8   9
HETATM    9  C   UNL     1     -10.813  12.502  66.268  1.00  0.00    -0.299 A  
HETATM   10  C   UNL     1      -9.929  13.582  66.069  1.00  0.00    -0.308 A  
HETATM   11  C   UNL     1     -12.120  12.626  65.773  1.00  0.00    -0.484 A  
HETATM   12  C   UNL     1     -10.335  14.729  65.378  1.00  0.00    -0.410 A  
HETATM   13  C   UNL     1     -11.634  14.823  64.886  1.00  0.00    -0.401 A  
HETATM   14  C   UNL     1     -12.528  13.775  65.095  1.00  0.00    -0.483 A  
ENDBRANCH   8   9
BRANCH   8  15
HETATM   15  C   UNL     1      -9.182  10.521  66.119  1.00  0.00    -0.197 A  
HETATM   16  C   UNL     1      -6.836  10.458  65.460  1.00  0.00    -0.125 A  
HETATM   17  C   UNL     1      -8.460   9.200  64.199  1.00  0.00    -0.198 A  
HETATM   18  C   UNL     1      -7.841  10.899  66.322  1.00  0.00    -0.158 A  
HETATM   19  C   UNL     1      -9.469   9.651  65.052  1.00  0.00    -0.312 A  
HETATM   20  C   UNL     1      -7.146   9.615  64.395  1.00  0.00    -0.118 A  
ENDBRANCH   8  15
ENDBRANCH   5   8
TORSDOF 3
ENDMDL
MODEL       60
REMARK 921   NORMALIZED FREE ENERGY PREDICTED BY IDOCK:   -4.99 KCAL/MOL
REMARK 922        TOTAL FREE ENERGY PREDICTED BY IDOCK:   -5.83 KCAL/MOL
REMARK 923 INTER-LIGAND FREE ENERGY PREDICTED BY IDOCK:   -5.25 KCAL/MOL
REMARK 924 INTRA-LIGAND FREE ENERGY PREDICTED BY IDOCK:   -0.58 KCAL/MOL
REMARK 927      BINDING AFFINITY PREDICTED BY RF-SCORE:    0.00 PKD
ROOT
HETATM    1  C   UNL     1      -7.941   3.415  72.922  1.00  0.00    -0.072 C  
HETATM    2  N   UNL     1      -8.035   4.830  72.569  1.00  0.00    -0.092 NA 
HETATM    3  C   UNL     1      -8.158   5.018  71.109  1.00  0.00    -0.109 C  
HETATM    4  C   UNL     1      -9.568   4.751  70.524  1.00  0.00    -0.187 C  
HETATM    5  N   UNL     1     -10.674   5.470  71.198  1.00  0.00    -0.236 NA 
HETATM    6  C   UNL     1     -10.556   5.167  72.649  1.00  0.00    -0.228 C  
HETATM    7  C   UNL     1      -9.167   5.474  73.263  1.00  0.00    -0.132 C  
ENDROOT
BRANCH   5   8
HETATM    8  C   UNL     1     -10.664   6.945  70.924  1.00  0.00    -0.230 C  
BRANCH   8   9
HETATM    9  C   UNL     1     -10.476   7.277  69.431  1.00  0.00    -0.223 A  
HETATM   10  C   UNL     1      -9.436   8.141  69.032  1.00  0.00    -0.155 A  
HETATM   11  C   UNL     1     -11.251   6.678  68.428  1.00  0.00    -0.215 A  
HETATM   12  C   UNL     1      -9.172   8.374  67.678  1.00  0.00    -0.147 A  
HETATM   13  C   UNL     1      -9.947   7.759  66.700  1.00  0.00    -0.299 A  
HETATM   14  C   UNL     1     -10.995   6.920  67.077  1.00  0.00    -0.404 A  
ENDBRANCH   8   9
BRANCH   8  15
HETATM   15  C   UNL     1     -11.887   7.636  71.550  1.00  0.00    -0.323 A  
HETATM   16  C   UNL     1     -14.310   7.748  71.799  1.00  0.00    -0.594 A  
HETATM   17  C   UNL     1     -12.958   9.634  72.450  1.00  0.00    -0.358 A  
HETATM   18  C   UNL     1     -13.160   7.044  71.438  1.00  0.00    -0.375 A  
HETATM   19  C   UNL     1     -11.808   8.937  72.078  1.00  0.00    -0.438 A  
HETATM   20  C   UNL     1     -14.210   9.045  72.298  1.00  0.00    -0.432 A  
ENDBRANCH   8  15
ENDBRANCH   5   8
TORSDOF 3
ENDMDL
MODEL       61
REMARK 921   NORMALIZED FREE ENERGY PREDICTED BY IDOCK:   -4.98 KCAL/MOL
REMARK 922        TOTAL FREE ENERGY PREDICTED BY IDOCK:   -5.82 KCAL/MOL
REMARK 923 INTER-LIGAND FREE ENERGY PREDICTED BY IDOCK:   -5.93 KCAL/MOL
REMARK 924 INTRA-LIGAND FREE ENERGY PREDICTED BY IDOCK:    0.11 KCAL/MOL
REMARK 927      BINDING AFFINITY PREDICTED BY RF-SCORE:    0.00 PKD
ROOT
HETATM    1  C   UNL     1     -11.445  15.671  64.140  1.00  0.00    -0.073 C  
HETATM    2  N   UNL     1     -11.660  14.252  64.418  1.00  0.00    -0.370 NA 
HETATM    3  C   UNL     1     -10.382  13.543  64.634  1.00  0.00    -0.385 C  
HETATM    4  C   UNL     1      -9.740  13.746  66.028  1.00  0.00    -0.237 C  
HETATM    5  N   UNL     1     -10.637  13.484  67.178  1.00  0.00    -0.263 NA 
HETATM    6  C   UNL     1     -11.862  14.296  66.954  1.00  0.00    -0.433 C  
HETATM    7  C   UNL     1     -12.547  14.070  65.583  1.00  0.00    -0.512 C  
ENDROOT
BRANCH   5   8
HETATM    8  C   UNL     1     -10.947  12.027  67.355  1.00  0.00    -0.261 C  
BRANCH   8   9
HETATM    9  C   UNL     1      -9.837  11.106  66.815  1.00  0.00    -0.230 A  
HETATM   10  C   UNL     1      -8.543  11.169  67.371  1.00  0.00    -0.137 A  
HETATM   11  C   UNL     1     -10.084  10.129  65.839  1.00  0.00    -0.325 A  
HETATM   12  C   UNL     1      -7.545  10.270  66.978  1.00  0.00    -0.099 A  
HETATM   13  C   UNL     1      -7.817   9.302  66.017  1.00  0.00    -0.102 A  
HETATM   14  C   UNL     1      -9.085   9.240  65.439  1.00  0.00    -0.277 A  
ENDBRANCH   8   9
BRANCH   8  15
HETATM   15  C   UNL     1     -11.340  11.714  68.809  1.00  0.00    -0.324 A  
HETATM   16  C   UNL     1     -11.888  10.048  70.502  1.00  0.00    -0.387 A  
HETATM   17  C   UNL     1     -12.432  12.363  70.892  1.00  0.00    -0.367 A  
HETATM   18  C   UNL     1     -11.330  10.383  69.267  1.00  0.00    -0.296 A  
HETATM   19  C   UNL     1     -11.887  12.698  69.652  1.00  0.00    -0.379 A  
HETATM   20  C   UNL     1     -12.445  11.035  71.311  1.00  0.00    -0.475 A  
ENDBRANCH   8  15
ENDBRANCH   5   8
TORSDOF 3
ENDMDL
MODEL       62
REMARK 921   NORMALIZED FREE ENERGY PREDICTED BY IDOCK:   -4.98 KCAL/MOL
REMARK 922        TOTAL FREE ENERGY PREDICTED BY IDOCK:   -5.82 KCAL/MOL
REMARK 923 INTER-LIGAND FREE ENERGY PREDICTED BY IDOCK:   -5.19 KCAL/MOL
REMARK 924 INTRA-LIGAND FREE ENERGY PREDICTED BY IDOCK:   -0.63 KCAL/MOL
REMARK 927      BINDING AFFINITY PREDICTED BY RF-SCORE:    0.00 PKD
ROOT
HETATM    1  C   UNL     1      -9.661  19.940  66.013  1.00  0.00    -0.375 C  
HETATM    2  N   UNL     1      -9.457  19.358  67.338  1.00  0.00    -0.308 NA 
HETATM    3  C   UNL     1     -10.588  18.491  67.729  1.00  0.00    -0.385 C  
HETATM    4  C   UNL     1     -10.596  17.083  67.083  1.00  0.00    -0.245 C  
HETATM    5  N   UNL     1      -9.334  16.321  67.221  1.00  0.00    -0.222 NA 
HETATM    6  C   UNL     1      -8.246  17.205  66.724  1.00  0.00    -0.240 C  
HETATM    7  C   UNL     1      -8.191  18.601  67.394  1.00  0.00    -0.255 C  
ENDROOT
BRANCH   5   8
HETATM    8  C   UNL     1      -9.086  15.851  68.624  1.00  0.00    -0.206 C  
BRANCH   8   9
HETATM    9  C   UNL     1     -10.329  15.215  69.274  1.00  0.00    -0.258 A  
HETATM   10  C   UNL     1     -10.844  14.006  68.764  1.00  0.00    -0.279 A  
HETATM   11  C   UNL     1     -10.929  15.748  70.424  1.00  0.00    -0.369 A  
HETATM   12  C   UNL     1     -11.902  13.347  69.399  1.00  0.00    -0.390 A  
HETATM   13  C   UNL     1     -12.473  13.890  70.547  1.00  0.00    -0.422 A  
HETATM   14  C   UNL     1     -11.992  15.098  71.051  1.00  0.00    -0.386 A  
ENDBRANCH   8   9
BRANCH   8  15
HETATM   15  C   UNL     1      -7.837  14.956  68.699  1.00  0.00    -0.134 A  
HETATM   16  C   UNL     1      -6.629  13.001  67.886  1.00  0.00    -0.131 A  
HETATM   17  C   UNL     1      -5.979  14.018  69.972  1.00  0.00    -0.142 A  
HETATM   18  C   UNL     1      -7.626  13.964  67.722  1.00  0.00    -0.175 A  
HETATM   19  C   UNL     1      -6.984  14.973  69.817  1.00  0.00    -0.182 A  
HETATM   20  C   UNL     1      -5.811  13.023  69.013  1.00  0.00    -0.079 A  
ENDBRANCH   8  15
ENDBRANCH   5   8
TORSDOF 3
ENDMDL
MODEL       63
REMARK 921   NORMALIZED FREE ENERGY PREDICTED BY IDOCK:   -4.93 KCAL/MOL
REMARK 922        TOTAL FREE ENERGY PREDICTED BY IDOCK:   -5.76 KCAL/MOL
REMARK 923 INTER-LIGAND FREE ENERGY PREDICTED BY IDOCK:   -5.19 KCAL/MOL
REMARK 924 INTRA-LIGAND FREE ENERGY PREDICTED BY IDOCK:   -0.57 KCAL/MOL
REMARK 927      BINDING AFFINITY PREDICTED BY RF-SCORE:    0.00 PKD
ROOT
HETATM    1  C   UNL     1      -9.521  20.121  66.265  1.00  0.00    -0.339 C  
HETATM    2  N   UNL     1      -9.668  18.675  66.110  1.00  0.00    -0.484 NA 
HETATM    3  C   UNL     1      -8.402  17.968  66.393  1.00  0.00    -0.246 C  
HETATM    4  C   UNL     1      -8.059  17.799  67.894  1.00  0.00    -0.235 C  
HETATM    5  N   UNL     1      -9.136  17.210  68.722  1.00  0.00    -0.266 NA 
HETATM    6  C   UNL     1     -10.357  18.019  68.471  1.00  0.00    -0.349 C  
HETATM    7  C   UNL     1     -10.745  18.158  66.978  1.00  0.00    -0.253 C  
ENDROOT
BRANCH   5   8
HETATM    8  C   UNL     1      -9.354  15.752  68.444  1.00  0.00    -0.196 C  
BRANCH   8   9
HETATM    9  C   UNL     1      -8.081  14.906  68.636  1.00  0.00    -0.151 A  
HETATM   10  C   UNL     1      -7.658  14.035  67.612  1.00  0.00    -0.191 A  
HETATM   11  C   UNL     1      -7.263  15.032  69.768  1.00  0.00    -0.149 A  
HETATM   12  C   UNL     1      -6.449  13.338  67.711  1.00  0.00    -0.161 A  
HETATM   13  C   UNL     1      -5.648  13.488  68.839  1.00  0.00    -0.074 A  
HETATM   14  C   UNL     1      -6.063  14.327  69.873  1.00  0.00    -0.141 A  
ENDBRANCH   8   9
BRANCH   8  15
HETATM   15  C   UNL     1     -10.565  15.211  69.224  1.00  0.00    -0.253 A  
HETATM   16  C   UNL     1     -11.694  14.911  71.364  1.00  0.00    -0.387 A  
HETATM   17  C   UNL     1     -12.380  13.599  69.463  1.00  0.00    -0.232 A  
HETATM   18  C   UNL     1     -10.737  15.556  70.578  1.00  0.00    -0.309 A  
HETATM   19  C   UNL     1     -11.416  14.233  68.679  1.00  0.00    -0.328 A  
HETATM   20  C   UNL     1     -12.509  13.928  70.809  1.00  0.00    -0.445 A  
ENDBRANCH   8  15
ENDBRANCH   5   8
TORSDOF 3
ENDMDL
MODEL       64
REMARK 921   NORMALIZED FREE ENERGY PREDICTED BY IDOCK:   -4.92 KCAL/MOL
REMARK 922        TOTAL FREE ENERGY PREDICTED BY IDOCK:   -5.75 KCAL/MOL
REMARK 923 INTER-LIGAND FREE ENERGY PREDICTED BY IDOCK:   -5.15 KCAL/MOL
REMARK 924 INTRA-LIGAND FREE ENERGY PREDICTED BY IDOCK:   -0.60 KCAL/MOL
REMARK 927      BINDING AFFINITY PREDICTED BY RF-SCORE:    0.00 PKD
ROOT
HETATM    1  C   UNL     1      -8.180   8.450  66.535  1.00  0.00    -0.105 C  
HETATM    2  N   UNL     1      -8.817   7.483  67.428  1.00  0.00    -0.127 NA 
HETATM    3  C   UNL     1      -8.073   7.346  68.697  1.00  0.00    -0.125 C  
HETATM    4  C   UNL     1      -8.300   8.484  69.723  1.00  0.00    -0.124 C  
HETATM    5  N   UNL     1      -9.718   8.783  70.026  1.00  0.00    -0.170 NA 
HETATM    6  C   UNL     1     -10.394   9.006  68.720  1.00  0.00    -0.215 C  
HETATM    7  C   UNL     1     -10.219   7.856  67.697  1.00  0.00    -0.226 C  
ENDROOT
BRANCH   5   8
HETATM    8  C   UNL     1     -10.383   7.706  70.831  1.00  0.00    -0.201 C  
BRANCH   8   9
HETATM    9  C   UNL     1      -9.554   7.273  72.055  1.00  0.00    -0.169 A  
HETATM   10  C   UNL     1      -8.983   5.985  72.094  1.00  0.00    -0.142 A  
HETATM   11  C   UNL     1      -9.264   8.150  73.111  1.00  0.00    -0.336 A  
HETATM   12  C   UNL     1      -8.136   5.603  73.139  1.00  0.00    -0.118 A  
HETATM   13  C   UNL     1      -7.853   6.494  74.170  1.00  0.00    -0.106 A  
HETATM   14  C   UNL     1      -8.428   7.764  74.160  1.00  0.00    -0.303 A  
ENDBRANCH   8   9
BRANCH   8  15
HETATM   15  C   UNL     1     -11.831   8.088  71.184  1.00  0.00    -0.307 A  
HETATM   16  C   UNL     1     -13.376   9.697  72.167  1.00  0.00    -0.545 A  
HETATM   17  C   UNL     1     -14.110   7.437  71.763  1.00  0.00    -0.510 A  
HETATM   18  C   UNL     1     -12.123   9.389  71.635  1.00  0.00    -0.462 A  
HETATM   19  C   UNL     1     -12.853   7.124  71.243  1.00  0.00    -0.399 A  
HETATM   20  C   UNL     1     -14.367   8.720  72.238  1.00  0.00    -0.468 A  
ENDBRANCH   8  15
ENDBRANCH   5   8
TORSDOF 3
ENDMDL
MODEL       65
REMARK 921   NORMALIZED FREE ENERGY PREDICTED BY IDOCK:   -4.89 KCAL/MOL
REMARK 922        TOTAL FREE ENERGY PREDICTED BY IDOCK:   -5.72 KCAL/MOL
REMARK 923 INTER-LIGAND FREE ENERGY PREDICTED BY IDOCK:   -5.24 KCAL/MOL
REMARK 924 INTRA-LIGAND FREE ENERGY PREDICTED BY IDOCK:   -0.47 KCAL/MOL
REMARK 927      BINDING AFFINITY PREDICTED BY RF-SCORE:    0.00 PKD
ROOT
HETATM    1  C   UNL     1      -6.442  13.298  69.489  1.00  0.00    -0.078 C  
HETATM    2  N   UNL     1      -6.568  12.612  68.204  1.00  0.00    -0.071 NA 
HETATM    3  C   UNL     1      -6.890  11.181  68.383  1.00  0.00    -0.066 C  
HETATM    4  C   UNL     1      -8.370  10.874  68.722  1.00  0.00    -0.151 C  
HETATM    5  N   UNL     1      -9.363  11.481  67.807  1.00  0.00    -0.164 NA 
HETATM    6  C   UNL     1      -9.049  12.933  67.741  1.00  0.00    -0.197 C  
HETATM    7  C   UNL     1      -7.586  13.262  67.355  1.00  0.00    -0.129 C  
ENDROOT
BRANCH   5   8
HETATM    8  C   UNL     1      -9.374  10.842  66.449  1.00  0.00    -0.174 C  
BRANCH   8   9
HETATM    9  C   UNL     1      -9.418   9.303  66.510  1.00  0.00    -0.259 A  
HETATM   10  C   UNL     1     -10.527   8.656  67.092  1.00  0.00    -0.360 A  
HETATM   11  C   UNL     1      -8.427   8.503  65.923  1.00  0.00    -0.164 A  
HETATM   12  C   UNL     1     -10.646   7.263  67.062  1.00  0.00    -0.415 A  
HETATM   13  C   UNL     1      -9.656   6.490  66.464  1.00  0.00    -0.184 A  
HETATM   14  C   UNL     1      -8.540   7.112  65.905  1.00  0.00    -0.157 A  
ENDBRANCH   8   9
BRANCH   8  15
HETATM   15  C   UNL     1     -10.474  11.445  65.558  1.00  0.00    -0.322 A  
HETATM   16  C   UNL     1     -11.166  12.235  63.358  1.00  0.00    -0.497 A  
HETATM   17  C   UNL     1     -12.464  12.832  65.299  1.00  0.00    -0.528 A  
HETATM   18  C   UNL     1     -10.292  11.501  64.163  1.00  0.00    -0.386 A  
HETATM   19  C   UNL     1     -11.585  12.110  66.107  1.00  0.00    -0.418 A  
HETATM   20  C   UNL     1     -12.246  12.906  63.926  1.00  0.00    -0.525 A  
ENDBRANCH   8  15
ENDBRANCH   5   8
TORSDOF 3
ENDMDL
MODEL       66
REMARK 921   NORMALIZED FREE ENERGY PREDICTED BY IDOCK:   -4.82 KCAL/MOL
REMARK 922        TOTAL FREE ENERGY PREDICTED BY IDOCK:   -5.63 KCAL/MOL
REMARK 923 INTER-LIGAND FREE ENERGY PREDICTED BY IDOCK:   -5.09 KCAL/MOL
REMARK 924 INTRA-LIGAND FREE ENERGY PREDICTED BY IDOCK:   -0.54 KCAL/MOL
REMARK 927      BINDING AFFINITY PREDICTED BY RF-SCORE:    0.00 PKD
ROOT
HETATM    1  C   UNL     1     -11.582  12.855  67.977  1.00  0.00    -0.342 C  
HETATM    2  N   UNL     1     -12.092  11.494  68.137  1.00  0.00    -0.591 NA 
HETATM    3  C   UNL     1     -11.218  10.506  67.471  1.00  0.00    -0.224 C  
HETATM    4  C   UNL     1      -9.924  10.142  68.241  1.00  0.00    -0.148 C  
HETATM    5  N   UNL     1     -10.125   9.735  69.651  1.00  0.00    -0.214 NA 
HETATM    6  C   UNL     1     -10.927  10.809  70.294  1.00  0.00    -0.085 C  
HETATM    7  C   UNL     1     -12.249  11.154  69.565  1.00  0.00    -0.277 C  
ENDROOT
BRANCH   5   8
HETATM    8  C   UNL     1     -10.774   8.388  69.782  1.00  0.00    -0.211 C  
BRANCH   8   9
HETATM    9  C   UNL     1     -10.286   7.380  68.725  1.00  0.00    -0.199 A  
HETATM   10  C   UNL     1      -8.940   6.959  68.728  1.00  0.00    -0.130 A  
HETATM   11  C   UNL     1     -11.156   6.785  67.800  1.00  0.00    -0.285 A  
HETATM   12  C   UNL     1      -8.494   5.964  67.852  1.00  0.00    -0.107 A  
HETATM   13  C   UNL     1      -9.379   5.380  66.950  1.00  0.00    -0.127 A  
HETATM   14  C   UNL     1     -10.708   5.801  66.918  1.00  0.00    -0.381 A  
ENDBRANCH   8   9
BRANCH   8  15
HETATM   15  C   UNL     1     -10.668   7.856  71.222  1.00  0.00    -0.257 A  
HETATM   16  C   UNL     1      -9.373   7.673  73.280  1.00  0.00    -0.299 A  
HETATM   17  C   UNL     1     -11.234   6.188  72.909  1.00  0.00    -0.250 A  
HETATM   18  C   UNL     1      -9.622   8.298  72.056  1.00  0.00    -0.316 A  
HETATM   19  C   UNL     1     -11.477   6.802  71.680  1.00  0.00    -0.322 A  
HETATM   20  C   UNL     1     -10.173   6.615  73.703  1.00  0.00    -0.325 A  
ENDBRANCH   8  15
ENDBRANCH   5   8
TORSDOF 3
ENDMDL
MODEL       67
REMARK 921   NORMALIZED FREE ENERGY PREDICTED BY IDOCK:   -4.81 KCAL/MOL
REMARK 922        TOTAL FREE ENERGY PREDICTED BY IDOCK:   -5.63 KCAL/MOL
REMARK 923 INTER-LIGAND FREE ENERGY PREDICTED BY IDOCK:   -5.05 KCAL/MOL
REMARK 924 INTRA-LIGAND FREE ENERGY PREDICTED BY IDOCK:   -0.58 KCAL/MOL
REMARK 927      BINDING AFFINITY PREDICTED BY RF-SCORE:    0.00 PKD
ROOT
HETATM    1  C   UNL     1     -10.527   6.780  73.730  1.00  0.00    -0.354 C  
HETATM    2  N   UNL     1     -11.292   7.139  72.537  1.00  0.00    -0.281 NA 
HETATM    3  C   UNL     1     -11.136   8.570  72.205  1.00  0.00    -0.366 C  
HETATM    4  C   UNL     1      -9.809   8.945  71.500  1.00  0.00    -0.314 C  
HETATM    5  N   UNL     1      -9.482   8.134  70.304  1.00  0.00    -0.169 NA 
HETATM    6  C   UNL     1      -9.560   6.709  70.723  1.00  0.00    -0.175 C  
HETATM    7  C   UNL     1     -10.899   6.303  71.386  1.00  0.00    -0.261 C  
ENDROOT
BRANCH   5   8
HETATM    8  C   UNL     1     -10.373   8.431  69.135  1.00  0.00    -0.220 C  
BRANCH   8   9
HETATM    9  C   UNL     1     -10.430   9.931  68.789  1.00  0.00    -0.234 A  
HETATM   10  C   UNL     1     -11.641  10.638  68.934  1.00  0.00    -0.320 A  
HETATM   11  C   UNL     1      -9.290  10.656  68.413  1.00  0.00    -0.163 A  
HETATM   12  C   UNL     1     -11.698  12.021  68.734  1.00  0.00    -0.377 A  
HETATM   13  C   UNL     1     -10.550  12.721  68.373  1.00  0.00    -0.262 A  
HETATM   14  C   UNL     1      -9.349  12.034  68.201  1.00  0.00    -0.199 A  
ENDBRANCH   8   9
BRANCH   8  15
HETATM   15  C   UNL     1     -10.025   7.543  67.929  1.00  0.00    -0.203 A  
HETATM   16  C   UNL     1     -10.607   5.656  66.499  1.00  0.00    -0.320 A  
HETATM   17  C   UNL     1      -8.365   6.537  66.451  1.00  0.00    -0.120 A  
HETATM   18  C   UNL     1     -10.970   6.619  67.442  1.00  0.00    -0.434 A  
HETATM   19  C   UNL     1      -8.721   7.493  67.403  1.00  0.00    -0.124 A  
HETATM   20  C   UNL     1      -9.304   5.609  66.010  1.00  0.00    -0.150 A  
ENDBRANCH   8  15
ENDBRANCH   5   8
TORSDOF 3
ENDMDL
MODEL       68
REMARK 921   NORMALIZED FREE ENERGY PREDICTED BY IDOCK:   -4.80 KCAL/MOL
REMARK 922        TOTAL FREE ENERGY PREDICTED BY IDOCK:   -5.61 KCAL/MOL
REMARK 923 INTER-LIGAND FREE ENERGY PREDICTED BY IDOCK:   -5.02 KCAL/MOL
REMARK 924 INTRA-LIGAND FREE ENERGY PREDICTED BY IDOCK:   -0.59 KCAL/MOL
REMARK 927      BINDING AFFINITY PREDICTED BY RF-SCORE:    0.00 PKD
ROOT
HETATM    1  C   UNL     1     -10.119  20.117  66.565  1.00  0.00    -0.449 C  
HETATM    2  N   UNL     1      -9.418  18.924  66.092  1.00  0.00    -0.471 NA 
HETATM    3  C   UNL     1      -8.296  18.565  66.985  1.00  0.00    -0.255 C  
HETATM    4  C   UNL     1      -8.698  17.843  68.294  1.00  0.00    -0.275 C  
HETATM    5  N   UNL     1      -9.571  16.659  68.117  1.00  0.00    -0.224 NA 
HETATM    6  C   UNL     1     -10.728  17.103  67.294  1.00  0.00    -0.208 C  
HETATM    7  C   UNL     1     -10.346  17.785  65.957  1.00  0.00    -0.304 C  
ENDROOT
BRANCH   5   8
HETATM    8  C   UNL     1      -8.854  15.492  67.504  1.00  0.00    -0.182 C  
BRANCH   8   9
HETATM    9  C   UNL     1      -7.592  15.083  68.287  1.00  0.00    -0.111 A  
HETATM   10  C   UNL     1      -6.369  14.919  67.606  1.00  0.00    -0.147 A  
HETATM   11  C   UNL     1      -7.588  14.952  69.683  1.00  0.00    -0.098 A  
HETATM   12  C   UNL     1      -5.185  14.657  68.304  1.00  0.00    -0.113 A  
HETATM   13  C   UNL     1      -5.203  14.542  69.691  1.00  0.00    -0.091 A  
HETATM   14  C   UNL     1      -6.409  14.678  70.378  1.00  0.00    -0.153 A  
ENDBRANCH   8   9
BRANCH   8  15
HETATM   15  C   UNL     1      -9.816  14.319  67.249  1.00  0.00    -0.244 A  
HETATM   16  C   UNL     1     -11.049  12.951  65.650  1.00  0.00    -0.307 A  
HETATM   17  C   UNL     1     -11.650  12.888  67.983  1.00  0.00    -0.385 A  
HETATM   18  C   UNL     1     -10.026  13.858  65.935  1.00  0.00    -0.317 A  
HETATM   19  C   UNL     1     -10.637  13.805  68.268  1.00  0.00    -0.262 A  
HETATM   20  C   UNL     1     -11.865  12.473  66.672  1.00  0.00    -0.422 A  
ENDBRANCH   8  15
ENDBRANCH   5   8
TORSDOF 3
ENDMDL
MODEL       69
REMARK 921   NORMALIZED FREE ENERGY PREDICTED BY IDOCK:   -4.79 KCAL/MOL
REMARK 922        TOTAL FREE ENERGY PREDICTED BY IDOCK:   -5.60 KCAL/MOL
REMARK 923 INTER-LIGAND FREE ENERGY PREDICTED BY IDOCK:   -5.60 KCAL/MOL
REMARK 924 INTRA-LIGAND FREE ENERGY PREDICTED BY IDOCK:    0.00 KCAL/MOL
REMARK 927      BINDING AFFINITY PREDICTED BY RF-SCORE:    0.00 PKD
ROOT
HETATM    1  C   UNL     1      -9.433   7.409  68.959  1.00  0.00    -0.148 C  
HETATM    2  N   UNL     1     -10.647   8.173  68.677  1.00  0.00    -0.159 NA 
HETATM    3  C   UNL     1     -11.178   8.815  69.897  1.00  0.00    -0.051 C  
HETATM    4  C   UNL     1     -10.440  10.101  70.343  1.00  0.00    -0.173 C  
HETATM    5  N   UNL     1     -10.276  11.129  69.289  1.00  0.00    -0.143 NA 
HETATM    6  C   UNL     1      -9.651  10.448  68.124  1.00  0.00    -0.144 C  
HETATM    7  C   UNL     1     -10.403   9.186  67.633  1.00  0.00    -0.255 C  
ENDROOT
BRANCH   5   8
HETATM    8  C   UNL     1     -11.567  11.803  68.926  1.00  0.00    -0.309 C  
BRANCH   8   9
HETATM    9  C   UNL     1     -12.200  12.564  70.107  1.00  0.00    -0.307 A  
HETATM   10  C   UNL     1     -12.907  11.854  71.098  1.00  0.00    -0.346 A  
HETATM   11  C   UNL     1     -12.026  13.944  70.288  1.00  0.00    -0.401 A  
HETATM   12  C   UNL     1     -13.398  12.502  72.238  1.00  0.00    -0.475 A  
HETATM   13  C   UNL     1     -13.202  13.870  72.401  1.00  0.00    -0.587 A  
HETATM   14  C   UNL     1     -12.526  14.592  71.419  1.00  0.00    -0.423 A  
ENDBRANCH   8   9
BRANCH   8  15
HETATM   15  C   UNL     1     -11.408  12.667  67.663  1.00  0.00    -0.362 A  
HETATM   16  C   UNL     1     -11.960  13.041  65.318  1.00  0.00    -0.446 A  
HETATM   17  C   UNL     1     -10.088  14.200  66.300  1.00  0.00    -0.308 A  
HETATM   18  C   UNL     1     -12.227  12.427  66.543  1.00  0.00     0.035 A  
HETATM   19  C   UNL     1     -10.346  13.577  67.522  1.00  0.00    -0.237 A  
HETATM   20  C   UNL     1     -10.887  13.921  65.194  1.00  0.00    -0.364 A  
ENDBRANCH   8  15
ENDBRANCH   5   8
TORSDOF 3
ENDMDL
MODEL       70
REMARK 921   NORMALIZED FREE ENERGY PREDICTED BY IDOCK:   -4.78 KCAL/MOL
REMARK 922        TOTAL FREE ENERGY PREDICTED BY IDOCK:   -5.58 KCAL/MOL
REMARK 923 INTER-LIGAND FREE ENERGY PREDICTED BY IDOCK:   -5.09 KCAL/MOL
REMARK 924 INTRA-LIGAND FREE ENERGY PREDICTED BY IDOCK:   -0.49 KCAL/MOL
REMARK 927      BINDING AFFINITY PREDICTED BY RF-SCORE:    0.00 PKD
ROOT
HETATM    1  C   UNL     1     -10.665   7.478  73.394  1.00  0.00    -0.332 C  
HETATM    2  N   UNL     1     -11.397   7.739  72.156  1.00  0.00    -0.282 NA 
HETATM    3  C   UNL     1     -11.162   9.114  71.667  1.00  0.00    -0.377 C  
HETATM    4  C   UNL     1      -9.809   9.337  70.946  1.00  0.00    -0.293 C  
HETATM    5  N   UNL     1      -9.513   8.379  69.855  1.00  0.00    -0.166 NA 
HETATM    6  C   UNL     1      -9.672   7.017  70.429  1.00  0.00    -0.176 C  
HETATM    7  C   UNL     1     -11.038   6.759  71.113  1.00  0.00    -0.270 C  
ENDROOT
BRANCH   5   8
HETATM    8  C   UNL     1     -10.376   8.589  68.645  1.00  0.00    -0.198 C  
BRANCH   8   9
HETATM    9  C   UNL     1     -10.373  10.047  68.149  1.00  0.00    -0.228 A  
HETATM   10  C   UNL     1      -9.201  10.592  67.586  1.00  0.00    -0.153 A  
HETATM   11  C   UNL     1     -11.528  10.842  68.152  1.00  0.00    -0.346 A  
HETATM   12  C   UNL     1      -9.198  11.875  67.027  1.00  0.00    -0.191 A  
HETATM   13  C   UNL     1     -10.361  12.640  67.031  1.00  0.00    -0.241 A  
HETATM   14  C   UNL     1     -11.522  12.126  67.606  1.00  0.00    -0.399 A  
ENDBRANCH   8   9
BRANCH   8  15
HETATM   15  C   UNL     1     -10.042   7.572  67.540  1.00  0.00    -0.261 A  
HETATM   16  C   UNL     1     -10.613   5.510  66.372  1.00  0.00    -0.291 A  
HETATM   17  C   UNL     1      -8.405   6.443  66.128  1.00  0.00    -0.128 A  
HETATM   18  C   UNL     1     -10.973   6.569  67.206  1.00  0.00    -0.475 A  
HETATM   19  C   UNL     1      -8.758   7.496  66.972  1.00  0.00    -0.127 A  
HETATM   20  C   UNL     1      -9.328   5.442  65.839  1.00  0.00    -0.155 A  
ENDBRANCH   8  15
ENDBRANCH   5   8
TORSDOF 3
ENDMDL
MODEL       71
REMARK 921   NORMALIZED FREE ENERGY PREDICTED BY IDOCK:   -4.75 KCAL/MOL
REMARK 922        TOTAL FREE ENERGY PREDICTED BY IDOCK:   -5.55 KCAL/MOL
REMARK 923 INTER-LIGAND FREE ENERGY PREDICTED BY IDOCK:   -5.16 KCAL/MOL
REMARK 924 INTRA-LIGAND FREE ENERGY PREDICTED BY IDOCK:   -0.39 KCAL/MOL
REMARK 927      BINDING AFFINITY PREDICTED BY RF-SCORE:    0.00 PKD
ROOT
HETATM    1  C   UNL     1     -12.541  13.561  63.556  1.00  0.00     0.014 C  
HETATM    2  N   UNL     1     -12.520  13.892  64.980  1.00  0.00    -0.556 NA 
HETATM    3  C   UNL     1     -12.356  12.683  65.814  1.00  0.00    -0.253 C  
HETATM    4  C   UNL     1     -10.914  12.126  65.895  1.00  0.00    -0.292 C  
HETATM    5  N   UNL     1      -9.878  13.116  66.271  1.00  0.00    -0.280 NA 
HETATM    6  C   UNL     1     -10.029  14.264  65.339  1.00  0.00    -0.303 C  
HETATM    7  C   UNL     1     -11.454  14.867  65.281  1.00  0.00    -0.336 C  
ENDROOT
BRANCH   5   8
HETATM    8  C   UNL     1      -9.967  13.537  67.708  1.00  0.00    -0.232 C  
BRANCH   8   9
HETATM    9  C   UNL     1     -10.505  12.424  68.628  1.00  0.00    -0.224 A  
HETATM   10  C   UNL     1      -9.732  11.267  68.853  1.00  0.00    -0.141 A  
HETATM   11  C   UNL     1     -11.711  12.553  69.333  1.00  0.00    -0.383 A  
HETATM   12  C   UNL     1     -10.143  10.291  69.768  1.00  0.00    -0.244 A  
HETATM   13  C   UNL     1     -11.338  10.447  70.464  1.00  0.00    -0.424 A  
HETATM   14  C   UNL     1     -12.127  11.574  70.236  1.00  0.00    -0.444 A  
ENDBRANCH   8   9
BRANCH   8  15
HETATM   15  C   UNL     1      -8.638  14.137  68.197  1.00  0.00    -0.175 A  
HETATM   16  C   UNL     1      -7.460  15.987  69.262  1.00  0.00    -0.228 A  
HETATM   17  C   UNL     1      -6.215  14.347  68.009  1.00  0.00    -0.162 A  
HETATM   18  C   UNL     1      -8.645  15.300  68.991  1.00  0.00    -0.226 A  
HETATM   19  C   UNL     1      -7.400  13.667  67.726  1.00  0.00    -0.170 A  
HETATM   20  C   UNL     1      -6.247  15.516  68.765  1.00  0.00    -0.099 A  
ENDBRANCH   8  15
ENDBRANCH   5   8
TORSDOF 3
ENDMDL
MODEL       72
REMARK 921   NORMALIZED FREE ENERGY PREDICTED BY IDOCK:   -4.74 KCAL/MOL
REMARK 922        TOTAL FREE ENERGY PREDICTED BY IDOCK:   -5.54 KCAL/MOL
REMARK 923 INTER-LIGAND FREE ENERGY PREDICTED BY IDOCK:   -5.06 KCAL/MOL
REMARK 924 INTRA-LIGAND FREE ENERGY PREDICTED BY IDOCK:   -0.48 KCAL/MOL
REMARK 927      BINDING AFFINITY PREDICTED BY RF-SCORE:    0.00 PKD
ROOT
HETATM    1  C   UNL     1      -7.729   6.667  67.461  1.00  0.00    -0.110 C  
HETATM    2  N   UNL     1      -7.969   7.296  68.759  1.00  0.00    -0.121 NA 
HETATM    3  C   UNL     1      -9.313   7.906  68.825  1.00  0.00    -0.146 C  
HETATM    4  C   UNL     1     -10.479   6.914  69.060  1.00  0.00    -0.208 C  
HETATM    5  N   UNL     1     -10.306   6.002  70.214  1.00  0.00    -0.206 NA 
HETATM    6  C   UNL     1      -8.982   5.347  70.044  1.00  0.00    -0.129 C  
HETATM    7  C   UNL     1      -7.796   6.325  69.857  1.00  0.00    -0.110 C  
ENDROOT
BRANCH   5   8
HETATM    8  C   UNL     1     -10.426   6.704  71.535  1.00  0.00    -0.215 C  
BRANCH   8   9
HETATM    9  C   UNL     1     -11.754   7.468  71.692  1.00  0.00    -0.313 A  
HETATM   10  C   UNL     1     -11.739   8.857  71.931  1.00  0.00    -0.439 A  
HETATM   11  C   UNL     1     -12.999   6.848  71.516  1.00  0.00    -0.362 A  
HETATM   12  C   UNL     1     -12.926   9.596  71.967  1.00  0.00    -0.518 A  
HETATM   13  C   UNL     1     -14.149   8.960  71.778  1.00  0.00    -0.426 A  
HETATM   14  C   UNL     1     -14.185   7.583  71.564  1.00  0.00    -0.580 A  
ENDBRANCH   8   9
BRANCH   8  15
HETATM   15  C   UNL     1     -10.136   5.746  72.703  1.00  0.00    -0.204 A  
HETATM   16  C   UNL     1      -8.529   4.835  74.295  1.00  0.00    -0.105 A  
HETATM   17  C   UNL     1     -10.614   3.686  73.919  1.00  0.00    -0.286 A  
HETATM   18  C   UNL     1      -8.906   5.825  73.386  1.00  0.00    -0.123 A  
HETATM   19  C   UNL     1     -10.988   4.668  73.000  1.00  0.00    -0.329 A  
HETATM   20  C   UNL     1      -9.379   3.763  74.556  1.00  0.00    -0.125 A  
ENDBRANCH   8  15
ENDBRANCH   5   8
TORSDOF 3
ENDMDL
MODEL       73
REMARK 921   NORMALIZED FREE ENERGY PREDICTED BY IDOCK:   -4.73 KCAL/MOL
REMARK 922        TOTAL FREE ENERGY PREDICTED BY IDOCK:   -5.52 KCAL/MOL
REMARK 923 INTER-LIGAND FREE ENERGY PREDICTED BY IDOCK:   -5.04 KCAL/MOL
REMARK 924 INTRA-LIGAND FREE ENERGY PREDICTED BY IDOCK:   -0.49 KCAL/MOL
REMARK 927      BINDING AFFINITY PREDICTED BY RF-SCORE:    0.00 PKD
ROOT
HETATM    1  C   UNL     1     -11.688  14.317  68.926  1.00  0.00    -0.328 C  
HETATM    2  N   UNL     1     -12.014  13.230  68.004  1.00  0.00    -0.345 NA 
HETATM    3  C   UNL     1     -11.173  13.279  66.790  1.00  0.00    -0.304 C  
HETATM    4  C   UNL     1      -9.732  12.737  66.962  1.00  0.00    -0.224 C  
HETATM    5  N   UNL     1      -9.636  11.386  67.561  1.00  0.00    -0.166 NA 
HETATM    6  C   UNL     1     -10.420  11.424  68.824  1.00  0.00    -0.204 C  
HETATM    7  C   UNL     1     -11.879  11.918  68.665  1.00  0.00    -0.308 C  
ENDROOT
BRANCH   5   8
HETATM    8  C   UNL     1     -10.106  10.302  66.636  1.00  0.00    -0.223 C  
BRANCH   8   9
HETATM    9  C   UNL     1      -9.564  10.459  65.202  1.00  0.00    -0.329 A  
HETATM   10  C   UNL     1      -8.236  10.088  64.911  1.00  0.00    -0.154 A  
HETATM   11  C   UNL     1     -10.375  10.879  64.138  1.00  0.00    -0.432 A  
HETATM   12  C   UNL     1      -7.751  10.116  63.599  1.00  0.00    -0.142 A  
HETATM   13  C   UNL     1      -8.578  10.525  62.557  1.00  0.00    -0.247 A  
HETATM   14  C   UNL     1      -9.887  10.918  62.831  1.00  0.00    -0.313 A  
ENDBRANCH   8   9
BRANCH   8  15
HETATM   15  C   UNL     1      -9.845   8.908  67.233  1.00  0.00    -0.256 A  
HETATM   16  C   UNL     1     -10.663   6.659  67.694  1.00  0.00    -0.373 A  
HETATM   17  C   UNL     1      -8.718   7.479  68.857  1.00  0.00    -0.132 A  
HETATM   18  C   UNL     1     -10.756   7.862  66.992  1.00  0.00    -0.289 A  
HETATM   19  C   UNL     1      -8.817   8.687  68.166  1.00  0.00    -0.142 A  
HETATM   20  C   UNL     1      -9.650   6.470  68.631  1.00  0.00    -0.125 A  
ENDBRANCH   8  15
ENDBRANCH   5   8
TORSDOF 3
ENDMDL
MODEL       74
REMARK 921   NORMALIZED FREE ENERGY PREDICTED BY IDOCK:   -4.69 KCAL/MOL
REMARK 922        TOTAL FREE ENERGY PREDICTED BY IDOCK:   -5.47 KCAL/MOL
REMARK 923 INTER-LIGAND FREE ENERGY PREDICTED BY IDOCK:   -5.68 KCAL/MOL
REMARK 924 INTRA-LIGAND FREE ENERGY PREDICTED BY IDOCK:    0.20 KCAL/MOL
REMARK 927      BINDING AFFINITY PREDICTED BY RF-SCORE:    0.00 PKD
ROOT
HETATM    1  C   UNL     1     -11.033   5.384  72.610  1.00  0.00    -0.268 C  
HETATM    2  N   UNL     1     -10.318   6.637  72.377  1.00  0.00    -0.192 NA 
HETATM    3  C   UNL     1      -9.951   6.796  70.955  1.00  0.00    -0.186 C  
HETATM    4  C   UNL     1     -11.102   7.249  70.022  1.00  0.00    -0.240 C  
HETATM    5  N   UNL     1     -11.836   8.455  70.469  1.00  0.00    -0.090 NA 
HETATM    6  C   UNL     1     -12.262   8.199  71.870  1.00  0.00    -0.331 C  
HETATM    7  C   UNL     1     -11.116   7.793  72.830  1.00  0.00    -0.398 C  
ENDROOT
BRANCH   5   8
HETATM    8  C   UNL     1     -11.025   9.711  70.343  1.00  0.00    -0.299 C  
BRANCH   8   9
HETATM    9  C   UNL     1     -10.253   9.797  69.013  1.00  0.00    -0.214 A  
HETATM   10  C   UNL     1      -8.847   9.904  69.025  1.00  0.00    -0.156 A  
HETATM   11  C   UNL     1     -10.890   9.683  67.769  1.00  0.00    -0.278 A  
HETATM   12  C   UNL     1      -8.111   9.873  67.836  1.00  0.00    -0.109 A  
HETATM   13  C   UNL     1      -8.764   9.747  66.614  1.00  0.00    -0.142 A  
HETATM   14  C   UNL     1     -10.156   9.664  66.582  1.00  0.00    -0.307 A  
ENDBRANCH   8   9
BRANCH   8  15
HETATM   15  C   UNL     1     -11.881  10.957  70.629  1.00  0.00    -0.453 A  
HETATM   16  C   UNL     1     -12.221  13.355  70.346  1.00  0.00    -0.415 A  
HETATM   17  C   UNL     1     -13.430  12.177  72.066  1.00  0.00    -0.388 A  
HETATM   18  C   UNL     1     -11.612  12.162  69.951  1.00  0.00    -0.297 A  
HETATM   19  C   UNL     1     -12.813  10.986  71.682  1.00  0.00    -0.540 A  
HETATM   20  C   UNL     1     -13.123  13.364  71.408  1.00  0.00    -0.373 A  
ENDBRANCH   8  15
ENDBRANCH   5   8
TORSDOF 3
ENDMDL
MODEL       75
REMARK 921   NORMALIZED FREE ENERGY PREDICTED BY IDOCK:   -4.64 KCAL/MOL
REMARK 922        TOTAL FREE ENERGY PREDICTED BY IDOCK:   -5.42 KCAL/MOL
REMARK 923 INTER-LIGAND FREE ENERGY PREDICTED BY IDOCK:   -4.86 KCAL/MOL
REMARK 924 INTRA-LIGAND FREE ENERGY PREDICTED BY IDOCK:   -0.56 KCAL/MOL
REMARK 927      BINDING AFFINITY PREDICTED BY RF-SCORE:    0.00 PKD
ROOT
HETATM    1  C   UNL     1      -7.986  10.673  67.707  1.00  0.00    -0.110 C  
HETATM    2  N   UNL     1      -8.294  10.371  69.104  1.00  0.00    -0.149 NA 
HETATM    3  C   UNL     1      -9.748  10.432  69.363  1.00  0.00    -0.200 C  
HETATM    4  C   UNL     1     -10.557   9.199  68.890  1.00  0.00    -0.191 C  
HETATM    5  N   UNL     1     -10.038   7.891  69.355  1.00  0.00    -0.191 NA 
HETATM    6  C   UNL     1      -8.600   7.847  68.982  1.00  0.00    -0.135 C  
HETATM    7  C   UNL     1      -7.763   9.049  69.488  1.00  0.00    -0.082 C  
ENDROOT
BRANCH   5   8
HETATM    8  C   UNL     1     -10.250   7.668  70.823  1.00  0.00    -0.201 C  
BRANCH   8   9
HETATM    9  C   UNL     1     -11.693   7.964  71.274  1.00  0.00    -0.313 A  
HETATM   10  C   UNL     1     -12.718   7.036  70.997  1.00  0.00    -0.300 A  
HETATM   11  C   UNL     1     -12.022   9.093  72.038  1.00  0.00    -0.421 A  
HETATM   12  C   UNL     1     -14.014   7.224  71.489  1.00  0.00    -0.486 A  
HETATM   13  C   UNL     1     -14.313   8.346  72.255  1.00  0.00    -0.465 A  
HETATM   14  C   UNL     1     -13.318   9.286  72.518  1.00  0.00    -0.463 A  
ENDBRANCH   8   9
BRANCH   8  15
HETATM   15  C   UNL     1      -9.754   6.276  71.252  1.00  0.00    -0.193 A  
HETATM   16  C   UNL     1      -9.877   3.855  70.994  1.00  0.00    -0.219 A  
HETATM   17  C   UNL     1      -8.826   4.791  72.950  1.00  0.00    -0.118 A  
HETATM   18  C   UNL     1     -10.126   5.140  70.508  1.00  0.00    -0.326 A  
HETATM   19  C   UNL     1      -9.086   6.076  72.473  1.00  0.00    -0.135 A  
HETATM   20  C   UNL     1      -9.235   3.680  72.217  1.00  0.00    -0.164 A  
ENDBRANCH   8  15
ENDBRANCH   5   8
TORSDOF 3
ENDMDL
MODEL       76
REMARK 921   NORMALIZED FREE ENERGY PREDICTED BY IDOCK:   -4.63 KCAL/MOL
REMARK 922        TOTAL FREE ENERGY PREDICTED BY IDOCK:   -5.40 KCAL/MOL
REMARK 923 INTER-LIGAND FREE ENERGY PREDICTED BY IDOCK:   -4.80 KCAL/MOL
REMARK 924 INTRA-LIGAND FREE ENERGY PREDICTED BY IDOCK:   -0.60 KCAL/MOL
REMARK 927      BINDING AFFINITY PREDICTED BY RF-SCORE:    0.00 PKD
ROOT
HETATM    1  C   UNL     1     -13.190  11.475  71.846  1.00  0.00    -0.374 C  
HETATM    2  N   UNL     1     -13.121  10.398  70.860  1.00  0.00    -0.379 NA 
HETATM    3  C   UNL     1     -12.273  10.772  69.709  1.00  0.00    -0.288 C  
HETATM    4  C   UNL     1     -10.747  10.682  69.954  1.00  0.00    -0.204 C  
HETATM    5  N   UNL     1     -10.274   9.389  70.502  1.00  0.00    -0.251 NA 
HETATM    6  C   UNL     1     -11.096   9.113  71.710  1.00  0.00    -0.367 C  
HETATM    7  C   UNL     1     -12.626   9.151  71.474  1.00  0.00    -0.343 C  
ENDROOT
BRANCH   5   8
HETATM    8  C   UNL     1     -10.341   8.272  69.503  1.00  0.00    -0.219 C  
BRANCH   8   9
HETATM    9  C   UNL     1      -9.582   8.584  68.200  1.00  0.00    -0.158 A  
HETATM   10  C   UNL     1     -10.294   8.727  66.992  1.00  0.00    -0.353 A  
HETATM   11  C   UNL     1      -8.200   8.825  68.178  1.00  0.00    -0.114 A  
HETATM   12  C   UNL     1      -9.646   9.119  65.815  1.00  0.00    -0.323 A  
HETATM   13  C   UNL     1      -8.276   9.363  65.821  1.00  0.00    -0.116 A  
HETATM   14  C   UNL     1      -7.553   9.204  67.001  1.00  0.00    -0.091 A  
ENDBRANCH   8   9
BRANCH   8  15
HETATM   15  C   UNL     1      -9.932   6.932  70.138  1.00  0.00    -0.188 A  
HETATM   16  C   UNL     1      -8.247   5.616  71.309  1.00  0.00    -0.125 A  
HETATM   17  C   UNL     1     -10.093   4.500  70.236  1.00  0.00    -0.230 A  
HETATM   18  C   UNL     1      -8.756   6.852  70.909  1.00  0.00    -0.141 A  
HETATM   19  C   UNL     1     -10.598   5.734  69.824  1.00  0.00    -0.388 A  
HETATM   20  C   UNL     1      -8.910   4.440  70.967  1.00  0.00    -0.146 A  
ENDBRANCH   8  15
ENDBRANCH   5   8
TORSDOF 3
ENDMDL
MODEL       77
REMARK 921   NORMALIZED FREE ENERGY PREDICTED BY IDOCK:   -4.61 KCAL/MOL
REMARK 922        TOTAL FREE ENERGY PREDICTED BY IDOCK:   -5.38 KCAL/MOL
REMARK 923 INTER-LIGAND FREE ENERGY PREDICTED BY IDOCK:   -4.79 KCAL/MOL
REMARK 924 INTRA-LIGAND FREE ENERGY PREDICTED BY IDOCK:   -0.59 KCAL/MOL
REMARK 927      BINDING AFFINITY PREDICTED BY RF-SCORE:    0.00 PKD
ROOT
HETATM    1  C   UNL     1     -10.331  13.612  66.267  1.00  0.00    -0.293 C  
HETATM    2  N   UNL     1      -9.422  12.615  66.830  1.00  0.00    -0.231 NA 
HETATM    3  C   UNL     1      -9.789  12.270  68.219  1.00  0.00    -0.217 C  
HETATM    4  C   UNL     1     -10.987  11.300  68.366  1.00  0.00    -0.219 C  
HETATM    5  N   UNL     1     -10.888  10.054  67.570  1.00  0.00    -0.284 NA 
HETATM    6  C   UNL     1     -10.614  10.466  66.168  1.00  0.00    -0.090 C  
HETATM    7  C   UNL     1      -9.389  11.398  65.995  1.00  0.00    -0.217 C  
ENDROOT
BRANCH   5   8
HETATM    8  C   UNL     1      -9.849   9.107  68.096  1.00  0.00    -0.164 C  
BRANCH   8   9
HETATM    9  C   UNL     1     -10.027   8.791  69.593  1.00  0.00    -0.191 A  
HETATM   10  C   UNL     1      -8.914   8.845  70.456  1.00  0.00    -0.224 A  
HETATM   11  C   UNL     1     -11.284   8.535  70.160  1.00  0.00    -0.139 A  
HETATM   12  C   UNL     1      -9.063   8.672  71.837  1.00  0.00    -0.326 A  
HETATM   13  C   UNL     1     -10.322   8.430  72.378  1.00  0.00    -0.399 A  
HETATM   14  C   UNL     1     -11.430   8.350  71.536  1.00  0.00    -0.335 A  
ENDBRANCH   8   9
BRANCH   8  15
HETATM   15  C   UNL     1      -9.749   7.848  67.218  1.00  0.00    -0.230 A  
HETATM   16  C   UNL     1     -10.619   5.646  66.635  1.00  0.00    -0.361 A  
HETATM   17  C   UNL     1      -8.416   6.288  65.899  1.00  0.00    -0.146 A  
HETATM   18  C   UNL     1     -10.782   6.891  67.245  1.00  0.00    -0.421 A  
HETATM   19  C   UNL     1      -8.571   7.528  66.520  1.00  0.00    -0.134 A  
HETATM   20  C   UNL     1      -9.434   5.342  65.969  1.00  0.00    -0.169 A  
ENDBRANCH   8  15
ENDBRANCH   5   8
TORSDOF 3
ENDMDL
MODEL       78
REMARK 921   NORMALIZED FREE ENERGY PREDICTED BY IDOCK:   -4.59 KCAL/MOL
REMARK 922        TOTAL FREE ENERGY PREDICTED BY IDOCK:   -5.36 KCAL/MOL
REMARK 923 INTER-LIGAND FREE ENERGY PREDICTED BY IDOCK:   -4.81 KCAL/MOL
REMARK 924 INTRA-LIGAND FREE ENERGY PREDICTED BY IDOCK:   -0.56 KCAL/MOL
REMARK 927      BINDING AFFINITY PREDICTED BY RF-SCORE:    0.00 PKD
ROOT
HETATM    1  C   UNL     1     -11.900  13.976  67.807  1.00  0.00    -0.384 C  
HETATM    2  N   UNL     1     -11.075  13.383  68.858  1.00  0.00    -0.261 NA 
HETATM    3  C   UNL     1     -11.834  12.389  69.646  1.00  0.00    -0.311 C  
HETATM    4  C   UNL     1     -12.015  11.007  68.970  1.00  0.00    -0.293 C  
HETATM    5  N   UNL     1     -10.766  10.381  68.477  1.00  0.00    -0.206 NA 
HETATM    6  C   UNL     1     -10.095  11.390  67.616  1.00  0.00    -0.180 C  
HETATM    7  C   UNL     1      -9.861  12.764  68.291  1.00  0.00    -0.224 C  
ENDROOT
BRANCH   5   8
HETATM    8  C   UNL     1      -9.877   9.901  69.586  1.00  0.00    -0.232 C  
BRANCH   8   9
HETATM    9  C   UNL     1     -10.509   8.768  70.416  1.00  0.00    -0.240 A  
HETATM   10  C   UNL     1     -10.731   8.950  71.796  1.00  0.00    -0.432 A  
HETATM   11  C   UNL     1     -10.963   7.576  69.832  1.00  0.00    -0.223 A  
HETATM   12  C   UNL     1     -11.402   7.984  72.553  1.00  0.00    -0.469 A  
HETATM   13  C   UNL     1     -11.854   6.814  71.949  1.00  0.00    -0.366 A  
HETATM   14  C   UNL     1     -11.622   6.607  70.590  1.00  0.00    -0.439 A  
ENDBRANCH   8   9
BRANCH   8  15
HETATM   15  C   UNL     1      -8.471   9.559  69.064  1.00  0.00    -0.128 A  
HETATM   16  C   UNL     1      -7.042   8.076  67.760  1.00  0.00    -0.086 A  
HETATM   17  C   UNL     1      -6.046   9.616  69.322  1.00  0.00    -0.037 A  
HETATM   18  C   UNL     1      -8.311   8.557  68.088  1.00  0.00    -0.127 A  
HETATM   19  C   UNL     1      -7.314  10.090  69.662  1.00  0.00    -0.127 A  
HETATM   20  C   UNL     1      -5.911   8.599  68.381  1.00  0.00    -0.042 A  
ENDBRANCH   8  15
ENDBRANCH   5   8
TORSDOF 3
ENDMDL
MODEL       79
REMARK 921   NORMALIZED FREE ENERGY PREDICTED BY IDOCK:   -4.59 KCAL/MOL
REMARK 922        TOTAL FREE ENERGY PREDICTED BY IDOCK:   -5.36 KCAL/MOL
REMARK 923 INTER-LIGAND FREE ENERGY PREDICTED BY IDOCK:   -4.86 KCAL/MOL
REMARK 924 INTRA-LIGAND FREE ENERGY PREDICTED BY IDOCK:   -0.50 KCAL/MOL
REMARK 927      BINDING AFFINITY PREDICTED BY RF-SCORE:    0.00 PKD
ROOT
HETATM    1  C   UNL     1     -10.945   8.947  70.668  1.00  0.00    -0.241 C  
HETATM    2  N   UNL     1     -10.147  10.047  70.131  1.00  0.00    -0.249 NA 
HETATM    3  C   UNL     1      -9.114   9.560  69.193  1.00  0.00    -0.152 C  
HETATM    4  C   UNL     1      -9.624   9.203  67.775  1.00  0.00    -0.146 C  
HETATM    5  N   UNL     1     -10.421  10.259  67.109  1.00  0.00    -0.241 NA 
HETATM    6  C   UNL     1     -11.499  10.641  68.059  1.00  0.00    -0.212 C  
HETATM    7  C   UNL     1     -11.005  11.049  69.469  1.00  0.00    -0.243 C  
ENDROOT
BRANCH   5   8
HETATM    8  C   UNL     1      -9.592  11.438  66.689  1.00  0.00    -0.191 C  
BRANCH   8   9
HETATM    9  C   UNL     1      -8.187  11.040  66.200  1.00  0.00    -0.155 A  
HETATM   10  C   UNL     1      -8.041  10.323  64.995  1.00  0.00    -0.146 A  
HETATM   11  C   UNL     1      -7.020  11.445  66.866  1.00  0.00    -0.140 A  
HETATM   12  C   UNL     1      -6.775  10.045  64.470  1.00  0.00    -0.128 A  
HETATM   13  C   UNL     1      -5.632  10.466  65.143  1.00  0.00    -0.137 A  
HETATM   14  C   UNL     1      -5.757  11.156  66.348  1.00  0.00    -0.146 A  
ENDBRANCH   8   9
BRANCH   8  15
HETATM   15  C   UNL     1     -10.353  12.326  65.690  1.00  0.00    -0.287 A  
HETATM   16  C   UNL     1     -11.116  14.551  65.048  1.00  0.00    -0.393 A  
HETATM   17  C   UNL     1     -12.115  12.610  64.026  1.00  0.00    -0.542 A  
HETATM   18  C   UNL     1     -10.270  13.728  65.794  1.00  0.00    -0.322 A  
HETATM   19  C   UNL     1     -11.279  11.785  64.780  1.00  0.00    -0.333 A  
HETATM   20  C   UNL     1     -12.043  13.993  64.171  1.00  0.00    -0.456 A  
ENDBRANCH   8  15
ENDBRANCH   5   8
TORSDOF 3
ENDMDL
MODEL       80
REMARK 921   NORMALIZED FREE ENERGY PREDICTED BY IDOCK:   -4.57 KCAL/MOL
REMARK 922        TOTAL FREE ENERGY PREDICTED BY IDOCK:   -5.33 KCAL/MOL
REMARK 923 INTER-LIGAND FREE ENERGY PREDICTED BY IDOCK:   -5.36 KCAL/MOL
REMARK 924 INTRA-LIGAND FREE ENERGY PREDICTED BY IDOCK:    0.03 KCAL/MOL
REMARK 927      BINDING AFFINITY PREDICTED BY RF-SCORE:    0.00 PKD
ROOT
HETATM    1  C   UNL     1     -10.089   4.936  74.444  1.00  0.00    -0.235 C  
HETATM    2  N   UNL     1      -9.458   5.897  73.541  1.00  0.00    -0.138 NA 
HETATM    3  C   UNL     1      -9.411   5.388  72.155  1.00  0.00    -0.143 C  
HETATM    4  C   UNL     1     -10.742   5.484  71.369  1.00  0.00    -0.221 C  
HETATM    5  N   UNL     1     -11.377   6.823  71.370  1.00  0.00    -0.266 NA 
HETATM    6  C   UNL     1     -11.485   7.241  72.793  1.00  0.00    -0.230 C  
HETATM    7  C   UNL     1     -10.153   7.198  73.583  1.00  0.00    -0.346 C  
ENDROOT
BRANCH   5   8
HETATM    8  C   UNL     1     -10.628   7.824  70.541  1.00  0.00    -0.226 C  
BRANCH   8   9
HETATM    9  C   UNL     1     -10.273   7.297  69.138  1.00  0.00    -0.197 A  
HETATM   10  C   UNL     1      -8.922   7.197  68.748  1.00  0.00    -0.128 A  
HETATM   11  C   UNL     1     -11.248   6.821  68.248  1.00  0.00    -0.147 A  
HETATM   12  C   UNL     1      -8.565   6.619  67.525  1.00  0.00    -0.120 A  
HETATM   13  C   UNL     1      -9.549   6.143  66.664  1.00  0.00    -0.181 A  
HETATM   14  C   UNL     1     -10.892   6.256  67.023  1.00  0.00    -0.458 A  
ENDBRANCH   8   9
BRANCH   8  15
HETATM   15  C   UNL     1     -11.356   9.179  70.513  1.00  0.00    -0.300 A  
HETATM   16  C   UNL     1     -11.340  11.535  69.884  1.00  0.00    -0.267 A  
HETATM   17  C   UNL     1     -12.957  10.742  71.486  1.00  0.00    -0.562 A  
HETATM   18  C   UNL     1     -10.829  10.242  69.754  1.00  0.00    -0.332 A  
HETATM   19  C   UNL     1     -12.439   9.452  71.367  1.00  0.00    -0.435 A  
HETATM   20  C   UNL     1     -12.398  11.786  70.755  1.00  0.00    -0.433 A  
ENDBRANCH   8  15
ENDBRANCH   5   8
TORSDOF 3
ENDMDL
MODEL       81
REMARK 921   NORMALIZED FREE ENERGY PREDICTED BY IDOCK:   -4.56 KCAL/MOL
REMARK 922        TOTAL FREE ENERGY PREDICTED BY IDOCK:   -5.32 KCAL/MOL
REMARK 923 INTER-LIGAND FREE ENERGY PREDICTED BY IDOCK:   -4.73 KCAL/MOL
REMARK 924 INTRA-LIGAND FREE ENERGY PREDICTED BY IDOCK:   -0.59 KCAL/MOL
REMARK 927      BINDING AFFINITY PREDICTED BY RF-SCORE:    0.00 PKD
ROOT
HETATM    1  C   UNL     1     -11.859  14.013  67.832  1.00  0.00    -0.376 C  
HETATM    2  N   UNL     1     -10.848  13.226  68.536  1.00  0.00    -0.258 NA 
HETATM    3  C   UNL     1     -11.461  12.318  69.527  1.00  0.00    -0.249 C  
HETATM    4  C   UNL     1     -12.094  11.031  68.942  1.00  0.00    -0.169 C  
HETATM    5  N   UNL     1     -11.210  10.245  68.050  1.00  0.00    -0.278 NA 
HETATM    6  C   UNL     1     -10.699  11.188  67.020  1.00  0.00    -0.268 C  
HETATM    7  C   UNL     1     -10.019  12.459  67.586  1.00  0.00    -0.200 C  
ENDROOT
BRANCH   5   8
HETATM    8  C   UNL     1     -10.100   9.557  68.788  1.00  0.00    -0.188 C  
BRANCH   8   9
HETATM    9  C   UNL     1     -10.590   8.786  70.028  1.00  0.00    -0.232 A  
HETATM   10  C   UNL     1     -11.274   7.564  69.867  1.00  0.00    -0.124 A  
HETATM   11  C   UNL     1     -10.303   9.208  71.334  1.00  0.00    -0.409 A  
HETATM   12  C   UNL     1     -11.634   6.787  70.974  1.00  0.00    -0.388 A  
HETATM   13  C   UNL     1     -11.327   7.221  72.260  1.00  0.00    -0.310 A  
HETATM   14  C   UNL     1     -10.672   8.439  72.439  1.00  0.00    -0.405 A  
ENDBRANCH   8   9
BRANCH   8  15
HETATM   15  C   UNL     1      -9.248   8.698  67.838  1.00  0.00    -0.148 A  
HETATM   16  C   UNL     1      -9.157   7.049  66.045  1.00  0.00    -0.105 A  
HETATM   17  C   UNL     1      -7.181   7.497  67.350  1.00  0.00    -0.087 A  
HETATM   18  C   UNL     1      -9.864   8.001  66.781  1.00  0.00    -0.327 A  
HETATM   19  C   UNL     1      -7.890   8.440  68.096  1.00  0.00    -0.111 A  
HETATM   20  C   UNL     1      -7.819   6.791  66.334  1.00  0.00    -0.104 A  
ENDBRANCH   8  15
ENDBRANCH   5   8
TORSDOF 3
ENDMDL
MODEL       82
REMARK 921   NORMALIZED FREE ENERGY PREDICTED BY IDOCK:   -4.53 KCAL/MOL
REMARK 922        TOTAL FREE ENERGY PREDICTED BY IDOCK:   -5.29 KCAL/MOL
REMARK 923 INTER-LIGAND FREE ENERGY PREDICTED BY IDOCK:   -4.79 KCAL/MOL
REMARK 924 INTRA-LIGAND FREE ENERGY PREDICTED BY IDOCK:   -0.51 KCAL/MOL
REMARK 927      BINDING AFFINITY PREDICTED BY RF-SCORE:    0.00 PKD
ROOT
HETATM    1  C   UNL     1      -5.724  14.951  69.242  1.00  0.00    -0.097 C  
HETATM    2  N   UNL     1      -6.149  14.392  67.959  1.00  0.00    -0.139 NA 
HETATM    3  C   UNL     1      -6.360  12.932  68.048  1.00  0.00    -0.109 C  
HETATM    4  C   UNL     1      -7.690  12.495  68.710  1.00  0.00     0.003 C  
HETATM    5  N   UNL     1      -8.908  13.126  68.150  1.00  0.00    -0.191 NA 
HETATM    6  C   UNL     1      -8.676  14.594  68.175  1.00  0.00    -0.168 C  
HETATM    7  C   UNL     1      -7.374  15.055  67.474  1.00  0.00    -0.202 C  
ENDROOT
BRANCH   5   8
HETATM    8  C   UNL     1      -9.243  12.628  66.775  1.00  0.00    -0.225 C  
BRANCH   8   9
HETATM    9  C   UNL     1      -9.483  11.107  66.729  1.00  0.00    -0.203 A  
HETATM   10  C   UNL     1     -10.218  10.482  67.757  1.00  0.00    -0.223 A  
HETATM   11  C   UNL     1      -9.072  10.317  65.645  1.00  0.00    -0.208 A  
HETATM   12  C   UNL     1     -10.547   9.124  67.686  1.00  0.00    -0.307 A  
HETATM   13  C   UNL     1     -10.138   8.363  66.595  1.00  0.00    -0.358 A  
HETATM   14  C   UNL     1      -9.390   8.959  65.581  1.00  0.00    -0.259 A  
ENDBRANCH   8   9
BRANCH   8  15
HETATM   15  C   UNL     1     -10.389  13.442  66.152  1.00  0.00    -0.295 A  
HETATM   16  C   UNL     1     -12.784  13.719  65.788  1.00  0.00    -0.494 A  
HETATM   17  C   UNL     1     -11.223  14.930  64.408  1.00  0.00    -0.171 A  
HETATM   18  C   UNL     1     -11.723  13.151  66.496  1.00  0.00    -0.433 A  
HETATM   19  C   UNL     1     -10.161  14.354  65.106  1.00  0.00    -0.420 A  
HETATM   20  C   UNL     1     -12.535  14.601  64.739  1.00  0.00    -0.286 A  
ENDBRANCH   8  15
ENDBRANCH   5   8
TORSDOF 3
ENDMDL
MODEL       83
REMARK 921   NORMALIZED FREE ENERGY PREDICTED BY IDOCK:   -4.53 KCAL/MOL
REMARK 922        TOTAL FREE ENERGY PREDICTED BY IDOCK:   -5.29 KCAL/MOL
REMARK 923 INTER-LIGAND FREE ENERGY PREDICTED BY IDOCK:   -4.71 KCAL/MOL
REMARK 924 INTRA-LIGAND FREE ENERGY PREDICTED BY IDOCK:   -0.58 KCAL/MOL
REMARK 927      BINDING AFFINITY PREDICTED BY RF-SCORE:    0.00 PKD
ROOT
HETATM    1  C   UNL     1      -8.741   8.358  66.050  1.00  0.00    -0.157 C  
HETATM    2  N   UNL     1      -8.926   9.046  67.326  1.00  0.00    -0.126 NA 
HETATM    3  C   UNL     1     -10.341   9.028  67.752  1.00  0.00    -0.246 C  
HETATM    4  C   UNL     1     -10.829   7.694  68.370  1.00  0.00     0.044 C  
HETATM    5  N   UNL     1      -9.988   7.167  69.469  1.00  0.00    -0.162 NA 
HETATM    6  C   UNL     1      -8.594   7.117  68.953  1.00  0.00    -0.129 C  
HETATM    7  C   UNL     1      -8.071   8.455  68.374  1.00  0.00    -0.123 C  
ENDROOT
BRANCH   5   8
HETATM    8  C   UNL     1     -10.097   7.976  70.728  1.00  0.00    -0.192 C  
BRANCH   8   9
HETATM    9  C   UNL     1     -11.551   8.149  71.206  1.00  0.00    -0.305 A  
HETATM   10  C   UNL     1     -11.982   9.397  71.700  1.00  0.00    -0.465 A  
HETATM   11  C   UNL     1     -12.505   7.128  71.088  1.00  0.00    -0.400 A  
HETATM   12  C   UNL     1     -13.322   9.616  72.038  1.00  0.00    -0.547 A  
HETATM   13  C   UNL     1     -14.252   8.591  71.900  1.00  0.00    -0.536 A  
HETATM   14  C   UNL     1     -13.839   7.343  71.436  1.00  0.00    -0.436 A  
ENDBRANCH   8   9
BRANCH   8  15
HETATM   15  C   UNL     1      -9.159   7.435  71.821  1.00  0.00    -0.143 A  
HETATM   16  C   UNL     1      -8.547   5.612  73.319  1.00  0.00    -0.116 A  
HETATM   17  C   UNL     1      -7.675   7.823  73.717  1.00  0.00    -0.193 A  
HETATM   18  C   UNL     1      -9.223   6.078  72.190  1.00  0.00    -0.148 A  
HETATM   19  C   UNL     1      -8.360   8.294  72.596  1.00  0.00    -0.235 A  
HETATM   20  C   UNL     1      -7.780   6.485  74.087  1.00  0.00    -0.097 A  
ENDBRANCH   8  15
ENDBRANCH   5   8
TORSDOF 3
ENDMDL
MODEL       84
REMARK 921   NORMALIZED FREE ENERGY PREDICTED BY IDOCK:   -4.53 KCAL/MOL
REMARK 922        TOTAL FREE ENERGY PREDICTED BY IDOCK:   -5.29 KCAL/MOL
REMARK 923 INTER-LIGAND FREE ENERGY PREDICTED BY IDOCK:   -5.12 KCAL/MOL
REMARK 924 INTRA-LIGAND FREE ENERGY PREDICTED BY IDOCK:   -0.17 KCAL/MOL
REMARK 927      BINDING AFFINITY PREDICTED BY RF-SCORE:    0.00 PKD
ROOT
HETATM    1  C   UNL     1      -9.975  12.455  66.265  1.00  0.00    -0.246 C  
HETATM    2  N   UNL     1     -10.815  11.287  66.524  1.00  0.00    -0.277 NA 
HETATM    3  C   UNL     1     -10.137  10.034  66.132  1.00  0.00    -0.247 C  
HETATM    4  C   UNL     1      -9.068   9.520  67.128  1.00  0.00    -0.134 C  
HETATM    5  N   UNL     1      -9.523   9.403  68.533  1.00  0.00    -0.145 NA 
HETATM    6  C   UNL     1     -10.108  10.719  68.902  1.00  0.00    -0.205 C  
HETATM    7  C   UNL     1     -11.214  11.227  67.944  1.00  0.00    -0.290 C  
ENDROOT
BRANCH   5   8
HETATM    8  C   UNL     1     -10.491   8.275  68.740  1.00  0.00    -0.177 C  
BRANCH   8   9
HETATM    9  C   UNL     1     -10.088   6.992  67.987  1.00  0.00    -0.199 A  
HETATM   10  C   UNL     1      -8.868   6.356  68.291  1.00  0.00    -0.115 A  
HETATM   11  C   UNL     1     -10.938   6.370  67.061  1.00  0.00    -0.463 A  
HETATM   12  C   UNL     1      -8.527   5.132  67.705  1.00  0.00    -0.105 A  
HETATM   13  C   UNL     1      -9.392   4.528  66.797  1.00  0.00    -0.159 A  
HETATM   14  C   UNL     1     -10.593   5.155  66.467  1.00  0.00    -0.320 A  
ENDBRANCH   8   9
BRANCH   8  15
HETATM   15  C   UNL     1     -10.761   8.040  70.236  1.00  0.00    -0.239 A  
HETATM   16  C   UNL     1     -10.196   8.543  72.554  1.00  0.00    -0.323 A  
HETATM   17  C   UNL     1     -11.523   6.596  72.048  1.00  0.00    -0.329 A  
HETATM   18  C   UNL     1     -10.145   8.866  71.197  1.00  0.00    -0.341 A  
HETATM   19  C   UNL     1     -11.463   6.910  70.690  1.00  0.00    -0.383 A  
HETATM   20  C   UNL     1     -10.877   7.405  72.979  1.00  0.00    -0.423 A  
ENDBRANCH   8  15
ENDBRANCH   5   8
TORSDOF 3
ENDMDL
MODEL       85
REMARK 921   NORMALIZED FREE ENERGY PREDICTED BY IDOCK:   -4.52 KCAL/MOL
REMARK 922        TOTAL FREE ENERGY PREDICTED BY IDOCK:   -5.28 KCAL/MOL
REMARK 923 INTER-LIGAND FREE ENERGY PREDICTED BY IDOCK:   -5.38 KCAL/MOL
REMARK 924 INTRA-LIGAND FREE ENERGY PREDICTED BY IDOCK:    0.09 KCAL/MOL
REMARK 927      BINDING AFFINITY PREDICTED BY RF-SCORE:    0.00 PKD
ROOT
HETATM    1  C   UNL     1      -8.810  10.341  64.685  1.00  0.00    -0.199 C  
HETATM    2  N   UNL     1      -8.567  10.495  66.119  1.00  0.00    -0.145 NA 
HETATM    3  C   UNL     1      -9.487  11.483  66.721  1.00  0.00    -0.189 C  
HETATM    4  C   UNL     1     -10.923  10.970  66.992  1.00  0.00    -0.272 C  
HETATM    5  N   UNL     1     -11.005   9.705  67.758  1.00  0.00    -0.218 NA 
HETATM    6  C   UNL     1     -10.138   8.724  67.053  1.00  0.00    -0.265 C  
HETATM    7  C   UNL     1      -8.683   9.200  66.816  1.00  0.00    -0.127 C  
ENDROOT
BRANCH   5   8
HETATM    8  C   UNL     1     -10.619   9.870  69.199  1.00  0.00    -0.220 C  
BRANCH   8   9
HETATM    9  C   UNL     1     -11.550  10.829  69.964  1.00  0.00    -0.417 A  
HETATM   10  C   UNL     1     -12.375  10.331  70.994  1.00  0.00    -0.483 A  
HETATM   11  C   UNL     1     -11.548  12.213  69.739  1.00  0.00    -0.334 A  
HETATM   12  C   UNL     1     -13.148  11.193  71.779  1.00  0.00    -0.536 A  
HETATM   13  C   UNL     1     -13.120  12.564  71.544  1.00  0.00    -0.373 A  
HETATM   14  C   UNL     1     -12.329  13.072  70.514  1.00  0.00    -0.365 A  
ENDBRANCH   8   9
BRANCH   8  15
HETATM   15  C   UNL     1     -10.453   8.505  69.890  1.00  0.00    -0.219 A  
HETATM   16  C   UNL     1      -9.058   6.997  71.203  1.00  0.00    -0.153 A  
HETATM   17  C   UNL     1     -10.978   6.127  70.033  1.00  0.00    -0.441 A  
HETATM   18  C   UNL     1      -9.353   8.281  70.741  1.00  0.00    -0.183 A  
HETATM   19  C   UNL     1     -11.267   7.408  69.559  1.00  0.00    -0.015 A  
HETATM   20  C   UNL     1      -9.865   5.919  70.843  1.00  0.00    -0.224 A  
ENDBRANCH   8  15
ENDBRANCH   5   8
TORSDOF 3
ENDMDL
MODEL       86
REMARK 921   NORMALIZED FREE ENERGY PREDICTED BY IDOCK:   -4.52 KCAL/MOL
REMARK 922        TOTAL FREE ENERGY PREDICTED BY IDOCK:   -5.28 KCAL/MOL
REMARK 923 INTER-LIGAND FREE ENERGY PREDICTED BY IDOCK:   -4.93 KCAL/MOL
REMARK 924 INTRA-LIGAND FREE ENERGY PREDICTED BY IDOCK:   -0.36 KCAL/MOL
REMARK 927      BINDING AFFINITY PREDICTED BY RF-SCORE:    0.00 PKD
ROOT
HETATM    1  C   UNL     1      -9.945  12.799  66.660  1.00  0.00    -0.245 C  
HETATM    2  N   UNL     1      -9.840  12.538  68.094  1.00  0.00    -0.217 NA 
HETATM    3  C   UNL     1     -11.114  12.035  68.649  1.00  0.00    -0.250 C  
HETATM    4  C   UNL     1     -11.411  10.540  68.371  1.00  0.00    -0.214 C  
HETATM    5  N   UNL     1     -10.323   9.605  68.737  1.00  0.00    -0.206 NA 
HETATM    6  C   UNL     1      -9.089  10.107  68.075  1.00  0.00    -0.131 C  
HETATM    7  C   UNL     1      -8.749  11.587  68.380  1.00  0.00    -0.160 C  
ENDROOT
BRANCH   5   8
HETATM    8  C   UNL     1     -10.151   9.461  70.221  1.00  0.00    -0.240 C  
BRANCH   8   9
HETATM    9  C   UNL     1     -11.466   9.124  70.948  1.00  0.00    -0.357 A  
HETATM   10  C   UNL     1     -12.232  10.157  71.525  1.00  0.00    -0.473 A  
HETATM   11  C   UNL     1     -11.988   7.823  70.986  1.00  0.00    -0.281 A  
HETATM   12  C   UNL     1     -13.483   9.896  72.095  1.00  0.00    -0.454 A  
HETATM   13  C   UNL     1     -13.986   8.598  72.110  1.00  0.00    -0.496 A  
HETATM   14  C   UNL     1     -13.231   7.560  71.565  1.00  0.00    -0.404 A  
ENDBRANCH   8   9
BRANCH   8  15
HETATM   15  C   UNL     1      -9.006   8.491  70.558  1.00  0.00    -0.171 A  
HETATM   16  C   UNL     1      -7.882   6.371  70.125  1.00  0.00    -0.107 A  
HETATM   17  C   UNL     1      -7.414   7.571  72.161  1.00  0.00    -0.080 A  
HETATM   18  C   UNL     1      -8.762   7.380  69.728  1.00  0.00    -0.141 A  
HETATM   19  C   UNL     1      -8.302   8.574  71.773  1.00  0.00    -0.221 A  
HETATM   20  C   UNL     1      -7.214   6.462  71.344  1.00  0.00    -0.079 A  
ENDBRANCH   8  15
ENDBRANCH   5   8
TORSDOF 3
ENDMDL
MODEL       87
REMARK 921   NORMALIZED FREE ENERGY PREDICTED BY IDOCK:   -4.48 KCAL/MOL
REMARK 922        TOTAL FREE ENERGY PREDICTED BY IDOCK:   -5.23 KCAL/MOL
REMARK 923 INTER-LIGAND FREE ENERGY PREDICTED BY IDOCK:   -4.63 KCAL/MOL
REMARK 924 INTRA-LIGAND FREE ENERGY PREDICTED BY IDOCK:   -0.60 KCAL/MOL
REMARK 927      BINDING AFFINITY PREDICTED BY RF-SCORE:    0.00 PKD
ROOT
HETATM    1  C   UNL     1      -5.731  11.992  69.545  1.00  0.00    -0.085 C  
HETATM    2  N   UNL     1      -7.156  11.692  69.410  1.00  0.00    -0.058 NA 
HETATM    3  C   UNL     1      -7.722  12.292  68.185  1.00  0.00    -0.138 C  
HETATM    4  C   UNL     1      -7.410  11.532  66.871  1.00  0.00    -0.140 C  
HETATM    5  N   UNL     1      -7.728  10.086  66.892  1.00  0.00    -0.095 NA 
HETATM    6  C   UNL     1      -7.054   9.519  68.090  1.00  0.00    -0.079 C  
HETATM    7  C   UNL     1      -7.392  10.235  69.421  1.00  0.00    -0.115 C  
ENDROOT
BRANCH   5   8
HETATM    8  C   UNL     1      -9.203   9.812  66.888  1.00  0.00    -0.147 C  
BRANCH   8   9
HETATM    9  C   UNL     1      -9.964  10.631  65.829  1.00  0.00    -0.315 A  
HETATM   10  C   UNL     1      -9.776  10.353  64.460  1.00  0.00    -0.393 A  
HETATM   11  C   UNL     1     -10.918  11.600  66.174  1.00  0.00    -0.339 A  
HETATM   12  C   UNL     1     -10.534  11.003  63.480  1.00  0.00    -0.365 A  
HETATM   13  C   UNL     1     -11.483  11.952  63.848  1.00  0.00    -0.511 A  
HETATM   14  C   UNL     1     -11.666  12.257  65.196  1.00  0.00    -0.414 A  
ENDBRANCH   8   9
BRANCH   8  15
HETATM   15  C   UNL     1      -9.489   8.303  66.808  1.00  0.00    -0.256 A  
HETATM   16  C   UNL     1      -8.945   6.132  65.840  1.00  0.00    -0.133 A  
HETATM   17  C   UNL     1     -11.044   6.431  66.986  1.00  0.00    -0.405 A  
HETATM   18  C   UNL     1      -8.601   7.457  66.116  1.00  0.00    -0.154 A  
HETATM   19  C   UNL     1     -10.708   7.760  67.251  1.00  0.00    -0.326 A  
HETATM   20  C   UNL     1     -10.168   5.622  66.268  1.00  0.00    -0.163 A  
ENDBRANCH   8  15
ENDBRANCH   5   8
TORSDOF 3
ENDMDL
MODEL       88
REMARK 921   NORMALIZED FREE ENERGY PREDICTED BY IDOCK:   -4.46 KCAL/MOL
REMARK 922        TOTAL FREE ENERGY PREDICTED BY IDOCK:   -5.21 KCAL/MOL
REMARK 923 INTER-LIGAND FREE ENERGY PREDICTED BY IDOCK:   -4.59 KCAL/MOL
REMARK 924 INTRA-LIGAND FREE ENERGY PREDICTED BY IDOCK:   -0.62 KCAL/MOL
REMARK 927      BINDING AFFINITY PREDICTED BY RF-SCORE:    0.00 PKD
ROOT
HETATM    1  C   UNL     1      -5.972  11.842  66.943  1.00  0.00    -0.140 C  
HETATM    2  N   UNL     1      -7.354  11.418  66.727  1.00  0.00    -0.146 NA 
HETATM    3  C   UNL     1      -7.436   9.978  66.407  1.00  0.00    -0.104 C  
HETATM    4  C   UNL     1      -7.304   9.022  67.619  1.00  0.00    -0.084 C  
HETATM    5  N   UNL     1      -8.210   9.317  68.753  1.00  0.00    -0.111 NA 
HETATM    6  C   UNL     1      -8.015  10.751  69.093  1.00  0.00    -0.134 C  
HETATM    7  C   UNL     1      -8.191  11.727  67.903  1.00  0.00    -0.147 C  
ENDROOT
BRANCH   5   8
HETATM    8  C   UNL     1      -9.644   8.996  68.453  1.00  0.00    -0.152 C  
BRANCH   8   9
HETATM    9  C   UNL     1      -9.872   7.508  68.126  1.00  0.00    -0.179 A  
HETATM   10  C   UNL     1     -10.620   7.148  66.987  1.00  0.00    -0.413 A  
HETATM   11  C   UNL     1      -9.282   6.479  68.874  1.00  0.00    -0.129 A  
HETATM   12  C   UNL     1     -10.749   5.809  66.602  1.00  0.00    -0.333 A  
HETATM   13  C   UNL     1     -10.146   4.805  67.355  1.00  0.00    -0.177 A  
HETATM   14  C   UNL     1      -9.422   5.142  68.498  1.00  0.00    -0.175 A  
ENDBRANCH   8   9
BRANCH   8  15
HETATM   15  C   UNL     1     -10.577   9.523  69.557  1.00  0.00    -0.238 A  
HETATM   16  C   UNL     1     -11.551   9.225  71.772  1.00  0.00    -0.458 A  
HETATM   17  C   UNL     1     -12.542  10.798  70.238  1.00  0.00    -0.350 A  
HETATM   18  C   UNL     1     -10.570   8.916  70.828  1.00  0.00    -0.281 A  
HETATM   19  C   UNL     1     -11.570  10.481  69.288  1.00  0.00    -0.308 A  
HETATM   20  C   UNL     1     -12.541  10.160  71.475  1.00  0.00    -0.537 A  
ENDBRANCH   8  15
ENDBRANCH   5   8
TORSDOF 3
ENDMDL
MODEL       89
REMARK 921   NORMALIZED FREE ENERGY PREDICTED BY IDOCK:   -4.46 KCAL/MOL
REMARK 922        TOTAL FREE ENERGY PREDICTED BY IDOCK:   -5.21 KCAL/MOL
REMARK 923 INTER-LIGAND FREE ENERGY PREDICTED BY IDOCK:   -5.31 KCAL/MOL
REMARK 924 INTRA-LIGAND FREE ENERGY PREDICTED BY IDOCK:    0.10 KCAL/MOL
REMARK 927      BINDING AFFINITY PREDICTED BY RF-SCORE:    0.00 PKD
ROOT
HETATM    1  C   UNL     1     -13.944  15.948  73.138  1.00  0.00    -0.152 C  
HETATM    2  N   UNL     1     -13.815  15.805  71.689  1.00  0.00    -0.432 NA 
HETATM    3  C   UNL     1     -12.435  16.083  71.237  1.00  0.00    -0.258 C  
HETATM    4  C   UNL     1     -11.420  14.937  71.468  1.00  0.00    -0.247 C  
HETATM    5  N   UNL     1     -11.839  13.613  70.951  1.00  0.00    -0.134 NA 
HETATM    6  C   UNL     1     -13.189  13.344  71.514  1.00  0.00    -0.312 C  
HETATM    7  C   UNL     1     -14.232  14.459  71.251  1.00  0.00    -0.172 C  
ENDROOT
BRANCH   5   8
HETATM    8  C   UNL     1     -11.824  13.540  69.453  1.00  0.00    -0.335 C  
BRANCH   8   9
HETATM    9  C   UNL     1     -10.925  14.611  68.807  1.00  0.00    -0.268 A  
HETATM   10  C   UNL     1     -11.503  15.637  68.031  1.00  0.00    -0.294 A  
HETATM   11  C   UNL     1      -9.542  14.663  69.035  1.00  0.00    -0.145 A  
HETATM   12  C   UNL     1     -10.725  16.684  67.526  1.00  0.00    -0.278 A  
HETATM   13  C   UNL     1      -9.357  16.720  67.774  1.00  0.00    -0.233 A  
HETATM   14  C   UNL     1      -8.764  15.702  68.520  1.00  0.00    -0.182 A  
ENDBRANCH   8   9
BRANCH   8  15
HETATM   15  C   UNL     1     -11.513  12.114  68.967  1.00  0.00    -0.351 A  
HETATM   16  C   UNL     1     -10.764   9.855  69.496  1.00  0.00    -0.265 A  
HETATM   17  C   UNL     1     -10.808  10.587  67.200  1.00  0.00    -0.319 A  
HETATM   18  C   UNL     1     -11.261  11.094  69.905  1.00  0.00    -0.293 A  
HETATM   19  C   UNL     1     -11.293  11.831  67.608  1.00  0.00    -0.370 A  
HETATM   20  C   UNL     1     -10.530   9.604  68.146  1.00  0.00    -0.266 A  
ENDBRANCH   8  15
ENDBRANCH   5   8
TORSDOF 3
ENDMDL
MODEL       90
REMARK 921   NORMALIZED FREE ENERGY PREDICTED BY IDOCK:   -4.45 KCAL/MOL
REMARK 922        TOTAL FREE ENERGY PREDICTED BY IDOCK:   -5.19 KCAL/MOL
REMARK 923 INTER-LIGAND FREE ENERGY PREDICTED BY IDOCK:   -4.65 KCAL/MOL
REMARK 924 INTRA-LIGAND FREE ENERGY PREDICTED BY IDOCK:   -0.54 KCAL/MOL
REMARK 927      BINDING AFFINITY PREDICTED BY RF-SCORE:    0.00 PKD
ROOT
HETATM    1  C   UNL     1     -10.299   7.481  69.801  1.00  0.00    -0.221 C  
HETATM    2  N   UNL     1      -9.340   8.380  69.161  1.00  0.00    -0.151 NA 
HETATM    3  C   UNL     1      -9.151   8.043  67.735  1.00  0.00    -0.131 C  
HETATM    4  C   UNL     1     -10.277   8.526  66.786  1.00  0.00    -0.300 C  
HETATM    5  N   UNL     1     -10.624   9.961  66.902  1.00  0.00    -0.209 NA 
HETATM    6  C   UNL     1     -10.896  10.219  68.341  1.00  0.00    -0.245 C  
HETATM    7  C   UNL     1      -9.760   9.788  69.301  1.00  0.00    -0.196 C  
ENDROOT
BRANCH   5   8
HETATM    8  C   UNL     1      -9.558  10.865  66.356  1.00  0.00    -0.197 C  
BRANCH   8   9
HETATM    9  C   UNL     1      -8.991  10.380  65.009  1.00  0.00    -0.221 A  
HETATM   10  C   UNL     1      -7.664   9.909  64.936  1.00  0.00    -0.134 A  
HETATM   11  C   UNL     1      -9.777  10.302  63.850  1.00  0.00    -0.325 A  
HETATM   12  C   UNL     1      -7.157   9.360  63.753  1.00  0.00    -0.098 A  
HETATM   13  C   UNL     1      -7.961   9.283  62.619  1.00  0.00    -0.129 A  
HETATM   14  C   UNL     1      -9.268   9.766  62.666  1.00  0.00    -0.268 A  
ENDBRANCH   8   9
BRANCH   8  15
HETATM   15  C   UNL     1     -10.030  12.328  66.324  1.00  0.00    -0.249 A  
HETATM   16  C   UNL     1      -9.739  14.624  67.090  1.00  0.00    -0.235 A  
HETATM   17  C   UNL     1     -11.814  13.970  66.053  1.00  0.00    -0.401 A  
HETATM   18  C   UNL     1      -9.238  13.334  66.910  1.00  0.00    -0.242 A  
HETATM   19  C   UNL     1     -11.320  12.676  65.884  1.00  0.00    -0.373 A  
HETATM   20  C   UNL     1     -11.029  14.941  66.669  1.00  0.00    -0.325 A  
ENDBRANCH   8  15
ENDBRANCH   5   8
TORSDOF 3
ENDMDL
MODEL       91
REMARK 921   NORMALIZED FREE ENERGY PREDICTED BY IDOCK:   -4.42 KCAL/MOL
REMARK 922        TOTAL FREE ENERGY PREDICTED BY IDOCK:   -5.16 KCAL/MOL
REMARK 923 INTER-LIGAND FREE ENERGY PREDICTED BY IDOCK:   -4.80 KCAL/MOL
REMARK 924 INTRA-LIGAND FREE ENERGY PREDICTED BY IDOCK:   -0.36 KCAL/MOL
REMARK 927      BINDING AFFINITY PREDICTED BY RF-SCORE:    0.00 PKD
ROOT
HETATM    1  C   UNL     1      -8.761   5.138  66.390  1.00  0.00    -0.113 C  
HETATM    2  N   UNL     1      -8.318   6.203  67.288  1.00  0.00    -0.106 NA 
HETATM    3  C   UNL     1      -8.546   7.539  66.698  1.00  0.00    -0.130 C  
HETATM    4  C   UNL     1     -10.005   8.052  66.764  1.00  0.00    -0.274 C  
HETATM    5  N   UNL     1     -10.627   8.006  68.108  1.00  0.00    -0.162 NA 
HETATM    6  C   UNL     1     -10.453   6.617  68.611  1.00  0.00    -0.211 C  
HETATM    7  C   UNL     1      -8.991   6.104  68.597  1.00  0.00    -0.126 C  
ENDROOT
BRANCH   5   8
HETATM    8  C   UNL     1     -10.056   9.025  69.050  1.00  0.00    -0.195 C  
BRANCH   8   9
HETATM    9  C   UNL     1     -10.361  10.474  68.624  1.00  0.00    -0.201 A  
HETATM   10  C   UNL     1     -11.677  10.969  68.717  1.00  0.00    -0.383 A  
HETATM   11  C   UNL     1      -9.353  11.364  68.225  1.00  0.00    -0.187 A  
HETATM   12  C   UNL     1     -11.965  12.311  68.443  1.00  0.00    -0.266 A  
HETATM   13  C   UNL     1     -10.946  13.178  68.060  1.00  0.00    -0.270 A  
HETATM   14  C   UNL     1      -9.642  12.700  67.940  1.00  0.00    -0.211 A  
ENDBRANCH   8   9
BRANCH   8  15
HETATM   15  C   UNL     1     -10.455   8.724  70.505  1.00  0.00    -0.246 A  
HETATM   16  C   UNL     1      -9.778   8.058  72.750  1.00  0.00    -0.348 A  
HETATM   17  C   UNL     1     -12.106   7.967  72.133  1.00  0.00    -0.391 A  
HETATM   18  C   UNL     1      -9.457   8.545  71.482  1.00  0.00    -0.290 A  
HETATM   19  C   UNL     1     -11.786   8.442  70.861  1.00  0.00    -0.269 A  
HETATM   20  C   UNL     1     -11.100   7.762  73.073  1.00  0.00    -0.419 A  
ENDBRANCH   8  15
ENDBRANCH   5   8
TORSDOF 3
ENDMDL
MODEL       92
REMARK 921   NORMALIZED FREE ENERGY PREDICTED BY IDOCK:   -4.38 KCAL/MOL
REMARK 922        TOTAL FREE ENERGY PREDICTED BY IDOCK:   -5.12 KCAL/MOL
REMARK 923 INTER-LIGAND FREE ENERGY PREDICTED BY IDOCK:   -4.63 KCAL/MOL
REMARK 924 INTRA-LIGAND FREE ENERGY PREDICTED BY IDOCK:   -0.48 KCAL/MOL
REMARK 927      BINDING AFFINITY PREDICTED BY RF-SCORE:    0.00 PKD
ROOT
HETATM    1  C   UNL     1      -8.427   6.320  67.608  1.00  0.00    -0.116 C  
HETATM    2  N   UNL     1      -8.031   7.455  66.775  1.00  0.00    -0.112 NA 
HETATM    3  C   UNL     1      -9.147   7.919  65.926  1.00  0.00    -0.087 C  
HETATM    4  C   UNL     1     -10.211   8.784  66.646  1.00  0.00    -0.270 C  
HETATM    5  N   UNL     1      -9.675   9.935  67.408  1.00  0.00    -0.157 NA 
HETATM    6  C   UNL     1      -8.625   9.394  68.313  1.00  0.00    -0.120 C  
HETATM    7  C   UNL     1      -7.524   8.567  67.603  1.00  0.00    -0.094 C  
ENDROOT
BRANCH   5   8
HETATM    8  C   UNL     1      -9.152  11.028  66.524  1.00  0.00    -0.173 C  
BRANCH   8   9
HETATM    9  C   UNL     1     -10.236  11.635  65.614  1.00  0.00    -0.284 A  
HETATM   10  C   UNL     1     -10.088  11.577  64.213  1.00  0.00    -0.338 A  
HETATM   11  C   UNL     1     -11.427  12.172  66.124  1.00  0.00    -0.429 A  
HETATM   12  C   UNL     1     -11.105  12.020  63.361  1.00  0.00    -0.476 A  
HETATM   13  C   UNL     1     -12.283  12.538  63.890  1.00  0.00    -0.590 A  
HETATM   14  C   UNL     1     -12.437  12.625  65.273  1.00  0.00    -0.483 A  
ENDBRANCH   8   9
BRANCH   8  15
HETATM   15  C   UNL     1      -8.383  12.084  67.337  1.00  0.00    -0.171 A  
HETATM   16  C   UNL     1      -8.434  14.130  68.661  1.00  0.00    -0.120 A  
HETATM   17  C   UNL     1      -6.336  13.332  67.785  1.00  0.00    -0.161 A  
HETATM   18  C   UNL     1      -9.091  13.036  68.096  1.00  0.00    -0.204 A  
HETATM   19  C   UNL     1      -6.992  12.245  67.208  1.00  0.00    -0.142 A  
HETATM   20  C   UNL     1      -7.059  14.283  68.500  1.00  0.00    -0.105 A  
ENDBRANCH   8  15
ENDBRANCH   5   8
TORSDOF 3
ENDMDL
MODEL       93
REMARK 921   NORMALIZED FREE ENERGY PREDICTED BY IDOCK:   -4.37 KCAL/MOL
REMARK 922        TOTAL FREE ENERGY PREDICTED BY IDOCK:   -5.10 KCAL/MOL
REMARK 923 INTER-LIGAND FREE ENERGY PREDICTED BY IDOCK:   -4.68 KCAL/MOL
REMARK 924 INTRA-LIGAND FREE ENERGY PREDICTED BY IDOCK:   -0.42 KCAL/MOL
REMARK 927      BINDING AFFINITY PREDICTED BY RF-SCORE:    0.00 PKD
ROOT
HETATM    1  C   UNL     1      -7.389   7.571  66.664  1.00  0.00    -0.091 C  
HETATM    2  N   UNL     1      -8.524   6.792  67.154  1.00  0.00    -0.120 NA 
HETATM    3  C   UNL     1      -8.153   5.971  68.326  1.00  0.00    -0.110 C  
HETATM    4  C   UNL     1      -8.065   6.738  69.669  1.00  0.00    -0.126 C  
HETATM    5  N   UNL     1      -9.255   7.551  70.008  1.00  0.00    -0.151 NA 
HETATM    6  C   UNL     1      -9.524   8.422  68.833  1.00  0.00    -0.147 C  
HETATM    7  C   UNL     1      -9.663   7.669  67.487  1.00  0.00    -0.156 C  
ENDROOT
BRANCH   5   8
HETATM    8  C   UNL     1     -10.446   6.716  70.378  1.00  0.00    -0.211 C  
BRANCH   8   9
HETATM    9  C   UNL     1     -10.097   5.564  71.338  1.00  0.00    -0.258 A  
HETATM   10  C   UNL     1      -9.876   5.833  72.704  1.00  0.00    -0.183 A  
HETATM   11  C   UNL     1     -10.077   4.224  70.924  1.00  0.00    -0.161 A  
HETATM   12  C   UNL     1      -9.667   4.796  73.619  1.00  0.00    -0.154 A  
HETATM   13  C   UNL     1      -9.663   3.474  73.186  1.00  0.00    -0.165 A  
HETATM   14  C   UNL     1      -9.856   3.190  71.835  1.00  0.00    -0.238 A  
ENDBRANCH   8   9
BRANCH   8  15
HETATM   15  C   UNL     1     -11.607   7.593  70.879  1.00  0.00    -0.299 A  
HETATM   16  C   UNL     1     -12.341   9.658  71.946  1.00  0.00    -0.437 A  
HETATM   17  C   UNL     1     -13.870   7.804  71.764  1.00  0.00    -0.440 A  
HETATM   18  C   UNL     1     -11.359   8.918  71.286  1.00  0.00    -0.371 A  
HETATM   19  C   UNL     1     -12.885   7.058  71.116  1.00  0.00    -0.328 A  
HETATM   20  C   UNL     1     -13.594   9.099  72.192  1.00  0.00    -0.534 A  
ENDBRANCH   8  15
ENDBRANCH   5   8
TORSDOF 3
ENDMDL
MODEL       94
REMARK 921   NORMALIZED FREE ENERGY PREDICTED BY IDOCK:   -4.36 KCAL/MOL
REMARK 922        TOTAL FREE ENERGY PREDICTED BY IDOCK:   -5.09 KCAL/MOL
REMARK 923 INTER-LIGAND FREE ENERGY PREDICTED BY IDOCK:   -4.48 KCAL/MOL
REMARK 924 INTRA-LIGAND FREE ENERGY PREDICTED BY IDOCK:   -0.61 KCAL/MOL
REMARK 927      BINDING AFFINITY PREDICTED BY RF-SCORE:    0.00 PKD
ROOT
HETATM    1  C   UNL     1      -7.554  17.152  68.934  1.00  0.00    -0.234 C  
HETATM    2  N   UNL     1      -8.794  16.386  68.818  1.00  0.00    -0.236 NA 
HETATM    3  C   UNL     1      -9.199  16.221  67.407  1.00  0.00    -0.211 C  
HETATM    4  C   UNL     1      -8.424  15.137  66.618  1.00  0.00    -0.195 C  
HETATM    5  N   UNL     1      -8.374  13.805  67.264  1.00  0.00    -0.186 NA 
HETATM    6  C   UNL     1      -7.869  14.021  68.646  1.00  0.00    -0.130 C  
HETATM    7  C   UNL     1      -8.663  15.067  69.468  1.00  0.00    -0.059 C  
ENDROOT
BRANCH   5   8
HETATM    8  C   UNL     1      -9.697  13.098  67.248  1.00  0.00    -0.230 C  
BRANCH   8   9
HETATM    9  C   UNL     1     -10.274  12.935  65.829  1.00  0.00    -0.298 A  
HETATM   10  C   UNL     1      -9.539  12.234  64.851  1.00  0.00     0.046 A  
HETATM   11  C   UNL     1     -11.558  13.384  65.487  1.00  0.00    -0.346 A  
HETATM   12  C   UNL     1     -10.084  11.974  63.589  1.00  0.00    -0.439 A  
HETATM   13  C   UNL     1     -11.365  12.419  63.276  1.00  0.00    -0.399 A  
HETATM   14  C   UNL     1     -12.096  13.135  64.223  1.00  0.00    -0.477 A  
ENDBRANCH   8   9
BRANCH   8  15
HETATM   15  C   UNL     1      -9.632  11.776  68.032  1.00  0.00    -0.187 A  
HETATM   16  C   UNL     1      -8.558   9.615  68.378  1.00  0.00    -0.119 A  
HETATM   17  C   UNL     1     -10.735  10.027  69.326  1.00  0.00    -0.249 A  
HETATM   18  C   UNL     1      -8.538  10.909  67.853  1.00  0.00    -0.130 A  
HETATM   19  C   UNL     1     -10.722  11.316  68.792  1.00  0.00    -0.240 A  
HETATM   20  C   UNL     1      -9.659   9.172  69.107  1.00  0.00    -0.161 A  
ENDBRANCH   8  15
ENDBRANCH   5   8
TORSDOF 3
ENDMDL
MODEL       95
REMARK 921   NORMALIZED FREE ENERGY PREDICTED BY IDOCK:   -4.35 KCAL/MOL
REMARK 922        TOTAL FREE ENERGY PREDICTED BY IDOCK:   -5.07 KCAL/MOL
REMARK 923 INTER-LIGAND FREE ENERGY PREDICTED BY IDOCK:   -5.05 KCAL/MOL
REMARK 924 INTRA-LIGAND FREE ENERGY PREDICTED BY IDOCK:   -0.03 KCAL/MOL
REMARK 927      BINDING AFFINITY PREDICTED BY RF-SCORE:    0.00 PKD
ROOT
HETATM    1  C   UNL     1     -10.656   7.199  73.410  1.00  0.00    -0.382 C  
HETATM    2  N   UNL     1      -9.734   7.302  72.280  1.00  0.00    -0.149 NA 
HETATM    3  C   UNL     1     -10.127   6.403  71.176  1.00  0.00    -0.185 C  
HETATM    4  C   UNL     1     -11.301   6.906  70.299  1.00  0.00    -0.324 C  
HETATM    5  N   UNL     1     -11.145   8.281  69.769  1.00  0.00    -0.125 NA 
HETATM    6  C   UNL     1     -10.846   9.154  70.935  1.00  0.00    -0.278 C  
HETATM    7  C   UNL     1      -9.644   8.694  71.797  1.00  0.00    -0.290 C  
ENDROOT
BRANCH   5   8
HETATM    8  C   UNL     1     -10.094   8.380  68.703  1.00  0.00    -0.193 C  
BRANCH   8   9
HETATM    9  C   UNL     1      -9.951   7.086  67.879  1.00  0.00    -0.183 A  
HETATM   10  C   UNL     1     -11.030   6.633  67.093  1.00  0.00    -0.478 A  
HETATM   11  C   UNL     1      -8.744   6.375  67.806  1.00  0.00    -0.114 A  
HETATM   12  C   UNL     1     -10.893   5.526  66.249  1.00  0.00    -0.127 A  
HETATM   13  C   UNL     1      -9.682   4.843  66.185  1.00  0.00    -0.200 A  
HETATM   14  C   UNL     1      -8.611   5.263  66.974  1.00  0.00    -0.105 A  
ENDBRANCH   8   9
BRANCH   8  15
HETATM   15  C   UNL     1     -10.299   9.633  67.834  1.00  0.00    -0.271 A  
HETATM   16  C   UNL     1     -11.611  11.627  67.338  1.00  0.00    -0.330 A  
HETATM   17  C   UNL     1     -10.047  10.795  65.704  1.00  0.00    -0.327 A  
HETATM   18  C   UNL     1     -11.250  10.600  68.213  1.00  0.00    -0.362 A  
HETATM   19  C   UNL     1      -9.694   9.760  66.571  1.00  0.00    -0.267 A  
HETATM   20  C   UNL     1     -11.016  11.720  66.082  1.00  0.00    -0.355 A  
ENDBRANCH   8  15
ENDBRANCH   5   8
TORSDOF 3
ENDMDL
MODEL       96
REMARK 921   NORMALIZED FREE ENERGY PREDICTED BY IDOCK:   -4.34 KCAL/MOL
REMARK 922        TOTAL FREE ENERGY PREDICTED BY IDOCK:   -5.07 KCAL/MOL
REMARK 923 INTER-LIGAND FREE ENERGY PREDICTED BY IDOCK:   -4.92 KCAL/MOL
REMARK 924 INTRA-LIGAND FREE ENERGY PREDICTED BY IDOCK:   -0.15 KCAL/MOL
REMARK 927      BINDING AFFINITY PREDICTED BY RF-SCORE:    0.00 PKD
ROOT
HETATM    1  C   UNL     1      -6.850   6.207  71.286  1.00  0.00    -0.067 C  
HETATM    2  N   UNL     1      -8.134   6.359  70.603  1.00  0.00    -0.112 NA 
HETATM    3  C   UNL     1      -9.156   6.944  71.495  1.00  0.00    -0.144 C  
HETATM    4  C   UNL     1      -9.055   8.475  71.703  1.00  0.00    -0.229 C  
HETATM    5  N   UNL     1      -8.986   9.276  70.459  1.00  0.00    -0.234 NA 
HETATM    6  C   UNL     1      -7.880   8.704  69.646  1.00  0.00    -0.094 C  
HETATM    7  C   UNL     1      -7.990   7.181  69.385  1.00  0.00    -0.125 C  
ENDROOT
BRANCH   5   8
HETATM    8  C   UNL     1     -10.286   9.302  69.709  1.00  0.00    -0.211 C  
BRANCH   8   9
HETATM    9  C   UNL     1     -11.514   9.333  70.637  1.00  0.00    -0.327 A  
HETATM   10  C   UNL     1     -12.051  10.571  71.047  1.00  0.00    -0.492 A  
HETATM   11  C   UNL     1     -12.188   8.166  71.028  1.00  0.00    -0.191 A  
HETATM   12  C   UNL     1     -13.230  10.633  71.798  1.00  0.00    -0.526 A  
HETATM   13  C   UNL     1     -13.887   9.462  72.163  1.00  0.00    -0.433 A  
HETATM   14  C   UNL     1     -13.357   8.228  71.787  1.00  0.00    -0.375 A  
ENDBRANCH   8   9
BRANCH   8  15
HETATM   15  C   UNL     1     -10.296  10.419  68.651  1.00  0.00    -0.202 A  
HETATM   16  C   UNL     1      -9.628  12.671  68.000  1.00  0.00    -0.213 A  
HETATM   17  C   UNL     1     -11.373  11.547  66.775  1.00  0.00    -0.309 A  
HETATM   18  C   UNL     1      -9.478  11.552  68.821  1.00  0.00    -0.099 A  
HETATM   19  C   UNL     1     -11.234  10.432  67.603  1.00  0.00    -0.287 A  
HETATM   20  C   UNL     1     -10.580  12.672  66.983  1.00  0.00    -0.255 A  
ENDBRANCH   8  15
ENDBRANCH   5   8
TORSDOF 3
ENDMDL
MODEL       97
REMARK 921   NORMALIZED FREE ENERGY PREDICTED BY IDOCK:   -4.34 KCAL/MOL
REMARK 922        TOTAL FREE ENERGY PREDICTED BY IDOCK:   -5.06 KCAL/MOL
REMARK 923 INTER-LIGAND FREE ENERGY PREDICTED BY IDOCK:   -4.85 KCAL/MOL
REMARK 924 INTRA-LIGAND FREE ENERGY PREDICTED BY IDOCK:   -0.21 KCAL/MOL
REMARK 927      BINDING AFFINITY PREDICTED BY RF-SCORE:    0.00 PKD
ROOT
HETATM    1  C   UNL     1      -5.133  13.693  70.160  1.00  0.00    -0.093 C  
HETATM    2  N   UNL     1      -6.319  14.546  70.121  1.00  0.00    -0.164 NA 
HETATM    3  C   UNL     1      -6.036  15.838  69.462  1.00  0.00    -0.147 C  
HETATM    4  C   UNL     1      -5.984  15.794  67.915  1.00  0.00    -0.140 C  
HETATM    5  N   UNL     1      -7.158  15.167  67.264  1.00  0.00    -0.199 NA 
HETATM    6  C   UNL     1      -7.335  13.834  67.899  1.00  0.00    -0.153 C  
HETATM    7  C   UNL     1      -7.439  13.863  69.444  1.00  0.00     0.190 C  
ENDROOT
BRANCH   5   8
HETATM    8  C   UNL     1      -8.396  16.009  67.358  1.00  0.00    -0.167 C  
BRANCH   8   9
HETATM    9  C   UNL     1      -8.222  17.406  66.731  1.00  0.00    -0.279 A  
HETATM   10  C   UNL     1      -9.260  18.354  66.836  1.00  0.00    -0.287 A  
HETATM   11  C   UNL     1      -7.022  17.812  66.129  1.00  0.00    -0.338 A  
HETATM   12  C   UNL     1      -9.089  19.664  66.375  1.00  0.00    -0.437 A  
HETATM   13  C   UNL     1      -7.885  20.047  65.791  1.00  0.00    -0.214 A  
HETATM   14  C   UNL     1      -6.857  19.115  65.658  1.00  0.00    -0.308 A  
ENDBRANCH   8   9
BRANCH   8  15
HETATM   15  C   UNL     1      -9.625  15.254  66.824  1.00  0.00    -0.257 A  
HETATM   16  C   UNL     1     -10.990  14.590  64.916  1.00  0.00    -0.421 A  
HETATM   17  C   UNL     1     -11.887  14.398  67.144  1.00  0.00    -0.437 A  
HETATM   18  C   UNL     1      -9.788  15.072  65.437  1.00  0.00    -0.312 A  
HETATM   19  C   UNL     1     -10.691  14.892  67.667  1.00  0.00    -0.270 A  
HETATM   20  C   UNL     1     -12.041  14.260  65.768  1.00  0.00    -0.414 A  
ENDBRANCH   8  15
ENDBRANCH   5   8
TORSDOF 3
ENDMDL
MODEL       98
REMARK 921   NORMALIZED FREE ENERGY PREDICTED BY IDOCK:   -4.33 KCAL/MOL
REMARK 922        TOTAL FREE ENERGY PREDICTED BY IDOCK:   -5.06 KCAL/MOL
REMARK 923 INTER-LIGAND FREE ENERGY PREDICTED BY IDOCK:   -5.42 KCAL/MOL
REMARK 924 INTRA-LIGAND FREE ENERGY PREDICTED BY IDOCK:    0.36 KCAL/MOL
REMARK 927      BINDING AFFINITY PREDICTED BY RF-SCORE:    0.00 PKD
ROOT
HETATM    1  C   UNL     1     -12.375  14.651  71.903  1.00  0.00    -0.338 C  
HETATM    2  N   UNL     1     -12.943  14.258  70.614  1.00  0.00    -0.313 NA 
HETATM    3  C   UNL     1     -12.368  15.047  69.505  1.00  0.00    -0.164 C  
HETATM    4  C   UNL     1     -10.955  14.610  69.046  1.00  0.00    -0.258 C  
HETATM    5  N   UNL     1     -10.813  13.168  68.737  1.00  0.00    -0.255 NA 
HETATM    6  C   UNL     1     -11.317  12.427  69.923  1.00  0.00     0.006 C  
HETATM    7  C   UNL     1     -12.749  12.816  70.369  1.00  0.00     0.074 C  
ENDROOT
BRANCH   5   8
HETATM    8  C   UNL     1     -11.522  12.769  67.476  1.00  0.00    -0.336 C  
BRANCH   8   9
HETATM    9  C   UNL     1     -11.415  13.831  66.365  1.00  0.00    -0.351 A  
HETATM   10  C   UNL     1     -12.565  14.204  65.640  1.00  0.00    -0.495 A  
HETATM   11  C   UNL     1     -10.222  14.518  66.098  1.00  0.00    -0.317 A  
HETATM   12  C   UNL     1     -12.523  15.242  64.704  1.00  0.00     0.019 A  
HETATM   13  C   UNL     1     -11.330  15.917  64.464  1.00  0.00    -0.316 A  
HETATM   14  C   UNL     1     -10.177  15.546  65.155  1.00  0.00    -0.334 A  
ENDBRANCH   8   9
BRANCH   8  15
HETATM   15  C   UNL     1     -11.093  11.365  67.016  1.00  0.00    -0.364 A  
HETATM   16  C   UNL     1     -10.505   9.074  67.606  1.00  0.00    -0.324 A  
HETATM   17  C   UNL     1      -9.949   9.919  65.419  1.00  0.00    -0.349 A  
HETATM   18  C   UNL     1     -11.093  10.297  67.934  1.00  0.00    -0.341 A  
HETATM   19  C   UNL     1     -10.524  11.147  65.749  1.00  0.00    -0.305 A  
HETATM   20  C   UNL     1      -9.926   8.887  66.353  1.00  0.00    -0.354 A  
ENDBRANCH   8  15
ENDBRANCH   5   8
TORSDOF 3
ENDMDL
MODEL       99
REMARK 921   NORMALIZED FREE ENERGY PREDICTED BY IDOCK:   -4.32 KCAL/MOL
REMARK 922        TOTAL FREE ENERGY PREDICTED BY IDOCK:   -5.05 KCAL/MOL
REMARK 923 INTER-LIGAND FREE ENERGY PREDICTED BY IDOCK:   -4.80 KCAL/MOL
REMARK 924 INTRA-LIGAND FREE ENERGY PREDICTED BY IDOCK:   -0.25 KCAL/MOL
REMARK 927      BINDING AFFINITY PREDICTED BY RF-SCORE:    0.00 PKD
ROOT
HETATM    1  C   UNL     1      -6.414   9.113  63.473  1.00  0.00    -0.090 C  
HETATM    2  N   UNL     1      -7.825   8.931  63.806  1.00  0.00    -0.130 NA 
HETATM    3  C   UNL     1      -7.996   8.051  64.980  1.00  0.00    -0.126 C  
HETATM    4  C   UNL     1      -7.731   8.719  66.352  1.00  0.00    -0.099 C  
HETATM    5  N   UNL     1      -8.464   9.984  66.587  1.00  0.00    -0.125 NA 
HETATM    6  C   UNL     1      -8.178  10.864  65.423  1.00  0.00    -0.016 C  
HETATM    7  C   UNL     1      -8.484  10.231  64.043  1.00  0.00    -0.176 C  
ENDROOT
BRANCH   5   8
HETATM    8  C   UNL     1      -9.936   9.776  66.792  1.00  0.00    -0.218 C  
BRANCH   8   9
HETATM    9  C   UNL     1     -10.252   8.568  67.694  1.00  0.00    -0.297 A  
HETATM   10  C   UNL     1     -10.165   8.697  69.095  1.00  0.00    -0.215 A  
HETATM   11  C   UNL     1     -10.716   7.350  67.176  1.00  0.00    -0.400 A  
HETATM   12  C   UNL     1     -10.552   7.653  69.941  1.00  0.00    -0.237 A  
HETATM   13  C   UNL     1     -11.020   6.457  69.405  1.00  0.00    -0.421 A  
HETATM   14  C   UNL     1     -11.091   6.303  68.021  1.00  0.00    -0.365 A  
ENDBRANCH   8   9
BRANCH   8  15
HETATM   15  C   UNL     1     -10.622  11.073  67.254  1.00  0.00    -0.287 A  
HETATM   16  C   UNL     1     -11.986  13.016  66.696  1.00  0.00    -0.453 A  
HETATM   17  C   UNL     1     -10.721  13.000  68.748  1.00  0.00    -0.250 A  
HETATM   18  C   UNL     1     -11.522  11.734  66.395  1.00  0.00    -0.309 A  
HETATM   19  C   UNL     1     -10.245  11.724  68.442  1.00  0.00    -0.208 A  
HETATM   20  C   UNL     1     -11.580  13.652  67.867  1.00  0.00    -0.376 A  
ENDBRANCH   8  15
ENDBRANCH   5   8
TORSDOF 3
ENDMDL
MODEL      100
REMARK 921   NORMALIZED FREE ENERGY PREDICTED BY IDOCK:   -4.29 KCAL/MOL
REMARK 922        TOTAL FREE ENERGY PREDICTED BY IDOCK:   -5.01 KCAL/MOL
REMARK 923 INTER-LIGAND FREE ENERGY PREDICTED BY IDOCK:   -4.75 KCAL/MOL
REMARK 924 INTRA-LIGAND FREE ENERGY PREDICTED BY IDOCK:   -0.25 KCAL/MOL
REMARK 927      BINDING AFFINITY PREDICTED BY RF-SCORE:    0.00 PKD
ROOT
HETATM    1  C   UNL     1     -13.183  11.520  71.800  1.00  0.00    -0.351 C  
HETATM    2  N   UNL     1     -13.352  10.191  71.215  1.00  0.00    -0.348 NA 
HETATM    3  C   UNL     1     -12.516  10.020  70.008  1.00  0.00     0.139 C  
HETATM    4  C   UNL     1     -11.016   9.741  70.276  1.00  0.00    -0.298 C  
HETATM    5  N   UNL     1     -10.742   8.629  71.214  1.00  0.00    -0.236 NA 
HETATM    6  C   UNL     1     -11.533   8.904  72.443  1.00  0.00    -0.136 C  
HETATM    7  C   UNL     1     -13.045   9.137  72.201  1.00  0.00    -0.446 C  
ENDROOT
BRANCH   5   8
HETATM    8  C   UNL     1     -11.053   7.282  70.630  1.00  0.00    -0.264 C  
BRANCH   8   9
HETATM    9  C   UNL     1     -10.487   7.098  69.209  1.00  0.00    -0.220 A  
HETATM   10  C   UNL     1     -11.265   6.458  68.223  1.00  0.00    -0.276 A  
HETATM   11  C   UNL     1      -9.247   7.627  68.823  1.00  0.00    -0.142 A  
HETATM   12  C   UNL     1     -10.824   6.375  66.898  1.00  0.00    -0.428 A  
HETATM   13  C   UNL     1      -9.595   6.918  66.536  1.00  0.00    -0.197 A  
HETATM   14  C   UNL     1      -8.802   7.534  67.504  1.00  0.00    -0.127 A  
ENDBRANCH   8   9
BRANCH   8  15
HETATM   15  C   UNL     1     -10.654   6.151  71.593  1.00  0.00    -0.276 A  
HETATM   16  C   UNL     1     -11.237   4.729  73.486  1.00  0.00    -0.392 A  
HETATM   17  C   UNL     1      -8.936   4.898  72.789  1.00  0.00    -0.129 A  
HETATM   18  C   UNL     1     -11.616   5.594  72.457  1.00  0.00    -0.303 A  
HETATM   19  C   UNL     1      -9.311   5.773  71.769  1.00  0.00    -0.163 A  
HETATM   20  C   UNL     1      -9.897   4.387  73.657  1.00  0.00    -0.161 A  
ENDBRANCH   8  15
ENDBRANCH   5   8
TORSDOF 3
ENDMDL
MODEL      101
REMARK 921   NORMALIZED FREE ENERGY PREDICTED BY IDOCK:   -4.26 KCAL/MOL
REMARK 922        TOTAL FREE ENERGY PREDICTED BY IDOCK:   -4.97 KCAL/MOL
REMARK 923 INTER-LIGAND FREE ENERGY PREDICTED BY IDOCK:   -4.62 KCAL/MOL
REMARK 924 INTRA-LIGAND FREE ENERGY PREDICTED BY IDOCK:   -0.35 KCAL/MOL
REMARK 927      BINDING AFFINITY PREDICTED BY RF-SCORE:    0.00 PKD
ROOT
HETATM    1  C   UNL     1      -9.993   7.016  70.245  1.00  0.00    -0.179 C  
HETATM    2  N   UNL     1     -10.754   7.833  69.301  1.00  0.00    -0.190 NA 
HETATM    3  C   UNL     1     -10.825   9.243  69.739  1.00  0.00    -0.224 C  
HETATM    4  C   UNL     1      -9.550  10.082  69.480  1.00  0.00    -0.230 C  
HETATM    5  N   UNL     1      -9.038  10.035  68.091  1.00  0.00    -0.121 NA 
HETATM    6  C   UNL     1      -8.895   8.597  67.739  1.00  0.00    -0.136 C  
HETATM    7  C   UNL     1     -10.176   7.750  67.945  1.00  0.00    -0.206 C  
ENDROOT
BRANCH   5   8
HETATM    8  C   UNL     1      -9.914  10.771  67.121  1.00  0.00    -0.194 C  
BRANCH   8   9
HETATM    9  C   UNL     1     -10.262  12.197  67.588  1.00  0.00    -0.206 A  
HETATM   10  C   UNL     1     -11.590  12.516  67.936  1.00  0.00    -0.403 A  
HETATM   11  C   UNL     1      -9.282  13.185  67.769  1.00  0.00    -0.203 A  
HETATM   12  C   UNL     1     -11.916  13.768  68.469  1.00  0.00    -0.402 A  
HETATM   13  C   UNL     1     -10.925  14.728  68.650  1.00  0.00    -0.262 A  
HETATM   14  C   UNL     1      -9.610  14.438  68.289  1.00  0.00    -0.211 A  
ENDBRANCH   8   9
BRANCH   8  15
HETATM   15  C   UNL     1      -9.332  10.724  65.698  1.00  0.00    -0.241 A  
HETATM   16  C   UNL     1      -9.722  10.569  63.296  1.00  0.00    -0.361 A  
HETATM   17  C   UNL     1      -7.515  10.155  64.172  1.00  0.00    -0.114 A  
HETATM   18  C   UNL     1     -10.190  10.827  64.586  1.00  0.00    -0.419 A  
HETATM   19  C   UNL     1      -7.984  10.400  65.464  1.00  0.00    -0.153 A  
HETATM   20  C   UNL     1      -8.388  10.226  63.090  1.00  0.00    -0.167 A  
ENDBRANCH   8  15
ENDBRANCH   5   8
TORSDOF 3
ENDMDL
MODEL      102
REMARK 921   NORMALIZED FREE ENERGY PREDICTED BY IDOCK:   -4.18 KCAL/MOL
REMARK 922        TOTAL FREE ENERGY PREDICTED BY IDOCK:   -4.88 KCAL/MOL
REMARK 923 INTER-LIGAND FREE ENERGY PREDICTED BY IDOCK:   -4.32 KCAL/MOL
REMARK 924 INTRA-LIGAND FREE ENERGY PREDICTED BY IDOCK:   -0.56 KCAL/MOL
REMARK 927      BINDING AFFINITY PREDICTED BY RF-SCORE:    0.00 PKD
ROOT
HETATM    1  C   UNL     1     -11.403   4.853  73.106  1.00  0.00    -0.315 C  
HETATM    2  N   UNL     1     -10.868   6.214  73.097  1.00  0.00    -0.256 NA 
HETATM    3  C   UNL     1      -9.462   6.240  72.642  1.00  0.00    -0.148 C  
HETATM    4  C   UNL     1      -9.260   6.121  71.111  1.00  0.00    -0.153 C  
HETATM    5  N   UNL     1     -10.048   7.075  70.297  1.00  0.00    -0.187 NA 
HETATM    6  C   UNL     1     -11.464   6.935  70.730  1.00  0.00    -0.335 C  
HETATM    7  C   UNL     1     -11.693   7.100  72.253  1.00  0.00    -0.258 C  
ENDROOT
BRANCH   5   8
HETATM    8  C   UNL     1      -9.556   8.487  70.414  1.00  0.00    -0.172 C  
BRANCH   8   9
HETATM    9  C   UNL     1      -8.095   8.655  69.956  1.00  0.00    -0.112 A  
HETATM   10  C   UNL     1      -7.227   9.499  70.678  1.00  0.00    -0.130 A  
HETATM   11  C   UNL     1      -7.558   7.924  68.886  1.00  0.00    -0.100 A  
HETATM   12  C   UNL     1      -5.869   9.585  70.353  1.00  0.00    -0.048 A  
HETATM   13  C   UNL     1      -5.357   8.842  69.294  1.00  0.00    -0.035 A  
HETATM   14  C   UNL     1      -6.206   8.020  68.554  1.00  0.00    -0.045 A  
ENDBRANCH   8   9
BRANCH   8  15
HETATM   15  C   UNL     1     -10.522   9.471  69.732  1.00  0.00    -0.253 A  
HETATM   16  C   UNL     1     -11.221  10.631  67.704  1.00  0.00    -0.361 A  
HETATM   17  C   UNL     1     -11.999  11.410  69.848  1.00  0.00    -0.434 A  
HETATM   18  C   UNL     1     -10.519   9.598  68.330  1.00  0.00    -0.259 A  
HETATM   19  C   UNL     1     -11.288  10.386  70.476  1.00  0.00    -0.424 A  
HETATM   20  C   UNL     1     -11.954  11.540  68.463  1.00  0.00    -0.293 A  
ENDBRANCH   8  15
ENDBRANCH   5   8
TORSDOF 3
ENDMDL
MODEL      103
REMARK 921   NORMALIZED FREE ENERGY PREDICTED BY IDOCK:   -4.18 KCAL/MOL
REMARK 922        TOTAL FREE ENERGY PREDICTED BY IDOCK:   -4.88 KCAL/MOL
REMARK 923 INTER-LIGAND FREE ENERGY PREDICTED BY IDOCK:   -4.56 KCAL/MOL
REMARK 924 INTRA-LIGAND FREE ENERGY PREDICTED BY IDOCK:   -0.32 KCAL/MOL
REMARK 927      BINDING AFFINITY PREDICTED BY RF-SCORE:    0.00 PKD
ROOT
HETATM    1  C   UNL     1      -8.609   8.735  64.586  1.00  0.00    -0.113 C  
HETATM    2  N   UNL     1      -8.681   9.752  65.634  1.00  0.00    -0.142 NA 
HETATM    3  C   UNL     1     -10.011   9.774  66.277  1.00  0.00    -0.262 C  
HETATM    4  C   UNL     1     -10.263   8.651  67.313  1.00  0.00    -0.268 C  
HETATM    5  N   UNL     1      -9.223   8.516  68.360  1.00  0.00    -0.135 NA 
HETATM    6  C   UNL     1      -7.920   8.401  67.652  1.00  0.00    -0.110 C  
HETATM    7  C   UNL     1      -7.628   9.543  66.647  1.00  0.00    -0.097 C  
ENDROOT
BRANCH   5   8
HETATM    8  C   UNL     1      -9.236   9.647  69.345  1.00  0.00    -0.189 C  
BRANCH   8   9
HETATM    9  C   UNL     1     -10.574   9.774  70.097  1.00  0.00    -0.337 A  
HETATM   10  C   UNL     1     -11.005   8.731  70.941  1.00  0.00    -0.315 A  
HETATM   11  C   UNL     1     -11.353  10.940  70.047  1.00  0.00    -0.386 A  
HETATM   12  C   UNL     1     -12.159   8.864  71.721  1.00  0.00    -0.432 A  
HETATM   13  C   UNL     1     -12.909  10.034  71.664  1.00  0.00    -0.543 A  
HETATM   14  C   UNL     1     -12.511  11.067  70.816  1.00  0.00    -0.491 A  
ENDBRANCH   8   9
BRANCH   8  15
HETATM   15  C   UNL     1      -8.017   9.584  70.281  1.00  0.00    -0.190 A  
HETATM   16  C   UNL     1      -5.726  10.265  70.761  1.00  0.00    -0.094 A  
HETATM   17  C   UNL     1      -6.680   8.390  71.937  1.00  0.00    -0.083 A  
HETATM   18  C   UNL     1      -6.926  10.448  70.071  1.00  0.00    -0.159 A  
HETATM   19  C   UNL     1      -7.876   8.563  71.239  1.00  0.00    -0.140 A  
HETATM   20  C   UNL     1      -5.600   9.233  71.687  1.00  0.00    -0.072 A  
ENDBRANCH   8  15
ENDBRANCH   5   8
TORSDOF 3
ENDMDL
MODEL      104
REMARK 921   NORMALIZED FREE ENERGY PREDICTED BY IDOCK:   -4.14 KCAL/MOL
REMARK 922        TOTAL FREE ENERGY PREDICTED BY IDOCK:   -4.83 KCAL/MOL
REMARK 923 INTER-LIGAND FREE ENERGY PREDICTED BY IDOCK:   -4.22 KCAL/MOL
REMARK 924 INTRA-LIGAND FREE ENERGY PREDICTED BY IDOCK:   -0.61 KCAL/MOL
REMARK 927      BINDING AFFINITY PREDICTED BY RF-SCORE:    0.00 PKD
ROOT
HETATM    1  C   UNL     1     -11.641  14.538  66.376  1.00  0.00    -0.364 C  
HETATM    2  N   UNL     1     -10.988  13.284  66.002  1.00  0.00    -0.278 NA 
HETATM    3  C   UNL     1      -9.610  13.212  66.530  1.00  0.00    -0.268 C  
HETATM    4  C   UNL     1      -9.495  12.854  68.032  1.00  0.00    -0.213 C  
HETATM    5  N   UNL     1     -10.235  11.640  68.447  1.00  0.00    -0.202 NA 
HETATM    6  C   UNL     1     -11.635  11.812  67.974  1.00  0.00    -0.316 C  
HETATM    7  C   UNL     1     -11.773  12.122  66.463  1.00  0.00    -0.321 C  
ENDROOT
BRANCH   5   8
HETATM    8  C   UNL     1      -9.615  10.374  67.933  1.00  0.00    -0.142 C  
BRANCH   8   9
HETATM    9  C   UNL     1      -8.078  10.376  68.030  1.00  0.00    -0.110 A  
HETATM   10  C   UNL     1      -7.455  10.391  69.294  1.00  0.00    -0.120 A  
HETATM   11  C   UNL     1      -7.257  10.272  66.897  1.00  0.00    -0.093 A  
HETATM   12  C   UNL     1      -6.066  10.281  69.416  1.00  0.00    -0.042 A  
HETATM   13  C   UNL     1      -5.273  10.168  68.279  1.00  0.00    -0.035 A  
HETATM   14  C   UNL     1      -5.869  10.175  67.018  1.00  0.00    -0.050 A  
ENDBRANCH   8   9
BRANCH   8  15
HETATM   15  C   UNL     1     -10.262   9.135  68.577  1.00  0.00    -0.223 A  
HETATM   16  C   UNL     1     -11.061   8.018  70.591  1.00  0.00    -0.266 A  
HETATM   17  C   UNL     1     -10.684   6.733  68.587  1.00  0.00    -0.279 A  
HETATM   18  C   UNL     1     -10.678   9.181  69.921  1.00  0.00    -0.246 A  
HETATM   19  C   UNL     1     -10.288   7.892  67.920  1.00  0.00    -0.281 A  
HETATM   20  C   UNL     1     -11.057   6.793  69.927  1.00  0.00    -0.374 A  
ENDBRANCH   8  15
ENDBRANCH   5   8
TORSDOF 3
ENDMDL
MODEL      105
REMARK 921   NORMALIZED FREE ENERGY PREDICTED BY IDOCK:   -4.09 KCAL/MOL
REMARK 922        TOTAL FREE ENERGY PREDICTED BY IDOCK:   -4.77 KCAL/MOL
REMARK 923 INTER-LIGAND FREE ENERGY PREDICTED BY IDOCK:   -4.87 KCAL/MOL
REMARK 924 INTRA-LIGAND FREE ENERGY PREDICTED BY IDOCK:    0.10 KCAL/MOL
REMARK 927      BINDING AFFINITY PREDICTED BY RF-SCORE:    0.00 PKD
ROOT
HETATM    1  C   UNL     1      -7.487  10.410  66.154  1.00  0.00    -0.131 C  
HETATM    2  N   UNL     1      -8.609   9.527  66.471  1.00  0.00    -0.132 NA 
HETATM    3  C   UNL     1      -8.181   8.388  67.311  1.00  0.00    -0.112 C  
HETATM    4  C   UNL     1      -7.978   8.713  68.811  1.00  0.00    -0.114 C  
HETATM    5  N   UNL     1      -9.117   9.395  69.467  1.00  0.00    -0.154 NA 
HETATM    6  C   UNL     1      -9.440  10.582  68.632  1.00  0.00    -0.172 C  
HETATM    7  C   UNL     1      -9.696  10.271  67.136  1.00  0.00    -0.173 C  
ENDROOT
BRANCH   5   8
HETATM    8  C   UNL     1     -10.304   8.497  69.657  1.00  0.00    -0.218 C  
BRANCH   8   9
HETATM    9  C   UNL     1      -9.914   7.068  70.080  1.00  0.00    -0.189 A  
HETATM   10  C   UNL     1      -9.224   6.860  71.292  1.00  0.00    -0.157 A  
HETATM   11  C   UNL     1     -10.299   5.938  69.344  1.00  0.00    -0.313 A  
HETATM   12  C   UNL     1      -8.955   5.568  71.756  1.00  0.00    -0.144 A  
HETATM   13  C   UNL     1      -9.357   4.462  71.014  1.00  0.00    -0.216 A  
HETATM   14  C   UNL     1     -10.019   4.649  69.801  1.00  0.00    -0.295 A  
ENDBRANCH   8   9
BRANCH   8  15
HETATM   15  C   UNL     1     -11.347   9.141  70.587  1.00  0.00    -0.323 A  
HETATM   16  C   UNL     1     -13.371   8.898  71.924  1.00  0.00    -0.455 A  
HETATM   17  C   UNL     1     -12.592  11.101  71.334  1.00  0.00    -0.479 A  
HETATM   18  C   UNL     1     -12.285   8.330  71.255  1.00  0.00    -0.295 A  
HETATM   19  C   UNL     1     -11.513  10.535  70.653  1.00  0.00    -0.418 A  
HETATM   20  C   UNL     1     -13.529  10.281  71.957  1.00  0.00    -0.385 A  
ENDBRANCH   8  15
ENDBRANCH   5   8
TORSDOF 3
ENDMDL
MODEL      106
REMARK 921   NORMALIZED FREE ENERGY PREDICTED BY IDOCK:   -4.09 KCAL/MOL
REMARK 922        TOTAL FREE ENERGY PREDICTED BY IDOCK:   -4.77 KCAL/MOL
REMARK 923 INTER-LIGAND FREE ENERGY PREDICTED BY IDOCK:   -4.21 KCAL/MOL
REMARK 924 INTRA-LIGAND FREE ENERGY PREDICTED BY IDOCK:   -0.56 KCAL/MOL
REMARK 927      BINDING AFFINITY PREDICTED BY RF-SCORE:    0.00 PKD
ROOT
HETATM    1  C   UNL     1      -6.233   4.349  72.032  1.00  0.00    -0.021 C  
HETATM    2  N   UNL     1      -7.482   4.457  71.280  1.00  0.00    -0.058 NA 
HETATM    3  C   UNL     1      -8.505   5.210  72.034  1.00  0.00    -0.126 C  
HETATM    4  C   UNL     1      -8.334   6.750  72.024  1.00  0.00    -0.111 C  
HETATM    5  N   UNL     1      -8.181   7.356  70.681  1.00  0.00    -0.111 NA 
HETATM    6  C   UNL     1      -7.077   6.623  70.007  1.00  0.00    -0.071 C  
HETATM    7  C   UNL     1      -7.253   5.084  69.964  1.00  0.00    -0.058 C  
ENDROOT
BRANCH   5   8
HETATM    8  C   UNL     1      -9.450   7.330  69.881  1.00  0.00    -0.157 C  
BRANCH   8   9
HETATM    9  C   UNL     1     -10.694   7.690  70.715  1.00  0.00    -0.231 A  
HETATM   10  C   UNL     1     -10.846   8.999  71.215  1.00  0.00    -0.385 A  
HETATM   11  C   UNL     1     -11.741   6.782  70.927  1.00  0.00    -0.424 A  
HETATM   12  C   UNL     1     -12.015   9.385  71.881  1.00  0.00    -0.416 A  
HETATM   13  C   UNL     1     -13.046   8.470  72.069  1.00  0.00    -0.403 A  
HETATM   14  C   UNL     1     -12.902   7.164  71.601  1.00  0.00    -0.420 A  
ENDBRANCH   8   9
BRANCH   8  15
HETATM   15  C   UNL     1      -9.316   8.169  68.598  1.00  0.00    -0.143 A  
HETATM   16  C   UNL     1      -8.373  10.118  67.477  1.00  0.00    -0.118 A  
HETATM   17  C   UNL     1     -10.235   8.956  66.480  1.00  0.00    -0.319 A  
HETATM   18  C   UNL     1      -8.367   9.206  68.535  1.00  0.00    -0.123 A  
HETATM   19  C   UNL     1     -10.238   8.052  67.542  1.00  0.00    -0.311 A  
HETATM   20  C   UNL     1      -9.311   9.998  66.454  1.00  0.00    -0.211 A  
ENDBRANCH   8  15
ENDBRANCH   5   8
TORSDOF 3
ENDMDL
MODEL      107
REMARK 921   NORMALIZED FREE ENERGY PREDICTED BY IDOCK:   -4.08 KCAL/MOL
REMARK 922        TOTAL FREE ENERGY PREDICTED BY IDOCK:   -4.76 KCAL/MOL
REMARK 923 INTER-LIGAND FREE ENERGY PREDICTED BY IDOCK:   -4.65 KCAL/MOL
REMARK 924 INTRA-LIGAND FREE ENERGY PREDICTED BY IDOCK:   -0.11 KCAL/MOL
REMARK 927      BINDING AFFINITY PREDICTED BY RF-SCORE:    0.00 PKD
ROOT
HETATM    1  C   UNL     1     -11.679  14.238  70.636  1.00  0.00    -0.223 C  
HETATM    2  N   UNL     1     -12.216  13.264  69.687  1.00  0.00    -0.248 NA 
HETATM    3  C   UNL     1     -11.912  13.642  68.292  1.00  0.00    -0.350 C  
HETATM    4  C   UNL     1     -10.466  13.341  67.825  1.00  0.00    -0.239 C  
HETATM    5  N   UNL     1     -10.006  11.953  68.059  1.00  0.00    -0.185 NA 
HETATM    6  C   UNL     1     -10.247  11.662  69.497  1.00  0.00     0.418 C  
HETATM    7  C   UNL     1     -11.701  11.911  69.972  1.00  0.00    -0.286 C  
ENDROOT
BRANCH   5   8
HETATM    8  C   UNL     1     -10.676  10.957  67.159  1.00  0.00    -0.270 C  
BRANCH   8   9
HETATM    9  C   UNL     1     -10.920  11.499  65.738  1.00  0.00    -0.305 A  
HETATM   10  C   UNL     1     -12.145  12.123  65.428  1.00  0.00    -0.231 A  
HETATM   11  C   UNL     1      -9.926  11.479  64.748  1.00  0.00    -0.304 A  
HETATM   12  C   UNL     1     -12.354  12.722  64.181  1.00  0.00    -0.485 A  
HETATM   13  C   UNL     1     -11.349  12.700  63.219  1.00  0.00    -0.306 A  
HETATM   14  C   UNL     1     -10.139  12.066  63.500  1.00  0.00    -0.448 A  
ENDBRANCH   8   9
BRANCH   8  15
HETATM   15  C   UNL     1      -9.937   9.607  67.175  1.00  0.00    -0.249 A  
HETATM   16  C   UNL     1      -7.831   8.389  67.014  1.00  0.00    -0.096 A  
HETATM   17  C   UNL     1      -9.915   7.202  66.769  1.00  0.00    -0.278 A  
HETATM   18  C   UNL     1      -8.530   9.580  67.220  1.00  0.00    -0.128 A  
HETATM   19  C   UNL     1     -10.614   8.394  66.962  1.00  0.00    -0.316 A  
HETATM   20  C   UNL     1      -8.523   7.202  66.781  1.00  0.00    -0.121 A  
ENDBRANCH   8  15
ENDBRANCH   5   8
TORSDOF 3
ENDMDL
MODEL      108
REMARK 921   NORMALIZED FREE ENERGY PREDICTED BY IDOCK:   -4.07 KCAL/MOL
REMARK 922        TOTAL FREE ENERGY PREDICTED BY IDOCK:   -4.75 KCAL/MOL
REMARK 923 INTER-LIGAND FREE ENERGY PREDICTED BY IDOCK:   -4.30 KCAL/MOL
REMARK 924 INTRA-LIGAND FREE ENERGY PREDICTED BY IDOCK:   -0.45 KCAL/MOL
REMARK 927      BINDING AFFINITY PREDICTED BY RF-SCORE:    0.00 PKD
ROOT
HETATM    1  C   UNL     1      -5.759   7.037  63.421  1.00  0.00    -0.036 C  
HETATM    2  N   UNL     1      -7.204   7.183  63.584  1.00  0.00    -0.069 NA 
HETATM    3  C   UNL     1      -7.662   6.634  64.877  1.00  0.00    -0.109 C  
HETATM    4  C   UNL     1      -7.404   7.537  66.108  1.00  0.00    -0.082 C  
HETATM    5  N   UNL     1      -7.889   8.931  65.978  1.00  0.00    -0.100 NA 
HETATM    6  C   UNL     1      -7.320   9.462  64.711  1.00  0.00    -0.107 C  
HETATM    7  C   UNL     1      -7.609   8.597  63.459  1.00  0.00    -0.124 C  
ENDROOT
BRANCH   5   8
HETATM    8  C   UNL     1      -9.385   9.034  66.014  1.00  0.00    -0.242 C  
BRANCH   8   9
HETATM    9  C   UNL     1     -10.009   8.303  67.218  1.00  0.00    -0.289 A  
HETATM   10  C   UNL     1     -10.672   7.074  67.024  1.00  0.00    -0.423 A  
HETATM   11  C   UNL     1      -9.867   8.769  68.533  1.00  0.00    -0.183 A  
HETATM   12  C   UNL     1     -11.151   6.333  68.109  1.00  0.00    -0.364 A  
HETATM   13  C   UNL     1     -10.988   6.811  69.406  1.00  0.00    -0.321 A  
HETATM   14  C   UNL     1     -10.356   8.036  69.615  1.00  0.00    -0.220 A  
ENDBRANCH   8   9
BRANCH   8  15
HETATM   15  C   UNL     1      -9.846  10.496  65.888  1.00  0.00    -0.291 A  
HETATM   16  C   UNL     1     -10.122  12.685  66.925  1.00  0.00    -0.234 A  
HETATM   17  C   UNL     1     -11.303  12.177  64.886  1.00  0.00    -0.378 A  
HETATM   18  C   UNL     1      -9.535  11.419  66.905  1.00  0.00    -0.193 A  
HETATM   19  C   UNL     1     -10.727  10.906  64.872  1.00  0.00    -0.240 A  
HETATM   20  C   UNL     1     -11.011  13.062  65.921  1.00  0.00    -0.292 A  
ENDBRANCH   8  15
ENDBRANCH   5   8
TORSDOF 3
ENDMDL
MODEL      109
REMARK 921   NORMALIZED FREE ENERGY PREDICTED BY IDOCK:   -4.05 KCAL/MOL
REMARK 922        TOTAL FREE ENERGY PREDICTED BY IDOCK:   -4.73 KCAL/MOL
REMARK 923 INTER-LIGAND FREE ENERGY PREDICTED BY IDOCK:   -4.42 KCAL/MOL
REMARK 924 INTRA-LIGAND FREE ENERGY PREDICTED BY IDOCK:   -0.31 KCAL/MOL
REMARK 927      BINDING AFFINITY PREDICTED BY RF-SCORE:    0.00 PKD
ROOT
HETATM    1  C   UNL     1      -7.536   8.507  71.959  1.00  0.00    -0.091 C  
HETATM    2  N   UNL     1      -8.770   8.318  71.198  1.00  0.00    -0.136 NA 
HETATM    3  C   UNL     1      -9.092   9.509  70.384  1.00  0.00    -0.246 C  
HETATM    4  C   UNL     1      -8.275   9.656  69.076  1.00  0.00    -0.113 C  
HETATM    5  N   UNL     1      -8.269   8.461  68.201  1.00  0.00    -0.123 NA 
HETATM    6  C   UNL     1      -7.846   7.315  69.049  1.00  0.00    -0.118 C  
HETATM    7  C   UNL     1      -8.683   7.122  70.338  1.00  0.00    -0.150 C  
ENDROOT
BRANCH   5   8
HETATM    8  C   UNL     1      -9.592   8.217  67.537  1.00  0.00    -0.157 C  
BRANCH   8   9
HETATM    9  C   UNL     1     -10.093   9.430  66.731  1.00  0.00    -0.325 A  
HETATM   10  C   UNL     1     -10.953  10.368  67.338  1.00  0.00    -0.335 A  
HETATM   11  C   UNL     1      -9.654   9.695  65.425  1.00  0.00    -0.361 A  
HETATM   12  C   UNL     1     -11.335  11.535  66.669  1.00  0.00    -0.285 A  
HETATM   13  C   UNL     1     -10.877  11.782  65.379  1.00  0.00    -0.347 A  
HETATM   14  C   UNL     1     -10.045  10.854  64.754  1.00  0.00    -0.383 A  
ENDBRANCH   8   9
BRANCH   8  15
HETATM   15  C   UNL     1      -9.574   6.913  66.721  1.00  0.00    -0.215 A  
HETATM   16  C   UNL     1     -10.455   4.666  66.372  1.00  0.00    -0.207 A  
HETATM   17  C   UNL     1      -8.382   5.307  65.324  1.00  0.00    -0.139 A  
HETATM   18  C   UNL     1     -10.570   5.940  66.932  1.00  0.00    -0.384 A  
HETATM   19  C   UNL     1      -8.488   6.577  65.893  1.00  0.00    -0.147 A  
HETATM   20  C   UNL     1      -9.358   4.347  65.575  1.00  0.00    -0.162 A  
ENDBRANCH   8  15
ENDBRANCH   5   8
TORSDOF 3
ENDMDL
MODEL      110
REMARK 921   NORMALIZED FREE ENERGY PREDICTED BY IDOCK:   -4.01 KCAL/MOL
REMARK 922        TOTAL FREE ENERGY PREDICTED BY IDOCK:   -4.68 KCAL/MOL
REMARK 923 INTER-LIGAND FREE ENERGY PREDICTED BY IDOCK:   -4.10 KCAL/MOL
REMARK 924 INTRA-LIGAND FREE ENERGY PREDICTED BY IDOCK:   -0.59 KCAL/MOL
REMARK 927      BINDING AFFINITY PREDICTED BY RF-SCORE:    0.00 PKD
ROOT
HETATM    1  C   UNL     1     -12.320   9.717  71.532  1.00  0.00    -0.405 C  
HETATM    2  N   UNL     1     -11.019   9.097  71.779  1.00  0.00    -0.370 NA 
HETATM    3  C   UNL     1     -11.128   7.966  72.723  1.00  0.00    -0.400 C  
HETATM    4  C   UNL     1     -11.672   6.648  72.116  1.00  0.00    -0.304 C  
HETATM    5  N   UNL     1     -10.979   6.188  70.890  1.00  0.00    -0.283 NA 
HETATM    6  C   UNL     1     -10.984   7.335  69.943  1.00  0.00    -0.243 C  
HETATM    7  C   UNL     1     -10.399   8.650  70.516  1.00  0.00    -0.202 C  
ENDROOT
BRANCH   5   8
HETATM    8  C   UNL     1      -9.593   5.681  71.158  1.00  0.00    -0.168 C  
BRANCH   8   9
HETATM    9  C   UNL     1      -9.520   4.749  72.382  1.00  0.00    -0.168 A  
HETATM   10  C   UNL     1     -10.254   3.545  72.390  1.00  0.00    -0.205 A  
HETATM   11  C   UNL     1      -8.672   5.006  73.470  1.00  0.00    -0.110 A  
HETATM   12  C   UNL     1     -10.123   2.627  73.437  1.00  0.00    -0.187 A  
HETATM   13  C   UNL     1      -9.266   2.899  74.500  1.00  0.00    -0.102 A  
HETATM   14  C   UNL     1      -8.551   4.095  74.520  1.00  0.00    -0.091 A  
ENDBRANCH   8   9
BRANCH   8  15
HETATM   15  C   UNL     1      -8.969   5.070  69.892  1.00  0.00    -0.142 A  
HETATM   16  C   UNL     1      -7.291   5.204  68.128  1.00  0.00    -0.075 A  
HETATM   17  C   UNL     1      -9.179   3.730  67.864  1.00  0.00    -0.218 A  
HETATM   18  C   UNL     1      -7.762   5.588  69.385  1.00  0.00    -0.086 A  
HETATM   19  C   UNL     1      -9.658   4.122  69.115  1.00  0.00    -0.243 A  
HETATM   20  C   UNL     1      -8.003   4.282  67.364  1.00  0.00    -0.096 A  
ENDBRANCH   8  15
ENDBRANCH   5   8
TORSDOF 3
ENDMDL
MODEL      111
REMARK 921   NORMALIZED FREE ENERGY PREDICTED BY IDOCK:   -3.94 KCAL/MOL
REMARK 922        TOTAL FREE ENERGY PREDICTED BY IDOCK:   -4.59 KCAL/MOL
REMARK 923 INTER-LIGAND FREE ENERGY PREDICTED BY IDOCK:   -3.98 KCAL/MOL
REMARK 924 INTRA-LIGAND FREE ENERGY PREDICTED BY IDOCK:   -0.62 KCAL/MOL
REMARK 927      BINDING AFFINITY PREDICTED BY RF-SCORE:    0.00 PKD
ROOT
HETATM    1  C   UNL     1     -11.036  11.080  68.993  1.00  0.00    -0.244 C  
HETATM    2  N   UNL     1      -9.982  10.291  69.628  1.00  0.00    -0.227 NA 
HETATM    3  C   UNL     1     -10.449   9.675  70.887  1.00  0.00    -0.289 C  
HETATM    4  C   UNL     1     -11.330   8.412  70.719  1.00  0.00    -0.265 C  
HETATM    5  N   UNL     1     -10.758   7.358  69.849  1.00  0.00    -0.240 NA 
HETATM    6  C   UNL     1     -10.396   8.015  68.566  1.00  0.00    -0.199 C  
HETATM    7  C   UNL     1      -9.474   9.252  68.710  1.00  0.00    -0.150 C  
ENDROOT
BRANCH   5   8
HETATM    8  C   UNL     1      -9.590   6.655  70.476  1.00  0.00    -0.169 C  
BRANCH   8   9
HETATM    9  C   UNL     1      -9.877   6.172  71.909  1.00  0.00    -0.176 A  
HETATM   10  C   UNL     1     -10.952   5.291  72.149  1.00  0.00    -0.226 A  
HETATM   11  C   UNL     1      -9.050   6.504  72.992  1.00  0.00    -0.136 A  
HETATM   12  C   UNL     1     -11.170   4.749  73.420  1.00  0.00    -0.425 A  
HETATM   13  C   UNL     1     -10.329   5.084  74.476  1.00  0.00    -0.315 A  
HETATM   14  C   UNL     1      -9.275   5.972  74.262  1.00  0.00    -0.141 A  
ENDBRANCH   8   9
BRANCH   8  15
HETATM   15  C   UNL     1      -9.050   5.545  69.558  1.00  0.00    -0.143 A  
HETATM   16  C   UNL     1      -7.196   4.638  68.261  1.00  0.00    -0.065 A  
HETATM   17  C   UNL     1      -9.429   3.819  67.875  1.00  0.00    -0.224 A  
HETATM   18  C   UNL     1      -7.676   5.491  69.256  1.00  0.00    -0.087 A  
HETATM   19  C   UNL     1      -9.913   4.681  68.860  1.00  0.00    -0.168 A  
HETATM   20  C   UNL     1      -8.072   3.808  67.566  1.00  0.00    -0.090 A  
ENDBRANCH   8  15
ENDBRANCH   5   8
TORSDOF 3
ENDMDL
MODEL      112
REMARK 921   NORMALIZED FREE ENERGY PREDICTED BY IDOCK:   -3.93 KCAL/MOL
REMARK 922        TOTAL FREE ENERGY PREDICTED BY IDOCK:   -4.58 KCAL/MOL
REMARK 923 INTER-LIGAND FREE ENERGY PREDICTED BY IDOCK:   -4.83 KCAL/MOL
REMARK 924 INTRA-LIGAND FREE ENERGY PREDICTED BY IDOCK:    0.24 KCAL/MOL
REMARK 927      BINDING AFFINITY PREDICTED BY RF-SCORE:    0.00 PKD
ROOT
HETATM    1  C   UNL     1     -11.494  15.332  65.471  1.00  0.00    -0.152 C  
HETATM    2  N   UNL     1     -11.293  13.979  64.954  1.00  0.00    -0.339 NA 
HETATM    3  C   UNL     1      -9.931  13.485  65.243  1.00  0.00    -0.183 C  
HETATM    4  C   UNL     1      -9.699  12.995  66.694  1.00  0.00    -0.256 C  
HETATM    5  N   UNL     1     -10.685  12.006  67.189  1.00  0.00    -0.231 NA 
HETATM    6  C   UNL     1     -12.031  12.597  66.960  1.00  0.00    -0.260 C  
HETATM    7  C   UNL     1     -12.299  13.049  65.503  1.00  0.00    -0.472 C  
ENDROOT
BRANCH   5   8
HETATM    8  C   UNL     1     -10.539  10.661  66.540  1.00  0.00    -0.193 C  
BRANCH   8   9
HETATM    9  C   UNL     1      -9.289  10.558  65.646  1.00  0.00    -0.242 A  
HETATM   10  C   UNL     1      -8.011  10.482  66.236  1.00  0.00    -0.144 A  
HETATM   11  C   UNL     1      -9.374  10.444  64.251  1.00  0.00    -0.324 A  
HETATM   12  C   UNL     1      -6.868  10.277  65.456  1.00  0.00    -0.134 A  
HETATM   13  C   UNL     1      -6.979  10.155  64.074  1.00  0.00    -0.101 A  
HETATM   14  C   UNL     1      -8.232  10.252  63.472  1.00  0.00    -0.159 A  
ENDBRANCH   8   9
BRANCH   8  15
HETATM   15  C   UNL     1     -10.639   9.529  67.577  1.00  0.00    -0.338 A  
HETATM   16  C   UNL     1     -10.571   8.839  69.914  1.00  0.00    -0.230 A  
HETATM   17  C   UNL     1     -10.369   7.180  68.178  1.00  0.00    -0.234 A  
HETATM   18  C   UNL     1     -10.702   9.839  68.949  1.00  0.00    -0.241 A  
HETATM   19  C   UNL     1     -10.487   8.180  67.211  1.00  0.00    -0.379 A  
HETATM   20  C   UNL     1     -10.397   7.512  69.530  1.00  0.00    -0.216 A  
ENDBRANCH   8  15
ENDBRANCH   5   8
TORSDOF 3
ENDMDL
MODEL      113
REMARK 921   NORMALIZED FREE ENERGY PREDICTED BY IDOCK:   -3.91 KCAL/MOL
REMARK 922        TOTAL FREE ENERGY PREDICTED BY IDOCK:   -4.56 KCAL/MOL
REMARK 923 INTER-LIGAND FREE ENERGY PREDICTED BY IDOCK:   -4.12 KCAL/MOL
REMARK 924 INTRA-LIGAND FREE ENERGY PREDICTED BY IDOCK:   -0.44 KCAL/MOL
REMARK 927      BINDING AFFINITY PREDICTED BY RF-SCORE:    0.00 PKD
ROOT
HETATM    1  C   UNL     1     -11.914  13.513  68.118  1.00  0.00    -0.341 C  
HETATM    2  N   UNL     1     -11.950  12.170  67.541  1.00  0.00    -0.553 NA 
HETATM    3  C   UNL     1     -10.798  11.934  66.646  1.00  0.00    -0.276 C  
HETATM    4  C   UNL     1      -9.459  11.621  67.359  1.00  0.00    -0.167 C  
HETATM    5  N   UNL     1      -9.520  10.534  68.363  1.00  0.00    -0.152 NA 
HETATM    6  C   UNL     1     -10.632  10.873  69.290  1.00  0.00    -0.217 C  
HETATM    7  C   UNL     1     -11.992  11.142  68.599  1.00  0.00    -0.219 C  
ENDROOT
BRANCH   5   8
HETATM    8  C   UNL     1      -9.693   9.178  67.744  1.00  0.00    -0.154 C  
BRANCH   8   9
HETATM    9  C   UNL     1      -8.503   8.766  66.856  1.00  0.00    -0.112 A  
HETATM   10  C   UNL     1      -7.244   8.524  67.441  1.00  0.00    -0.084 A  
HETATM   11  C   UNL     1      -8.642   8.533  65.480  1.00  0.00    -0.204 A  
HETATM   12  C   UNL     1      -6.174   8.043  66.678  1.00  0.00    -0.054 A  
HETATM   13  C   UNL     1      -6.339   7.807  65.316  1.00  0.00    -0.038 A  
HETATM   14  C   UNL     1      -7.571   8.064  64.717  1.00  0.00    -0.105 A  
ENDBRANCH   8   9
BRANCH   8  15
HETATM   15  C   UNL     1     -10.050   8.123  68.805  1.00  0.00    -0.211 A  
HETATM   16  C   UNL     1      -9.529   7.058  70.935  1.00  0.00    -0.160 A  
HETATM   17  C   UNL     1     -11.049   5.980  69.406  1.00  0.00    -0.445 A  
HETATM   18  C   UNL     1      -9.386   8.125  70.047  1.00  0.00    -0.159 A  
HETATM   19  C   UNL     1     -10.896   7.039  68.511  1.00  0.00    -0.187 A  
HETATM   20  C   UNL     1     -10.354   5.982  70.613  1.00  0.00    -0.280 A  
ENDBRANCH   8  15
ENDBRANCH   5   8
TORSDOF 3
ENDMDL
MODEL      114
REMARK 921   NORMALIZED FREE ENERGY PREDICTED BY IDOCK:   -3.88 KCAL/MOL
REMARK 922        TOTAL FREE ENERGY PREDICTED BY IDOCK:   -4.53 KCAL/MOL
REMARK 923 INTER-LIGAND FREE ENERGY PREDICTED BY IDOCK:   -4.52 KCAL/MOL
REMARK 924 INTRA-LIGAND FREE ENERGY PREDICTED BY IDOCK:   -0.01 KCAL/MOL
REMARK 927      BINDING AFFINITY PREDICTED BY RF-SCORE:    0.00 PKD
ROOT
HETATM    1  C   UNL     1      -8.600   8.734  65.472  1.00  0.00    -0.174 C  
HETATM    2  N   UNL     1      -9.628   7.897  66.088  1.00  0.00    -0.117 NA 
HETATM    3  C   UNL     1      -9.147   6.516  66.302  1.00  0.00    -0.148 C  
HETATM    4  C   UNL     1      -8.217   6.322  67.525  1.00  0.00    -0.113 C  
HETATM    5  N   UNL     1      -8.742   6.853  68.805  1.00  0.00    -0.130 NA 
HETATM    6  C   UNL     1      -9.120   8.270  68.554  1.00  0.00    -0.136 C  
HETATM    7  C   UNL     1     -10.089   8.479  67.364  1.00  0.00    -0.234 C  
ENDROOT
BRANCH   5   8
HETATM    8  C   UNL     1      -9.887   6.048  69.345  1.00  0.00    -0.163 C  
BRANCH   8   9
HETATM    9  C   UNL     1      -9.541   4.558  69.527  1.00  0.00    -0.266 A  
HETATM   10  C   UNL     1      -9.383   4.029  70.824  1.00  0.00    -0.217 A  
HETATM   11  C   UNL     1      -9.462   3.671  68.443  1.00  0.00    -0.214 A  
HETATM   12  C   UNL     1      -9.179   2.660  71.024  1.00  0.00    -0.199 A  
HETATM   13  C   UNL     1      -9.116   1.797  69.934  1.00  0.00    -0.151 A  
HETATM   14  C   UNL     1      -9.246   2.306  68.643  1.00  0.00    -0.227 A  
ENDBRANCH   8   9
BRANCH   8  15
HETATM   15  C   UNL     1     -10.473   6.694  70.612  1.00  0.00    -0.253 A  
HETATM   16  C   UNL     1     -12.419   7.577  71.786  1.00  0.00    -0.360 A  
HETATM   17  C   UNL     1     -10.207   8.103  72.586  1.00  0.00    -0.388 A  
HETATM   18  C   UNL     1     -11.869   6.806  70.760  1.00  0.00    -0.446 A  
HETATM   19  C   UNL     1      -9.655   7.343  71.554  1.00  0.00    -0.163 A  
HETATM   20  C   UNL     1     -11.589   8.231  72.693  1.00  0.00    -0.419 A  
ENDBRANCH   8  15
ENDBRANCH   5   8
TORSDOF 3
ENDMDL
MODEL      115
REMARK 921   NORMALIZED FREE ENERGY PREDICTED BY IDOCK:   -3.84 KCAL/MOL
REMARK 922        TOTAL FREE ENERGY PREDICTED BY IDOCK:   -4.48 KCAL/MOL
REMARK 923 INTER-LIGAND FREE ENERGY PREDICTED BY IDOCK:   -4.64 KCAL/MOL
REMARK 924 INTRA-LIGAND FREE ENERGY PREDICTED BY IDOCK:    0.16 KCAL/MOL
REMARK 927      BINDING AFFINITY PREDICTED BY RF-SCORE:    0.00 PKD
ROOT
HETATM    1  C   UNL     1     -12.581  12.413  63.383  1.00  0.00    -0.366 C  
HETATM    2  N   UNL     1     -12.448  12.371  64.838  1.00  0.00    -0.549 NA 
HETATM    3  C   UNL     1     -11.301  11.537  65.254  1.00  0.00    -0.081 C  
HETATM    4  C   UNL     1      -9.912  12.207  65.118  1.00  0.00    -0.228 C  
HETATM    5  N   UNL     1      -9.792  13.540  65.753  1.00  0.00    -0.242 NA 
HETATM    6  C   UNL     1     -10.912  14.364  65.225  1.00  0.00    -0.350 C  
HETATM    7  C   UNL     1     -12.316  13.731  65.396  1.00  0.00    -0.475 C  
ENDROOT
BRANCH   5   8
HETATM    8  C   UNL     1      -9.793  13.475  67.252  1.00  0.00    -0.237 C  
BRANCH   8   9
HETATM    9  C   UNL     1      -9.167  12.178  67.798  1.00  0.00    -0.189 A  
HETATM   10  C   UNL     1      -7.848  11.833  67.440  1.00  0.00    -0.155 A  
HETATM   11  C   UNL     1      -9.831  11.357  68.721  1.00  0.00    -0.175 A  
HETATM   12  C   UNL     1      -7.215  10.721  68.007  1.00  0.00    -0.086 A  
HETATM   13  C   UNL     1      -7.890   9.928  68.929  1.00  0.00    -0.091 A  
HETATM   14  C   UNL     1      -9.203  10.241  69.276  1.00  0.00    -0.215 A  
ENDBRANCH   8   9
BRANCH   8  15
HETATM   15  C   UNL     1      -9.184  14.748  67.865  1.00  0.00    -0.191 A  
HETATM   16  C   UNL     1      -9.408  17.120  68.379  1.00  0.00    -0.273 A  
HETATM   17  C   UNL     1      -7.232  16.087  68.454  1.00  0.00    -0.126 A  
HETATM   18  C   UNL     1      -9.982  15.895  68.035  1.00  0.00    -0.220 A  
HETATM   19  C   UNL     1      -7.802  14.865  68.097  1.00  0.00    -0.122 A  
HETATM   20  C   UNL     1      -8.033  17.218  68.581  1.00  0.00    -0.267 A  
ENDBRANCH   8  15
ENDBRANCH   5   8
TORSDOF 3
ENDMDL
MODEL      116
REMARK 921   NORMALIZED FREE ENERGY PREDICTED BY IDOCK:   -3.83 KCAL/MOL
REMARK 922        TOTAL FREE ENERGY PREDICTED BY IDOCK:   -4.46 KCAL/MOL
REMARK 923 INTER-LIGAND FREE ENERGY PREDICTED BY IDOCK:   -4.30 KCAL/MOL
REMARK 924 INTRA-LIGAND FREE ENERGY PREDICTED BY IDOCK:   -0.16 KCAL/MOL
REMARK 927      BINDING AFFINITY PREDICTED BY RF-SCORE:    0.00 PKD
ROOT
HETATM    1  C   UNL     1      -8.188   3.251  66.239  1.00  0.00    -0.097 C  
HETATM    2  N   UNL     1      -7.776   4.455  66.960  1.00  0.00    -0.089 NA 
HETATM    3  C   UNL     1      -8.233   5.681  66.273  1.00  0.00    -0.108 C  
HETATM    4  C   UNL     1      -9.726   6.036  66.477  1.00  0.00    -0.149 C  
HETATM    5  N   UNL     1     -10.175   6.079  67.888  1.00  0.00    -0.159 NA 
HETATM    6  C   UNL     1      -9.774   4.785  68.501  1.00  0.00    -0.151 C  
HETATM    7  C   UNL     1      -8.273   4.434  68.349  1.00  0.00    -0.085 C  
ENDROOT
BRANCH   5   8
HETATM    8  C   UNL     1      -9.626   7.256  68.639  1.00  0.00    -0.141 C  
BRANCH   8   9
HETATM    9  C   UNL     1      -9.398   8.488  67.744  1.00  0.00    -0.153 A  
HETATM   10  C   UNL     1     -10.504   9.167  67.192  1.00  0.00    -0.325 A  
HETATM   11  C   UNL     1      -8.122   9.026  67.520  1.00  0.00    -0.108 A  
HETATM   12  C   UNL     1     -10.335  10.351  66.467  1.00  0.00    -0.287 A  
HETATM   13  C   UNL     1      -9.060  10.872  66.269  1.00  0.00    -0.192 A  
HETATM   14  C   UNL     1      -7.953  10.201  66.787  1.00  0.00    -0.115 A  
ENDBRANCH   8   9
BRANCH   8  15
HETATM   15  C   UNL     1     -10.470   7.562  69.889  1.00  0.00    -0.232 A  
HETATM   16  C   UNL     1     -10.678   8.721  72.023  1.00  0.00    -0.417 A  
HETATM   17  C   UNL     1     -12.172   6.901  71.506  1.00  0.00    -0.415 A  
HETATM   18  C   UNL     1     -10.060   8.572  70.781  1.00  0.00    -0.237 A  
HETATM   19  C   UNL     1     -11.547   6.742  70.269  1.00  0.00    -0.417 A  
HETATM   20  C   UNL     1     -11.728   7.882  72.390  1.00  0.00    -0.423 A  
ENDBRANCH   8  15
ENDBRANCH   5   8
TORSDOF 3
ENDMDL
MODEL      117
REMARK 921   NORMALIZED FREE ENERGY PREDICTED BY IDOCK:   -3.82 KCAL/MOL
REMARK 922        TOTAL FREE ENERGY PREDICTED BY IDOCK:   -4.46 KCAL/MOL
REMARK 923 INTER-LIGAND FREE ENERGY PREDICTED BY IDOCK:   -3.85 KCAL/MOL
REMARK 924 INTRA-LIGAND FREE ENERGY PREDICTED BY IDOCK:   -0.61 KCAL/MOL
REMARK 927      BINDING AFFINITY PREDICTED BY RF-SCORE:    0.00 PKD
ROOT
HETATM    1  C   UNL     1     -11.966  10.744  70.338  1.00  0.00    -0.357 C  
HETATM    2  N   UNL     1     -10.717  10.050  70.646  1.00  0.00    -0.297 NA 
HETATM    3  C   UNL     1     -10.865   9.162  71.818  1.00  0.00    -0.345 C  
HETATM    4  C   UNL     1     -11.577   7.814  71.541  1.00  0.00    -0.270 C  
HETATM    5  N   UNL     1     -11.025   7.033  70.411  1.00  0.00    -0.257 NA 
HETATM    6  C   UNL     1     -10.989   7.947  69.238  1.00  0.00     0.024 C  
HETATM    7  C   UNL     1     -10.239   9.280  69.481  1.00  0.00    -0.207 C  
ENDROOT
BRANCH   5   8
HETATM    8  C   UNL     1      -9.678   6.443  70.711  1.00  0.00    -0.180 C  
BRANCH   8   9
HETATM    9  C   UNL     1      -9.660   5.616  72.010  1.00  0.00    -0.173 A  
HETATM   10  C   UNL     1      -8.593   5.762  72.919  1.00  0.00    -0.122 A  
HETATM   11  C   UNL     1     -10.722   4.775  72.377  1.00  0.00    -0.216 A  
HETATM   12  C   UNL     1      -8.603   5.109  74.156  1.00  0.00    -0.114 A  
HETATM   13  C   UNL     1      -9.673   4.289  74.502  1.00  0.00    -0.162 A  
HETATM   14  C   UNL     1     -10.726   4.114  73.606  1.00  0.00    -0.318 A  
ENDBRANCH   8   9
BRANCH   8  15
HETATM   15  C   UNL     1      -9.121   5.679  69.498  1.00  0.00    -0.143 A  
HETATM   16  C   UNL     1      -9.175   3.688  68.092  1.00  0.00    -0.221 A  
HETATM   17  C   UNL     1      -7.283   5.176  67.975  1.00  0.00    -0.067 A  
HETATM   18  C   UNL     1      -9.774   4.517  69.042  1.00  0.00    -0.235 A  
HETATM   19  C   UNL     1      -7.874   6.000  68.934  1.00  0.00    -0.096 A  
HETATM   20  C   UNL     1      -7.927   4.012  67.565  1.00  0.00    -0.091 A  
ENDBRANCH   8  15
ENDBRANCH   5   8
TORSDOF 3
ENDMDL
MODEL      118
REMARK 921   NORMALIZED FREE ENERGY PREDICTED BY IDOCK:   -3.82 KCAL/MOL
REMARK 922        TOTAL FREE ENERGY PREDICTED BY IDOCK:   -4.46 KCAL/MOL
REMARK 923 INTER-LIGAND FREE ENERGY PREDICTED BY IDOCK:   -3.94 KCAL/MOL
REMARK 924 INTRA-LIGAND FREE ENERGY PREDICTED BY IDOCK:   -0.52 KCAL/MOL
REMARK 927      BINDING AFFINITY PREDICTED BY RF-SCORE:    0.00 PKD
ROOT
HETATM    1  C   UNL     1     -11.526   9.474  71.314  1.00  0.00    -0.377 C  
HETATM    2  N   UNL     1     -10.343   9.994  70.632  1.00  0.00    -0.188 NA 
HETATM    3  C   UNL     1      -9.555   8.910  70.009  1.00  0.00    -0.178 C  
HETATM    4  C   UNL     1     -10.119   8.365  68.673  1.00  0.00    -0.193 C  
HETATM    5  N   UNL     1     -10.415   9.395  67.650  1.00  0.00    -0.254 NA 
HETATM    6  C   UNL     1     -11.287  10.407  68.305  1.00  0.00    -0.224 C  
HETATM    7  C   UNL     1     -10.716  10.999  69.617  1.00  0.00    -0.139 C  
ENDROOT
BRANCH   5   8
HETATM    8  C   UNL     1      -9.178  10.007  67.063  1.00  0.00    -0.146 C  
BRANCH   8   9
HETATM    9  C   UNL     1      -8.119   8.961  66.667  1.00  0.00    -0.107 A  
HETATM   10  C   UNL     1      -6.851   8.979  67.283  1.00  0.00    -0.077 A  
HETATM   11  C   UNL     1      -8.396   7.918  65.770  1.00  0.00    -0.139 A  
HETATM   12  C   UNL     1      -5.910   7.977  67.026  1.00  0.00    -0.045 A  
HETATM   13  C   UNL     1      -6.212   6.946  66.141  1.00  0.00    -0.042 A  
HETATM   14  C   UNL     1      -7.452   6.925  65.504  1.00  0.00    -0.086 A  
ENDBRANCH   8   9
BRANCH   8  15
HETATM   15  C   UNL     1      -9.524  10.980  65.924  1.00  0.00    -0.244 A  
HETATM   16  C   UNL     1      -9.810  13.281  65.170  1.00  0.00    -0.078 A  
HETATM   17  C   UNL     1     -10.716  11.477  63.854  1.00  0.00    -0.458 A  
HETATM   18  C   UNL     1      -9.306  12.361  66.091  1.00  0.00    -0.155 A  
HETATM   19  C   UNL     1     -10.224  10.556  64.780  1.00  0.00    -0.373 A  
HETATM   20  C   UNL     1     -10.521  12.840  64.056  1.00  0.00    -0.433 A  
ENDBRANCH   8  15
ENDBRANCH   5   8
TORSDOF 3
ENDMDL
MODEL      119
REMARK 921   NORMALIZED FREE ENERGY PREDICTED BY IDOCK:   -3.81 KCAL/MOL
REMARK 922        TOTAL FREE ENERGY PREDICTED BY IDOCK:   -4.44 KCAL/MOL
REMARK 923 INTER-LIGAND FREE ENERGY PREDICTED BY IDOCK:   -4.05 KCAL/MOL
REMARK 924 INTRA-LIGAND FREE ENERGY PREDICTED BY IDOCK:   -0.40 KCAL/MOL
REMARK 927      BINDING AFFINITY PREDICTED BY RF-SCORE:    0.00 PKD
ROOT
HETATM    1  C   UNL     1     -12.518  12.101  63.826  1.00  0.00    -0.514 C  
HETATM    2  N   UNL     1     -11.450  13.098  63.884  1.00  0.00    -0.406 NA 
HETATM    3  C   UNL     1     -11.879  14.308  64.616  1.00  0.00    -0.448 C  
HETATM    4  C   UNL     1     -11.882  14.182  66.159  1.00  0.00    -0.407 C  
HETATM    5  N   UNL     1     -10.620  13.681  66.752  1.00  0.00    -0.272 NA 
HETATM    6  C   UNL     1     -10.291  12.416  66.045  1.00  0.00    -0.251 C  
HETATM    7  C   UNL     1     -10.234  12.534  64.501  1.00  0.00    -0.307 C  
ENDROOT
BRANCH   5   8
HETATM    8  C   UNL     1      -9.504  14.681  66.676  1.00  0.00    -0.278 C  
BRANCH   8   9
HETATM    9  C   UNL     1      -9.986  16.134  66.843  1.00  0.00    -0.258 A  
HETATM   10  C   UNL     1     -10.667  16.516  68.017  1.00  0.00    -0.343 A  
HETATM   11  C   UNL     1      -9.694  17.132  65.902  1.00  0.00    -0.140 A  
HETATM   12  C   UNL     1     -11.018  17.850  68.246  1.00  0.00     0.041 A  
HETATM   13  C   UNL     1     -10.708  18.825  67.302  1.00  0.00    -0.490 A  
HETATM   14  C   UNL     1     -10.056  18.462  66.125  1.00  0.00    -0.376 A  
ENDBRANCH   8   9
BRANCH   8  15
HETATM   15  C   UNL     1      -8.357  14.308  67.632  1.00  0.00    -0.187 A  
HETATM   16  C   UNL     1      -7.583  13.976  69.919  1.00  0.00     0.648 A  
HETATM   17  C   UNL     1      -5.973  14.215  68.141  1.00  0.00    -0.133 A  
HETATM   18  C   UNL     1      -8.625  14.096  68.998  1.00  0.00     0.109 A  
HETATM   19  C   UNL     1      -7.013  14.349  67.220  1.00  0.00     0.078 A  
HETATM   20  C   UNL     1      -6.258  14.043  69.493  1.00  0.00    -0.117 A  
ENDBRANCH   8  15
ENDBRANCH   5   8
TORSDOF 3
ENDMDL
MODEL      120
REMARK 921   NORMALIZED FREE ENERGY PREDICTED BY IDOCK:   -3.81 KCAL/MOL
REMARK 922        TOTAL FREE ENERGY PREDICTED BY IDOCK:   -4.44 KCAL/MOL
REMARK 923 INTER-LIGAND FREE ENERGY PREDICTED BY IDOCK:   -4.72 KCAL/MOL
REMARK 924 INTRA-LIGAND FREE ENERGY PREDICTED BY IDOCK:    0.27 KCAL/MOL
REMARK 927      BINDING AFFINITY PREDICTED BY RF-SCORE:    0.00 PKD
ROOT
HETATM    1  C   UNL     1     -12.654  12.278  63.349  1.00  0.00    -0.427 C  
HETATM    2  N   UNL     1     -12.344  11.898  64.726  1.00  0.00    -0.259 NA 
HETATM    3  C   UNL     1     -11.024  11.242  64.823  1.00  0.00    -0.192 C  
HETATM    4  C   UNL     1      -9.805  12.198  64.785  1.00  0.00    -0.133 C  
HETATM    5  N   UNL     1      -9.858  13.321  65.749  1.00  0.00    -0.239 NA 
HETATM    6  C   UNL     1     -11.164  14.001  65.539  1.00  0.00    -0.311 C  
HETATM    7  C   UNL     1     -12.398  13.069  65.622  1.00  0.00    -0.446 C  
ENDROOT
BRANCH   5   8
HETATM    8  C   UNL     1      -9.670  12.880  67.170  1.00  0.00    -0.221 C  
BRANCH   8   9
HETATM    9  C   UNL     1      -8.215  12.488  67.491  1.00  0.00    -0.175 A  
HETATM   10  C   UNL     1      -7.544  13.105  68.566  1.00  0.00    -0.122 A  
HETATM   11  C   UNL     1      -7.547  11.463  66.804  1.00  0.00    -0.143 A  
HETATM   12  C   UNL     1      -6.264  12.692  68.950  1.00  0.00    -0.081 A  
HETATM   13  C   UNL     1      -5.626  11.665  68.261  1.00  0.00    -0.045 A  
HETATM   14  C   UNL     1      -6.265  11.060  67.179  1.00  0.00    -0.075 A  
ENDBRANCH   8   9
BRANCH   8  15
HETATM   15  C   UNL     1     -10.252  13.909  68.154  1.00  0.00    -0.249 A  
HETATM   16  C   UNL     1     -11.914  14.453  69.853  1.00  0.00    -0.391 A  
HETATM   17  C   UNL     1     -10.681  16.227  68.785  1.00  0.00    -0.309 A  
HETATM   18  C   UNL     1     -11.213  13.508  69.102  1.00  0.00    -0.310 A  
HETATM   19  C   UNL     1      -9.988  15.284  68.023  1.00  0.00    -0.224 A  
HETATM   20  C   UNL     1     -11.654  15.811  69.690  1.00  0.00    -0.363 A  
ENDBRANCH   8  15
ENDBRANCH   5   8
TORSDOF 3
ENDMDL
MODEL      121
REMARK 921   NORMALIZED FREE ENERGY PREDICTED BY IDOCK:   -3.79 KCAL/MOL
REMARK 922        TOTAL FREE ENERGY PREDICTED BY IDOCK:   -4.42 KCAL/MOL
REMARK 923 INTER-LIGAND FREE ENERGY PREDICTED BY IDOCK:   -3.83 KCAL/MOL
REMARK 924 INTRA-LIGAND FREE ENERGY PREDICTED BY IDOCK:   -0.59 KCAL/MOL
REMARK 927      BINDING AFFINITY PREDICTED BY RF-SCORE:    0.00 PKD
ROOT
HETATM    1  C   UNL     1     -12.853  10.384  71.676  1.00  0.00    -0.474 C  
HETATM    2  N   UNL     1     -12.524   9.146  70.972  1.00  0.00    -0.235 NA 
HETATM    3  C   UNL     1     -11.208   9.236  70.306  1.00  0.00    -0.231 C  
HETATM    4  C   UNL     1      -9.982   9.064  71.237  1.00  0.00    -0.311 C  
HETATM    5  N   UNL     1     -10.008   7.856  72.094  1.00  0.00    -0.192 NA 
HETATM    6  C   UNL     1     -11.311   7.870  72.810  1.00  0.00    -0.393 C  
HETATM    7  C   UNL     1     -12.552   7.992  71.891  1.00  0.00    -0.328 C  
ENDROOT
BRANCH   5   8
HETATM    8  C   UNL     1      -9.800   6.587  71.321  1.00  0.00    -0.181 C  
BRANCH   8   9
HETATM    9  C   UNL     1      -8.672   6.697  70.278  1.00  0.00    -0.147 A  
HETATM   10  C   UNL     1      -7.337   6.850  70.704  1.00  0.00    -0.074 A  
HETATM   11  C   UNL     1      -8.908   6.560  68.902  1.00  0.00    -0.126 A  
HETATM   12  C   UNL     1      -6.281   6.842  69.786  1.00  0.00    -0.037 A  
HETATM   13  C   UNL     1      -6.539   6.693  68.427  1.00  0.00    -0.059 A  
HETATM   14  C   UNL     1      -7.855   6.564  67.986  1.00  0.00    -0.105 A  
ENDBRANCH   8   9
BRANCH   8  15
HETATM   15  C   UNL     1      -9.641   5.381  72.262  1.00  0.00    -0.179 A  
HETATM   16  C   UNL     1     -10.407   3.175  72.961  1.00  0.00    -0.246 A  
HETATM   17  C   UNL     1      -8.968   4.451  74.414  1.00  0.00    -0.106 A  
HETATM   18  C   UNL     1     -10.362   4.198  72.012  1.00  0.00    -0.145 A  
HETATM   19  C   UNL     1      -8.933   5.480  73.473  1.00  0.00    -0.125 A  
HETATM   20  C   UNL     1      -9.717   3.304  74.165  1.00  0.00    -0.139 A  
ENDBRANCH   8  15
ENDBRANCH   5   8
TORSDOF 3
ENDMDL
MODEL      122
REMARK 921   NORMALIZED FREE ENERGY PREDICTED BY IDOCK:   -3.68 KCAL/MOL
REMARK 922        TOTAL FREE ENERGY PREDICTED BY IDOCK:   -4.29 KCAL/MOL
REMARK 923 INTER-LIGAND FREE ENERGY PREDICTED BY IDOCK:   -3.69 KCAL/MOL
REMARK 924 INTRA-LIGAND FREE ENERGY PREDICTED BY IDOCK:   -0.60 KCAL/MOL
REMARK 927      BINDING AFFINITY PREDICTED BY RF-SCORE:    0.00 PKD
ROOT
HETATM    1  C   UNL     1      -7.770   7.363  65.351  1.00  0.00    -0.110 C  
HETATM    2  N   UNL     1      -7.659   7.961  66.680  1.00  0.00    -0.092 NA 
HETATM    3  C   UNL     1      -8.975   8.400  67.188  1.00  0.00    -0.137 C  
HETATM    4  C   UNL     1      -9.880   7.271  67.742  1.00  0.00    -0.149 C  
HETATM    5  N   UNL     1      -9.242   6.392  68.750  1.00  0.00    -0.127 NA 
HETATM    6  C   UNL     1      -7.973   5.906  68.147  1.00  0.00    -0.109 C  
HETATM    7  C   UNL     1      -7.032   7.023  67.631  1.00  0.00    -0.083 C  
ENDROOT
BRANCH   5   8
HETATM    8  C   UNL     1      -9.019   7.078  70.065  1.00  0.00    -0.142 C  
BRANCH   8   9
HETATM    9  C   UNL     1     -10.253   7.862  70.551  1.00  0.00    -0.198 A  
HETATM   10  C   UNL     1     -11.392   7.166  71.003  1.00  0.00    -0.310 A  
HETATM   11  C   UNL     1     -10.260   9.262  70.648  1.00  0.00    -0.335 A  
HETATM   12  C   UNL     1     -12.483   7.847  71.553  1.00  0.00    -0.341 A  
HETATM   13  C   UNL     1     -12.462   9.235  71.649  1.00  0.00    -0.448 A  
HETATM   14  C   UNL     1     -11.354   9.942  71.185  1.00  0.00    -0.443 A  
ENDBRANCH   8   9
BRANCH   8  15
HETATM   15  C   UNL     1      -8.470   6.100  71.117  1.00  0.00    -0.125 A  
HETATM   16  C   UNL     1      -8.558   3.894  72.151  1.00  0.00    -0.110 A  
HETATM   17  C   UNL     1      -7.410   5.690  73.276  1.00  0.00    -0.095 A  
HETATM   18  C   UNL     1      -8.862   4.748  71.090  1.00  0.00    -0.147 A  
HETATM   19  C   UNL     1      -7.724   6.549  72.222  1.00  0.00    -0.097 A  
HETATM   20  C   UNL     1      -7.839   4.366  73.247  1.00  0.00    -0.091 A  
ENDBRANCH   8  15
ENDBRANCH   5   8
TORSDOF 3
ENDMDL
MODEL      123
REMARK 921   NORMALIZED FREE ENERGY PREDICTED BY IDOCK:   -3.64 KCAL/MOL
REMARK 922        TOTAL FREE ENERGY PREDICTED BY IDOCK:   -4.24 KCAL/MOL
REMARK 923 INTER-LIGAND FREE ENERGY PREDICTED BY IDOCK:   -3.93 KCAL/MOL
REMARK 924 INTRA-LIGAND FREE ENERGY PREDICTED BY IDOCK:   -0.32 KCAL/MOL
REMARK 927      BINDING AFFINITY PREDICTED BY RF-SCORE:    0.00 PKD
ROOT
HETATM    1  C   UNL     1     -12.485  13.691  64.110  1.00  0.00    -0.234 C  
HETATM    2  N   UNL     1     -11.053  13.423  64.235  1.00  0.00    -0.382 NA 
HETATM    3  C   UNL     1     -10.347  14.543  64.891  1.00  0.00    -0.371 C  
HETATM    4  C   UNL     1     -10.496  14.608  66.431  1.00  0.00    -0.295 C  
HETATM    5  N   UNL     1     -10.178  13.351  67.147  1.00  0.00    -0.245 NA 
HETATM    6  C   UNL     1     -10.987  12.280  66.508  1.00  0.00    -0.279 C  
HETATM    7  C   UNL     1     -10.813  12.167  64.973  1.00  0.00    -0.300 C  
ENDROOT
BRANCH   5   8
HETATM    8  C   UNL     1      -8.711  13.032  67.142  1.00  0.00    -0.204 C  
BRANCH   8   9
HETATM    9  C   UNL     1      -7.861  14.103  67.852  1.00  0.00    -0.157 A  
HETATM   10  C   UNL     1      -6.518  14.297  67.471  1.00  0.00    -0.064 A  
HETATM   11  C   UNL     1      -8.400  14.969  68.816  1.00  0.00    -0.174 A  
HETATM   12  C   UNL     1      -5.755  15.334  68.019  1.00  0.00    -0.148 A  
HETATM   13  C   UNL     1      -6.315  16.187  68.965  1.00  0.00    -0.148 A  
HETATM   14  C   UNL     1      -7.635  15.995  69.371  1.00  0.00    -0.191 A  
ENDBRANCH   8   9
BRANCH   8  15
HETATM   15  C   UNL     1      -8.449  11.608  67.661  1.00  0.00    -0.142 A  
HETATM   16  C   UNL     1      -7.699   9.334  67.202  1.00  0.00    -0.095 A  
HETATM   17  C   UNL     1      -8.964   9.789  69.202  1.00  0.00    -0.161 A  
HETATM   18  C   UNL     1      -7.758  10.685  66.853  1.00  0.00    -0.122 A  
HETATM   19  C   UNL     1      -9.036  11.137  68.849  1.00  0.00    -0.089 A  
HETATM   20  C   UNL     1      -8.308   8.885  68.372  1.00  0.00    -0.125 A  
ENDBRANCH   8  15
ENDBRANCH   5   8
TORSDOF 3
ENDMDL
MODEL      124
REMARK 921   NORMALIZED FREE ENERGY PREDICTED BY IDOCK:   -3.61 KCAL/MOL
REMARK 922        TOTAL FREE ENERGY PREDICTED BY IDOCK:   -4.21 KCAL/MOL
REMARK 923 INTER-LIGAND FREE ENERGY PREDICTED BY IDOCK:   -4.39 KCAL/MOL
REMARK 924 INTRA-LIGAND FREE ENERGY PREDICTED BY IDOCK:    0.18 KCAL/MOL
REMARK 927      BINDING AFFINITY PREDICTED BY RF-SCORE:    0.00 PKD
ROOT
HETATM    1  C   UNL     1     -10.520  19.082  67.798  1.00  0.00    -0.417 C  
HETATM    2  N   UNL     1      -9.768  18.042  67.098  1.00  0.00    -0.288 NA 
HETATM    3  C   UNL     1      -8.592  17.605  67.879  1.00  0.00    -0.238 C  
HETATM    4  C   UNL     1      -8.897  16.636  69.048  1.00  0.00    -0.201 C  
HETATM    5  N   UNL     1      -9.703  15.448  68.685  1.00  0.00    -0.203 NA 
HETATM    6  C   UNL     1     -10.916  15.953  67.990  1.00  0.00    -0.336 C  
HETATM    7  C   UNL     1     -10.631  16.886  66.786  1.00  0.00    -0.201 C  
ENDROOT
BRANCH   5   8
HETATM    8  C   UNL     1      -8.943  14.459  67.852  1.00  0.00    -0.186 C  
BRANCH   8   9
HETATM    9  C   UNL     1      -7.559  14.117  68.437  1.00  0.00    -0.130 A  
HETATM   10  C   UNL     1      -7.188  14.625  69.699  1.00  0.00    -0.098 A  
HETATM   11  C   UNL     1      -6.673  13.236  67.800  1.00  0.00    -0.154 A  
HETATM   12  C   UNL     1      -5.986  14.243  70.305  1.00  0.00    -0.157 A  
HETATM   13  C   UNL     1      -5.129  13.359  69.658  1.00  0.00    -0.084 A  
HETATM   14  C   UNL     1      -5.469  12.865  68.399  1.00  0.00    -0.063 A  
ENDBRANCH   8   9
BRANCH   8  15
HETATM   15  C   UNL     1      -9.796  13.215  67.546  1.00  0.00    -0.216 A  
HETATM   16  C   UNL     1     -11.122  11.348  68.381  1.00  0.00    -0.296 A  
HETATM   17  C   UNL     1     -10.345  11.329  66.100  1.00  0.00    -0.300 A  
HETATM   18  C   UNL     1     -10.522  12.593  68.580  1.00  0.00    -0.249 A  
HETATM   19  C   UNL     1      -9.733  12.567  66.300  1.00  0.00    -0.259 A  
HETATM   20  C   UNL     1     -11.027  10.713  67.145  1.00  0.00    -0.312 A  
ENDBRANCH   8  15
ENDBRANCH   5   8
TORSDOF 3
ENDMDL
MODEL      125
REMARK 921   NORMALIZED FREE ENERGY PREDICTED BY IDOCK:   -3.58 KCAL/MOL
REMARK 922        TOTAL FREE ENERGY PREDICTED BY IDOCK:   -4.17 KCAL/MOL
REMARK 923 INTER-LIGAND FREE ENERGY PREDICTED BY IDOCK:   -3.80 KCAL/MOL
REMARK 924 INTRA-LIGAND FREE ENERGY PREDICTED BY IDOCK:   -0.37 KCAL/MOL
REMARK 927      BINDING AFFINITY PREDICTED BY RF-SCORE:    0.00 PKD
ROOT
HETATM    1  C   UNL     1     -11.084   4.199  73.264  1.00  0.00    -0.222 C  
HETATM    2  N   UNL     1     -10.156   5.283  72.948  1.00  0.00    -0.169 NA 
HETATM    3  C   UNL     1      -9.216   4.897  71.875  1.00  0.00    -0.140 C  
HETATM    4  C   UNL     1      -9.797   4.940  70.440  1.00  0.00    -0.232 C  
HETATM    5  N   UNL     1     -10.458   6.213  70.067  1.00  0.00    -0.213 NA 
HETATM    6  C   UNL     1     -11.457   6.500  71.131  1.00  0.00    -0.326 C  
HETATM    7  C   UNL     1     -10.885   6.510  72.570  1.00  0.00    -0.239 C  
ENDROOT
BRANCH   5   8
HETATM    8  C   UNL     1      -9.487   7.342  69.881  1.00  0.00    -0.157 C  
BRANCH   8   9
HETATM    9  C   UNL     1      -8.305   6.973  68.965  1.00  0.00    -0.126 A  
HETATM   10  C   UNL     1      -8.546   6.313  67.743  1.00  0.00    -0.115 A  
HETATM   11  C   UNL     1      -6.986   7.352  69.255  1.00  0.00    -0.065 A  
HETATM   12  C   UNL     1      -7.507   6.064  66.840  1.00  0.00    -0.084 A  
HETATM   13  C   UNL     1      -6.208   6.460  67.145  1.00  0.00    -0.036 A  
HETATM   14  C   UNL     1      -5.948   7.093  68.360  1.00  0.00    -0.026 A  
ENDBRANCH   8   9
BRANCH   8  15
HETATM   15  C   UNL     1     -10.208   8.631  69.453  1.00  0.00    -0.211 A  
HETATM   16  C   UNL     1     -10.934  10.107  67.653  1.00  0.00    -0.331 A  
HETATM   17  C   UNL     1     -10.905  10.921  69.921  1.00  0.00    -0.205 A  
HETATM   18  C   UNL     1     -10.484   8.860  68.091  1.00  0.00    -0.254 A  
HETATM   19  C   UNL     1     -10.443   9.680  70.359  1.00  0.00    -0.352 A  
HETATM   20  C   UNL     1     -11.137  11.139  68.565  1.00  0.00    -0.298 A  
ENDBRANCH   8  15
ENDBRANCH   5   8
TORSDOF 3
ENDMDL
MODEL      126
REMARK 921   NORMALIZED FREE ENERGY PREDICTED BY IDOCK:   -3.54 KCAL/MOL
REMARK 922        TOTAL FREE ENERGY PREDICTED BY IDOCK:   -4.12 KCAL/MOL
REMARK 923 INTER-LIGAND FREE ENERGY PREDICTED BY IDOCK:   -3.59 KCAL/MOL
REMARK 924 INTRA-LIGAND FREE ENERGY PREDICTED BY IDOCK:   -0.54 KCAL/MOL
REMARK 927      BINDING AFFINITY PREDICTED BY RF-SCORE:    0.00 PKD
ROOT
HETATM    1  C   UNL     1      -8.208   6.858  71.499  1.00  0.00    -0.110 C  
HETATM    2  N   UNL     1      -8.974   7.118  70.282  1.00  0.00    -0.151 NA 
HETATM    3  C   UNL     1      -9.799   8.338  70.411  1.00  0.00    -0.186 C  
HETATM    4  C   UNL     1      -9.033   9.674  70.247  1.00  0.00    -0.219 C  
HETATM    5  N   UNL     1      -8.205   9.778  69.023  1.00  0.00    -0.114 NA 
HETATM    6  C   UNL     1      -7.331   8.576  68.997  1.00  0.00    -0.081 C  
HETATM    7  C   UNL     1      -8.083   7.227  69.110  1.00  0.00    -0.121 C  
ENDROOT
BRANCH   5   8
HETATM    8  C   UNL     1      -9.026   9.910  67.773  1.00  0.00    -0.131 C  
BRANCH   8   9
HETATM    9  C   UNL     1      -9.736  11.272  67.661  1.00  0.00    -0.183 A  
HETATM   10  C   UNL     1      -9.120  12.428  68.183  1.00  0.00    -0.200 A  
HETATM   11  C   UNL     1     -10.947  11.431  66.972  1.00  0.00    -0.347 A  
HETATM   12  C   UNL     1      -9.688  13.693  67.999  1.00  0.00    -0.226 A  
HETATM   13  C   UNL     1     -10.884  13.827  67.302  1.00  0.00    -0.292 A  
HETATM   14  C   UNL     1     -11.519  12.692  66.799  1.00  0.00    -0.410 A  
ENDBRANCH   8   9
BRANCH   8  15
HETATM   15  C   UNL     1      -8.201   9.552  66.525  1.00  0.00    -0.119 A  
HETATM   16  C   UNL     1      -6.504  10.199  64.899  1.00  0.00    -0.129 A  
HETATM   17  C   UNL     1      -7.967   8.345  64.418  1.00  0.00    -0.148 A  
HETATM   18  C   UNL     1      -7.125  10.373  66.137  1.00  0.00    -0.130 A  
HETATM   19  C   UNL     1      -8.598   8.525  65.650  1.00  0.00    -0.200 A  
HETATM   20  C   UNL     1      -6.929   9.191  64.037  1.00  0.00    -0.089 A  
ENDBRANCH   8  15
ENDBRANCH   5   8
TORSDOF 3
ENDMDL
MODEL      127
REMARK 921   NORMALIZED FREE ENERGY PREDICTED BY IDOCK:   -3.50 KCAL/MOL
REMARK 922        TOTAL FREE ENERGY PREDICTED BY IDOCK:   -4.08 KCAL/MOL
REMARK 923 INTER-LIGAND FREE ENERGY PREDICTED BY IDOCK:   -3.49 KCAL/MOL
REMARK 924 INTRA-LIGAND FREE ENERGY PREDICTED BY IDOCK:   -0.60 KCAL/MOL
REMARK 927      BINDING AFFINITY PREDICTED BY RF-SCORE:    0.00 PKD
ROOT
HETATM    1  C   UNL     1      -6.859   4.764  64.129  1.00  0.00    -0.048 C  
HETATM    2  N   UNL     1      -6.641   5.478  65.386  1.00  0.00    -0.039 NA 
HETATM    3  C   UNL     1      -6.911   6.923  65.242  1.00  0.00    -0.051 C  
HETATM    4  C   UNL     1      -8.408   7.320  65.246  1.00  0.00    -0.104 C  
HETATM    5  N   UNL     1      -9.195   6.793  66.385  1.00  0.00    -0.163 NA 
HETATM    6  C   UNL     1      -8.960   5.325  66.421  1.00  0.00    -0.128 C  
HETATM    7  C   UNL     1      -7.469   4.910  66.468  1.00  0.00    -0.087 C  
ENDROOT
BRANCH   5   8
HETATM    8  C   UNL     1      -8.851   7.455  67.687  1.00  0.00    -0.127 C  
BRANCH   8   9
HETATM    9  C   UNL     1      -9.197   8.956  67.708  1.00  0.00    -0.153 A  
HETATM   10  C   UNL     1      -8.235   9.890  68.144  1.00  0.00    -0.109 A  
HETATM   11  C   UNL     1     -10.415   9.450  67.221  1.00  0.00    -0.332 A  
HETATM   12  C   UNL     1      -8.480  11.265  68.070  1.00  0.00    -0.138 A  
HETATM   13  C   UNL     1      -9.692  11.732  67.572  1.00  0.00    -0.185 A  
HETATM   14  C   UNL     1     -10.664  10.822  67.159  1.00  0.00    -0.324 A  
ENDBRANCH   8   9
BRANCH   8  15
HETATM   15  C   UNL     1      -9.441   6.680  68.878  1.00  0.00    -0.130 A  
HETATM   16  C   UNL     1     -11.380   6.148  70.257  1.00  0.00    -0.414 A  
HETATM   17  C   UNL     1      -9.168   5.630  71.063  1.00  0.00    -0.173 A  
HETATM   18  C   UNL     1     -10.835   6.651  69.074  1.00  0.00    -0.324 A  
HETATM   19  C   UNL     1      -8.621   6.145  69.887  1.00  0.00    -0.132 A  
HETATM   20  C   UNL     1     -10.547   5.645  71.254  1.00  0.00    -0.321 A  
ENDBRANCH   8  15
ENDBRANCH   5   8
TORSDOF 3
ENDMDL
MODEL      128
REMARK 921   NORMALIZED FREE ENERGY PREDICTED BY IDOCK:   -3.49 KCAL/MOL
REMARK 922        TOTAL FREE ENERGY PREDICTED BY IDOCK:   -4.07 KCAL/MOL
REMARK 923 INTER-LIGAND FREE ENERGY PREDICTED BY IDOCK:   -3.86 KCAL/MOL
REMARK 924 INTRA-LIGAND FREE ENERGY PREDICTED BY IDOCK:   -0.21 KCAL/MOL
REMARK 927      BINDING AFFINITY PREDICTED BY RF-SCORE:    0.00 PKD
ROOT
HETATM    1  C   UNL     1      -5.959   8.712  72.617  1.00  0.00    -0.080 C  
HETATM    2  N   UNL     1      -6.147   7.354  72.109  1.00  0.00    -0.040 NA 
HETATM    3  C   UNL     1      -7.039   6.567  72.985  1.00  0.00    -0.081 C  
HETATM    4  C   UNL     1      -8.551   6.863  72.828  1.00  0.00    -0.119 C  
HETATM    5  N   UNL     1      -9.063   6.803  71.439  1.00  0.00    -0.143 NA 
HETATM    6  C   UNL     1      -8.187   7.687  70.625  1.00  0.00    -0.113 C  
HETATM    7  C   UNL     1      -6.674   7.374  70.730  1.00  0.00    -0.047 C  
ENDROOT
BRANCH   5   8
HETATM    8  C   UNL     1      -9.117   5.405  70.898  1.00  0.00    -0.139 C  
BRANCH   8   9
HETATM    9  C   UNL     1      -9.767   4.407  71.875  1.00  0.00    -0.233 A  
HETATM   10  C   UNL     1     -10.853   4.816  72.675  1.00  0.00    -0.244 A  
HETATM   11  C   UNL     1      -9.376   3.062  71.941  1.00  0.00    -0.189 A  
HETATM   12  C   UNL     1     -11.534   3.905  73.489  1.00  0.00    -0.195 A  
HETATM   13  C   UNL     1     -11.135   2.572  73.529  1.00  0.00    -0.315 A  
HETATM   14  C   UNL     1     -10.047   2.155  72.763  1.00  0.00    -0.205 A  
ENDBRANCH   8   9
BRANCH   8  15
HETATM   15  C   UNL     1      -9.746   5.375  69.494  1.00  0.00    -0.238 A  
HETATM   16  C   UNL     1      -9.642   4.596  67.187  1.00  0.00    -0.197 A  
HETATM   17  C   UNL     1     -11.100   6.427  67.760  1.00  0.00    -0.376 A  
HETATM   18  C   UNL     1      -9.243   4.491  68.520  1.00  0.00    -0.181 A  
HETATM   19  C   UNL     1     -10.693   6.333  69.091  1.00  0.00    -0.362 A  
HETATM   20  C   UNL     1     -10.564   5.568  66.805  1.00  0.00    -0.360 A  
ENDBRANCH   8  15
ENDBRANCH   5   8
TORSDOF 3
ENDMDL
MODEL      129
REMARK 921   NORMALIZED FREE ENERGY PREDICTED BY IDOCK:   -3.49 KCAL/MOL
REMARK 922        TOTAL FREE ENERGY PREDICTED BY IDOCK:   -4.07 KCAL/MOL
REMARK 923 INTER-LIGAND FREE ENERGY PREDICTED BY IDOCK:   -3.46 KCAL/MOL
REMARK 924 INTRA-LIGAND FREE ENERGY PREDICTED BY IDOCK:   -0.61 KCAL/MOL
REMARK 927      BINDING AFFINITY PREDICTED BY RF-SCORE:    0.00 PKD
ROOT
HETATM    1  C   UNL     1      -8.933   3.400  65.007  1.00  0.00    -0.135 C  
HETATM    2  N   UNL     1      -8.399   3.756  66.320  1.00  0.00    -0.104 NA 
HETATM    3  C   UNL     1      -7.723   5.070  66.292  1.00  0.00    -0.092 C  
HETATM    4  C   UNL     1      -8.664   6.299  66.311  1.00  0.00    -0.142 C  
HETATM    5  N   UNL     1      -9.675   6.300  67.394  1.00  0.00    -0.117 NA 
HETATM    6  C   UNL     1     -10.387   4.997  67.313  1.00  0.00    -0.134 C  
HETATM    7  C   UNL     1      -9.464   3.754  67.342  1.00  0.00    -0.196 C  
ENDROOT
BRANCH   5   8
HETATM    8  C   UNL     1      -9.077   6.536  68.750  1.00  0.00    -0.126 C  
BRANCH   8   9
HETATM    9  C   UNL     1      -8.430   7.928  68.887  1.00  0.00    -0.128 A  
HETATM   10  C   UNL     1      -7.120   8.044  69.394  1.00  0.00    -0.063 A  
HETATM   11  C   UNL     1      -9.065   9.096  68.441  1.00  0.00    -0.132 A  
HETATM   12  C   UNL     1      -6.466   9.280  69.428  1.00  0.00    -0.044 A  
HETATM   13  C   UNL     1      -7.113  10.424  68.968  1.00  0.00    -0.076 A  
HETATM   14  C   UNL     1      -8.417  10.331  68.485  1.00  0.00    -0.121 A  
ENDBRANCH   8   9
BRANCH   8  15
HETATM   15  C   UNL     1     -10.087   6.224  69.866  1.00  0.00    -0.216 A  
HETATM   16  C   UNL     1     -12.108   6.853  71.077  1.00  0.00    -0.429 A  
HETATM   17  C   UNL     1     -10.609   5.224  72.029  1.00  0.00    -0.279 A  
HETATM   18  C   UNL     1     -11.283   6.963  69.956  1.00  0.00    -0.347 A  
HETATM   19  C   UNL     1      -9.776   5.341  70.916  1.00  0.00    -0.244 A  
HETATM   20  C   UNL     1     -11.768   5.990  72.116  1.00  0.00    -0.335 A  
ENDBRANCH   8  15
ENDBRANCH   5   8
TORSDOF 3
ENDMDL
MODEL      130
REMARK 921   NORMALIZED FREE ENERGY PREDICTED BY IDOCK:   -3.44 KCAL/MOL
REMARK 922        TOTAL FREE ENERGY PREDICTED BY IDOCK:   -4.01 KCAL/MOL
REMARK 923 INTER-LIGAND FREE ENERGY PREDICTED BY IDOCK:   -3.36 KCAL/MOL
REMARK 924 INTRA-LIGAND FREE ENERGY PREDICTED BY IDOCK:   -0.65 KCAL/MOL
REMARK 927      BINDING AFFINITY PREDICTED BY RF-SCORE:    0.00 PKD
ROOT
HETATM    1  C   UNL     1      -7.966  10.104  64.560  1.00  0.00    -0.147 C  
HETATM    2  N   UNL     1      -8.967   9.211  65.142  1.00  0.00    -0.202 NA 
HETATM    3  C   UNL     1      -8.417   7.860  65.378  1.00  0.00    -0.119 C  
HETATM    4  C   UNL     1      -7.522   7.720  66.634  1.00  0.00    -0.089 C  
HETATM    5  N   UNL     1      -8.121   8.223  67.892  1.00  0.00    -0.125 NA 
HETATM    6  C   UNL     1      -8.568   9.616  67.623  1.00  0.00    -0.126 C  
HETATM    7  C   UNL     1      -9.504   9.769  66.399  1.00  0.00    -0.184 C  
ENDROOT
BRANCH   5   8
HETATM    8  C   UNL     1      -9.237   7.356  68.394  1.00  0.00    -0.138 C  
BRANCH   8   9
HETATM    9  C   UNL     1      -8.841   5.872  68.507  1.00  0.00    -0.111 A  
HETATM   10  C   UNL     1      -9.616   4.889  67.858  1.00  0.00    -0.186 A  
HETATM   11  C   UNL     1      -7.674   5.457  69.165  1.00  0.00    -0.089 A  
HETATM   12  C   UNL     1      -9.220   3.547  67.850  1.00  0.00    -0.230 A  
HETATM   13  C   UNL     1      -8.051   3.161  68.500  1.00  0.00    -0.071 A  
HETATM   14  C   UNL     1      -7.286   4.116  69.168  1.00  0.00    -0.051 A  
ENDBRANCH   8   9
BRANCH   8  15
HETATM   15  C   UNL     1      -9.843   7.923  69.690  1.00  0.00    -0.179 A  
HETATM   16  C   UNL     1      -9.545   8.529  72.032  1.00  0.00    -0.371 A  
HETATM   17  C   UNL     1     -11.770   8.296  71.138  1.00  0.00    -0.308 A  
HETATM   18  C   UNL     1      -9.006   8.226  70.780  1.00  0.00    -0.166 A  
HETATM   19  C   UNL     1     -11.234   7.980  69.889  1.00  0.00    -0.040 A  
HETATM   20  C   UNL     1     -10.925   8.557  72.213  1.00  0.00    -0.426 A  
ENDBRANCH   8  15
ENDBRANCH   5   8
TORSDOF 3
ENDMDL
MODEL      131
REMARK 921   NORMALIZED FREE ENERGY PREDICTED BY IDOCK:   -3.43 KCAL/MOL
REMARK 922        TOTAL FREE ENERGY PREDICTED BY IDOCK:   -3.99 KCAL/MOL
REMARK 923 INTER-LIGAND FREE ENERGY PREDICTED BY IDOCK:   -3.68 KCAL/MOL
REMARK 924 INTRA-LIGAND FREE ENERGY PREDICTED BY IDOCK:   -0.32 KCAL/MOL
REMARK 927      BINDING AFFINITY PREDICTED BY RF-SCORE:    0.00 PKD
ROOT
HETATM    1  C   UNL     1      -6.812   9.701  67.053  1.00  0.00    -0.084 C  
HETATM    2  N   UNL     1      -6.987   9.063  68.356  1.00  0.00    -0.068 NA 
HETATM    3  C   UNL     1      -8.334   9.316  68.908  1.00  0.00    -0.120 C  
HETATM    4  C   UNL     1      -9.469   8.453  68.303  1.00  0.00    -0.138 C  
HETATM    5  N   UNL     1      -9.215   6.994  68.300  1.00  0.00    -0.129 NA 
HETATM    6  C   UNL     1      -7.894   6.793  67.649  1.00  0.00    -0.112 C  
HETATM    7  C   UNL     1      -6.735   7.611  68.271  1.00  0.00    -0.062 C  
ENDROOT
BRANCH   5   8
HETATM    8  C   UNL     1      -9.269   6.389  69.672  1.00  0.00    -0.142 C  
BRANCH   8   9
HETATM    9  C   UNL     1     -10.424   6.943  70.528  1.00  0.00    -0.234 A  
HETATM   10  C   UNL     1     -11.744   6.515  70.283  1.00  0.00    -0.430 A  
HETATM   11  C   UNL     1     -10.204   7.800  71.616  1.00  0.00    -0.225 A  
HETATM   12  C   UNL     1     -12.797   6.915  71.113  1.00  0.00    -0.289 A  
HETATM   13  C   UNL     1     -12.553   7.756  72.194  1.00  0.00    -0.250 A  
HETATM   14  C   UNL     1     -11.257   8.208  72.437  1.00  0.00    -0.452 A  
ENDBRANCH   8   9
BRANCH   8  15
HETATM   15  C   UNL     1      -9.246   4.852  69.605  1.00  0.00    -0.172 A  
HETATM   16  C   UNL     1      -9.604   2.823  68.302  1.00  0.00    -0.108 A  
HETATM   17  C   UNL     1      -9.447   2.683  70.703  1.00  0.00    -0.206 A  
HETATM   18  C   UNL     1      -9.401   4.203  68.365  1.00  0.00    -0.213 A  
HETATM   19  C   UNL     1      -9.257   4.064  70.769  1.00  0.00    -0.197 A  
HETATM   20  C   UNL     1      -9.635   2.065  69.470  1.00  0.00    -0.045 A  
ENDBRANCH   8  15
ENDBRANCH   5   8
TORSDOF 3
ENDMDL
MODEL      132
REMARK 921   NORMALIZED FREE ENERGY PREDICTED BY IDOCK:   -3.43 KCAL/MOL
REMARK 922        TOTAL FREE ENERGY PREDICTED BY IDOCK:   -3.99 KCAL/MOL
REMARK 923 INTER-LIGAND FREE ENERGY PREDICTED BY IDOCK:   -3.45 KCAL/MOL
REMARK 924 INTRA-LIGAND FREE ENERGY PREDICTED BY IDOCK:   -0.55 KCAL/MOL
REMARK 927      BINDING AFFINITY PREDICTED BY RF-SCORE:    0.00 PKD
ROOT
HETATM    1  C   UNL     1      -9.862  10.019  66.945  1.00  0.00    -0.197 C  
HETATM    2  N   UNL     1     -10.534   8.812  67.423  1.00  0.00    -0.280 NA 
HETATM    3  C   UNL     1      -9.963   7.595  66.809  1.00  0.00    -0.247 C  
HETATM    4  C   UNL     1      -8.619   7.118  67.413  1.00  0.00    -0.121 C  
HETATM    5  N   UNL     1      -8.611   6.965  68.886  1.00  0.00    -0.131 NA 
HETATM    6  C   UNL     1      -9.102   8.250  69.450  1.00  0.00    -0.154 C  
HETATM    7  C   UNL     1     -10.470   8.719  68.894  1.00  0.00    -0.197 C  
ENDROOT
BRANCH   5   8
HETATM    8  C   UNL     1      -9.421   5.793  69.356  1.00  0.00    -0.130 C  
BRANCH   8   9
HETATM    9  C   UNL     1      -8.842   4.441  68.900  1.00  0.00    -0.134 A  
HETATM   10  C   UNL     1      -9.619   3.581  68.097  1.00  0.00    -0.164 A  
HETATM   11  C   UNL     1      -7.521   4.059  69.180  1.00  0.00    -0.054 A  
HETATM   12  C   UNL     1      -9.082   2.398  67.577  1.00  0.00    -0.208 A  
HETATM   13  C   UNL     1      -7.765   2.047  67.859  1.00  0.00    -0.058 A  
HETATM   14  C   UNL     1      -6.990   2.874  68.671  1.00  0.00    -0.048 A  
ENDBRANCH   8   9
BRANCH   8  15
HETATM   15  C   UNL     1      -9.677   5.864  70.871  1.00  0.00    -0.211 A  
HETATM   16  C   UNL     1      -8.799   5.679  73.138  1.00  0.00    -0.122 A  
HETATM   17  C   UNL     1     -11.182   5.627  72.776  1.00  0.00    -0.347 A  
HETATM   18  C   UNL     1      -8.591   5.837  71.767  1.00  0.00    -0.131 A  
HETATM   19  C   UNL     1     -10.975   5.772  71.404  1.00  0.00    -0.304 A  
HETATM   20  C   UNL     1     -10.093   5.566  73.642  1.00  0.00    -0.209 A  
ENDBRANCH   8  15
ENDBRANCH   5   8
TORSDOF 3
ENDMDL
MODEL      133
REMARK 921   NORMALIZED FREE ENERGY PREDICTED BY IDOCK:   -3.36 KCAL/MOL
REMARK 922        TOTAL FREE ENERGY PREDICTED BY IDOCK:   -3.91 KCAL/MOL
REMARK 923 INTER-LIGAND FREE ENERGY PREDICTED BY IDOCK:   -4.15 KCAL/MOL
REMARK 924 INTRA-LIGAND FREE ENERGY PREDICTED BY IDOCK:    0.23 KCAL/MOL
REMARK 927      BINDING AFFINITY PREDICTED BY RF-SCORE:    0.00 PKD
ROOT
HETATM    1  C   UNL     1     -11.041   8.049  72.934  1.00  0.00    -0.331 C  
HETATM    2  N   UNL     1     -11.485   7.583  71.622  1.00  0.00    -0.254 NA 
HETATM    3  C   UNL     1     -11.621   8.701  70.666  1.00  0.00    -0.200 C  
HETATM    4  C   UNL     1     -10.292   9.219  70.061  1.00  0.00    -0.217 C  
HETATM    5  N   UNL     1      -9.424   8.177  69.465  1.00  0.00    -0.156 NA 
HETATM    6  C   UNL     1      -9.246   7.127  70.503  1.00  0.00    -0.158 C  
HETATM    7  C   UNL     1     -10.565   6.562  71.084  1.00  0.00    -0.229 C  
ENDROOT
BRANCH   5   8
HETATM    8  C   UNL     1      -9.976   7.621  68.185  1.00  0.00    -0.175 C  
BRANCH   8   9
HETATM    9  C   UNL     1      -9.932   8.631  67.023  1.00  0.00    -0.317 A  
HETATM   10  C   UNL     1     -10.742   9.783  67.066  1.00  0.00    -0.236 A  
HETATM   11  C   UNL     1      -9.042   8.496  65.948  1.00  0.00    -0.237 A  
HETATM   12  C   UNL     1     -10.644  10.772  66.080  1.00  0.00    -0.241 A  
HETATM   13  C   UNL     1      -9.744  10.622  65.029  1.00  0.00    -0.336 A  
HETATM   14  C   UNL     1      -8.952   9.477  64.958  1.00  0.00    -0.258 A  
ENDBRANCH   8   9
BRANCH   8  15
HETATM   15  C   UNL     1      -9.327   6.270  67.839  1.00  0.00    -0.114 A  
HETATM   16  C   UNL     1      -9.561   3.857  67.579  1.00  0.00    -0.212 A  
HETATM   17  C   UNL     1      -7.361   4.827  67.752  1.00  0.00    -0.070 A  
HETATM   18  C   UNL     1     -10.133   5.127  67.674  1.00  0.00    -0.204 A  
HETATM   19  C   UNL     1      -7.931   6.096  67.860  1.00  0.00    -0.110 A  
HETATM   20  C   UNL     1      -8.177   3.706  67.626  1.00  0.00    -0.091 A  
ENDBRANCH   8  15
ENDBRANCH   5   8
TORSDOF 3
ENDMDL
MODEL      134
REMARK 921   NORMALIZED FREE ENERGY PREDICTED BY IDOCK:   -3.34 KCAL/MOL
REMARK 922        TOTAL FREE ENERGY PREDICTED BY IDOCK:   -3.90 KCAL/MOL
REMARK 923 INTER-LIGAND FREE ENERGY PREDICTED BY IDOCK:   -3.89 KCAL/MOL
REMARK 924 INTRA-LIGAND FREE ENERGY PREDICTED BY IDOCK:   -0.01 KCAL/MOL
REMARK 927      BINDING AFFINITY PREDICTED BY RF-SCORE:    0.00 PKD
ROOT
HETATM    1  C   UNL     1      -7.988   3.760  66.637  1.00  0.00    -0.096 C  
HETATM    2  N   UNL     1      -7.616   4.589  67.782  1.00  0.00    -0.077 NA 
HETATM    3  C   UNL     1      -8.210   5.939  67.690  1.00  0.00    -0.105 C  
HETATM    4  C   UNL     1      -9.707   6.031  68.075  1.00  0.00    -0.119 C  
HETATM    5  N   UNL     1     -10.055   5.440  69.388  1.00  0.00    -0.212 NA 
HETATM    6  C   UNL     1      -9.518   4.053  69.386  1.00  0.00    -0.189 C  
HETATM    7  C   UNL     1      -8.010   3.945  69.051  1.00  0.00    -0.059 C  
ENDROOT
BRANCH   5   8
HETATM    8  C   UNL     1      -9.542   6.245  70.545  1.00  0.00    -0.165 C  
BRANCH   8   9
HETATM    9  C   UNL     1     -10.440   7.450  70.884  1.00  0.00    -0.225 A  
HETATM   10  C   UNL     1      -9.984   8.758  70.624  1.00  0.00    -0.242 A  
HETATM   11  C   UNL     1     -11.749   7.296  71.366  1.00  0.00    -0.317 A  
HETATM   12  C   UNL     1     -10.818   9.865  70.817  1.00  0.00    -0.387 A  
HETATM   13  C   UNL     1     -12.117   9.686  71.285  1.00  0.00    -0.457 A  
HETATM   14  C   UNL     1     -12.576   8.401  71.570  1.00  0.00    -0.334 A  
ENDBRANCH   8   9
BRANCH   8  15
HETATM   15  C   UNL     1      -9.247   5.348  71.760  1.00  0.00    -0.160 A  
HETATM   16  C   UNL     1     -10.084   3.843  73.486  1.00  0.00    -0.192 A  
HETATM   17  C   UNL     1      -7.891   4.815  73.717  1.00  0.00    -0.098 A  
HETATM   18  C   UNL     1     -10.250   4.498  72.264  1.00  0.00    -0.257 A  
HETATM   19  C   UNL     1      -8.059   5.481  72.502  1.00  0.00    -0.103 A  
HETATM   20  C   UNL     1      -8.909   4.008  74.216  1.00  0.00    -0.095 A  
ENDBRANCH   8  15
ENDBRANCH   5   8
TORSDOF 3
ENDMDL
MODEL      135
REMARK 921   NORMALIZED FREE ENERGY PREDICTED BY IDOCK:   -3.21 KCAL/MOL
REMARK 922        TOTAL FREE ENERGY PREDICTED BY IDOCK:   -3.74 KCAL/MOL
REMARK 923 INTER-LIGAND FREE ENERGY PREDICTED BY IDOCK:   -3.60 KCAL/MOL
REMARK 924 INTRA-LIGAND FREE ENERGY PREDICTED BY IDOCK:   -0.14 KCAL/MOL
REMARK 927      BINDING AFFINITY PREDICTED BY RF-SCORE:    0.00 PKD
ROOT
HETATM    1  C   UNL     1     -11.961  14.153  67.535  1.00  0.00    -0.384 C  
HETATM    2  N   UNL     1     -11.816  12.739  67.195  1.00  0.00    -0.374 NA 
HETATM    3  C   UNL     1     -10.841  12.541  66.103  1.00  0.00    -0.272 C  
HETATM    4  C   UNL     1      -9.352  12.621  66.522  1.00  0.00    -0.228 C  
HETATM    5  N   UNL     1      -8.974  11.760  67.667  1.00  0.00    -0.164 NA 
HETATM    6  C   UNL     1      -9.927  12.071  68.765  1.00  0.00    -0.073 C  
HETATM    7  C   UNL     1     -11.422  11.949  68.378  1.00  0.00    -0.299 C  
ENDROOT
BRANCH   5   8
HETATM    8  C   UNL     1      -8.965  10.300  67.321  1.00  0.00    -0.132 C  
BRANCH   8   9
HETATM    9  C   UNL     1      -7.833   9.920  66.349  1.00  0.00    -0.107 A  
HETATM   10  C   UNL     1      -6.764  10.814  66.134  1.00  0.00    -0.126 A  
HETATM   11  C   UNL     1      -7.771   8.665  65.726  1.00  0.00    -0.090 A  
HETATM   12  C   UNL     1      -5.668  10.452  65.344  1.00  0.00    -0.123 A  
HETATM   13  C   UNL     1      -5.624   9.197  64.746  1.00  0.00    -0.062 A  
HETATM   14  C   UNL     1      -6.683   8.308  64.928  1.00  0.00    -0.067 A  
ENDBRANCH   8   9
BRANCH   8  15
HETATM   15  C   UNL     1      -8.996   9.428  68.588  1.00  0.00    -0.132 A  
HETATM   16  C   UNL     1     -10.195   7.826  69.980  1.00  0.00    -0.210 A  
HETATM   17  C   UNL     1      -8.312   9.021  70.894  1.00  0.00    -0.238 A  
HETATM   18  C   UNL     1     -10.016   8.471  68.756  1.00  0.00    -0.197 A  
HETATM   19  C   UNL     1      -8.139   9.677  69.675  1.00  0.00    -0.143 A  
HETATM   20  C   UNL     1      -9.349   8.106  71.051  1.00  0.00    -0.180 A  
ENDBRANCH   8  15
ENDBRANCH   5   8
TORSDOF 3
ENDMDL
MODEL      136
REMARK 921   NORMALIZED FREE ENERGY PREDICTED BY IDOCK:   -3.19 KCAL/MOL
REMARK 922        TOTAL FREE ENERGY PREDICTED BY IDOCK:   -3.72 KCAL/MOL
REMARK 923 INTER-LIGAND FREE ENERGY PREDICTED BY IDOCK:   -3.41 KCAL/MOL
REMARK 924 INTRA-LIGAND FREE ENERGY PREDICTED BY IDOCK:   -0.30 KCAL/MOL
REMARK 927      BINDING AFFINITY PREDICTED BY RF-SCORE:    0.00 PKD
ROOT
HETATM    1  C   UNL     1      -5.249   8.831  73.613  1.00  0.00    -0.084 C  
HETATM    2  N   UNL     1      -5.788   7.737  72.807  1.00  0.00    -0.043 NA 
HETATM    3  C   UNL     1      -7.084   7.262  73.336  1.00  0.00    -0.072 C  
HETATM    4  C   UNL     1      -8.304   8.151  72.994  1.00  0.00    -0.199 C  
HETATM    5  N   UNL     1      -8.460   8.479  71.557  1.00  0.00    -0.156 NA 
HETATM    6  C   UNL     1      -7.160   9.040  71.105  1.00  0.00    -0.098 C  
HETATM    7  C   UNL     1      -5.932   8.142  71.395  1.00  0.00    -0.035 C  
ENDROOT
BRANCH   5   8
HETATM    8  C   UNL     1      -8.886   7.300  70.733  1.00  0.00    -0.150 C  
BRANCH   8   9
HETATM    9  C   UNL     1      -9.693   6.263  71.538  1.00  0.00    -0.179 A  
HETATM   10  C   UNL     1     -10.935   6.625  72.098  1.00  0.00    -0.277 A  
HETATM   11  C   UNL     1      -9.281   4.929  71.665  1.00  0.00    -0.179 A  
HETATM   12  C   UNL     1     -11.741   5.677  72.738  1.00  0.00    -0.233 A  
HETATM   13  C   UNL     1     -11.316   4.356  72.842  1.00  0.00    -0.113 A  
HETATM   14  C   UNL     1     -10.079   3.986  72.315  1.00  0.00    -0.240 A  
ENDBRANCH   8   9
BRANCH   8  15
HETATM   15  C   UNL     1      -9.592   7.748  69.442  1.00  0.00    -0.156 A  
HETATM   16  C   UNL     1      -9.909   7.469  67.041  1.00  0.00    -0.280 A  
HETATM   17  C   UNL     1     -10.668   9.489  68.114  1.00  0.00    -0.247 A  
HETATM   18  C   UNL     1      -9.467   6.977  68.271  1.00  0.00    -0.128 A  
HETATM   19  C   UNL     1     -10.215   9.005  69.342  1.00  0.00    -0.206 A  
HETATM   20  C   UNL     1     -10.501   8.726  66.961  1.00  0.00    -0.338 A  
ENDBRANCH   8  15
ENDBRANCH   5   8
TORSDOF 3
ENDMDL
MODEL      137
REMARK 921   NORMALIZED FREE ENERGY PREDICTED BY IDOCK:   -3.18 KCAL/MOL
REMARK 922        TOTAL FREE ENERGY PREDICTED BY IDOCK:   -3.70 KCAL/MOL
REMARK 923 INTER-LIGAND FREE ENERGY PREDICTED BY IDOCK:   -3.15 KCAL/MOL
REMARK 924 INTRA-LIGAND FREE ENERGY PREDICTED BY IDOCK:   -0.55 KCAL/MOL
REMARK 927      BINDING AFFINITY PREDICTED BY RF-SCORE:    0.00 PKD
ROOT
HETATM    1  C   UNL     1      -9.490   9.753  65.384  1.00  0.00    -0.269 C  
HETATM    2  N   UNL     1      -8.490   9.077  66.209  1.00  0.00    -0.122 NA 
HETATM    3  C   UNL     1      -8.463   9.621  67.582  1.00  0.00    -0.125 C  
HETATM    4  C   UNL     1      -9.600   9.129  68.511  1.00  0.00    -0.148 C  
HETATM    5  N   UNL     1      -9.765   7.658  68.577  1.00  0.00    -0.155 NA 
HETATM    6  C   UNL     1      -9.883   7.179  67.175  1.00  0.00    -0.181 C  
HETATM    7  C   UNL     1      -8.728   7.621  66.242  1.00  0.00    -0.152 C  
ENDROOT
BRANCH   5   8
HETATM    8  C   UNL     1      -8.650   6.978  69.316  1.00  0.00    -0.136 C  
BRANCH   8   9
HETATM    9  C   UNL     1      -8.462   7.517  70.747  1.00  0.00    -0.126 A  
HETATM   10  C   UNL     1      -9.589   7.877  71.514  1.00  0.00    -0.189 A  
HETATM   11  C   UNL     1      -7.203   7.581  71.363  1.00  0.00    -0.070 A  
HETATM   12  C   UNL     1      -9.457   8.263  72.852  1.00  0.00    -0.321 A  
HETATM   13  C   UNL     1      -8.199   8.309  73.445  1.00  0.00    -0.242 A  
HETATM   14  C   UNL     1      -7.071   7.979  72.695  1.00  0.00    -0.107 A  
ENDBRANCH   8   9
BRANCH   8  15
HETATM   15  C   UNL     1      -8.795   5.448  69.258  1.00  0.00    -0.112 A  
HETATM   16  C   UNL     1      -9.755   3.414  70.198  1.00  0.00    -0.125 A  
HETATM   17  C   UNL     1      -7.892   3.258  68.678  1.00  0.00    -0.060 A  
HETATM   18  C   UNL     1      -9.751   4.804  70.066  1.00  0.00    -0.280 A  
HETATM   19  C   UNL     1      -7.877   4.648  68.555  1.00  0.00    -0.080 A  
HETATM   20  C   UNL     1      -8.822   2.642  69.511  1.00  0.00    -0.151 A  
ENDBRANCH   8  15
ENDBRANCH   5   8
TORSDOF 3
ENDMDL
MODEL      138
REMARK 921   NORMALIZED FREE ENERGY PREDICTED BY IDOCK:   -3.16 KCAL/MOL
REMARK 922        TOTAL FREE ENERGY PREDICTED BY IDOCK:   -3.68 KCAL/MOL
REMARK 923 INTER-LIGAND FREE ENERGY PREDICTED BY IDOCK:   -3.75 KCAL/MOL
REMARK 924 INTRA-LIGAND FREE ENERGY PREDICTED BY IDOCK:    0.07 KCAL/MOL
REMARK 927      BINDING AFFINITY PREDICTED BY RF-SCORE:    0.00 PKD
ROOT
HETATM    1  C   UNL     1     -10.296   5.764  69.670  1.00  0.00    -0.260 C  
HETATM    2  N   UNL     1      -9.810   6.659  68.621  1.00  0.00    -0.135 NA 
HETATM    3  C   UNL     1     -10.755   7.768  68.374  1.00  0.00    -0.036 C  
HETATM    4  C   UNL     1     -10.712   8.917  69.412  1.00  0.00    -0.181 C  
HETATM    5  N   UNL     1      -9.366   9.479  69.672  1.00  0.00    -0.186 NA 
HETATM    6  C   UNL     1      -8.483   8.330  70.008  1.00  0.00    -0.123 C  
HETATM    7  C   UNL     1      -8.476   7.192  68.957  1.00  0.00    -0.129 C  
ENDROOT
BRANCH   5   8
HETATM    8  C   UNL     1      -8.837  10.283  68.521  1.00  0.00    -0.127 C  
BRANCH   8   9
HETATM    9  C   UNL     1      -9.927  11.110  67.814  1.00  0.00    -0.193 A  
HETATM   10  C   UNL     1     -10.678  12.051  68.547  1.00  0.00    -0.261 A  
HETATM   11  C   UNL     1     -10.149  11.029  66.431  1.00  0.00    -0.275 A  
HETATM   12  C   UNL     1     -11.597  12.893  67.911  1.00  0.00    -0.391 A  
HETATM   13  C   UNL     1     -11.791  12.803  66.536  1.00  0.00    -0.471 A  
HETATM   14  C   UNL     1     -11.075  11.861  65.799  1.00  0.00    -0.367 A  
ENDBRANCH   8   9
BRANCH   8  15
HETATM   15  C   UNL     1      -7.617  11.121  68.941  1.00  0.00    -0.133 A  
HETATM   16  C   UNL     1      -5.973  12.828  68.372  1.00  0.00    -0.068 A  
HETATM   17  C   UNL     1      -5.582  11.382  70.260  1.00  0.00    -0.130 A  
HETATM   18  C   UNL     1      -7.194  12.195  68.135  1.00  0.00    -0.096 A  
HETATM   19  C   UNL     1      -6.796  10.739  70.017  1.00  0.00    -0.126 A  
HETATM   20  C   UNL     1      -5.163  12.418  69.429  1.00  0.00    -0.066 A  
ENDBRANCH   8  15
ENDBRANCH   5   8
TORSDOF 3
ENDMDL
MODEL      139
REMARK 921   NORMALIZED FREE ENERGY PREDICTED BY IDOCK:   -3.15 KCAL/MOL
REMARK 922        TOTAL FREE ENERGY PREDICTED BY IDOCK:   -3.66 KCAL/MOL
REMARK 923 INTER-LIGAND FREE ENERGY PREDICTED BY IDOCK:   -3.56 KCAL/MOL
REMARK 924 INTRA-LIGAND FREE ENERGY PREDICTED BY IDOCK:   -0.11 KCAL/MOL
REMARK 927      BINDING AFFINITY PREDICTED BY RF-SCORE:    0.00 PKD
ROOT
HETATM    1  C   UNL     1     -10.312   4.246  73.947  1.00  0.00    -0.201 C  
HETATM    2  N   UNL     1     -10.866   4.494  72.617  1.00  0.00    -0.158 NA 
HETATM    3  C   UNL     1     -11.321   5.892  72.472  1.00  0.00    -0.304 C  
HETATM    4  C   UNL     1     -10.199   6.932  72.228  1.00  0.00    -0.186 C  
HETATM    5  N   UNL     1      -9.274   6.608  71.118  1.00  0.00    -0.159 NA 
HETATM    6  C   UNL     1      -8.774   5.230  71.368  1.00  0.00    -0.130 C  
HETATM    7  C   UNL     1      -9.883   4.167  71.566  1.00  0.00    -0.184 C  
ENDROOT
BRANCH   5   8
HETATM    8  C   UNL     1      -9.913   6.743  69.767  1.00  0.00    -0.177 C  
BRANCH   8   9
HETATM    9  C   UNL     1     -10.007   8.204  69.290  1.00  0.00    -0.188 A  
HETATM   10  C   UNL     1     -10.528   8.492  68.012  1.00  0.00    -0.249 A  
HETATM   11  C   UNL     1      -9.675   9.286  70.120  1.00  0.00    -0.252 A  
HETATM   12  C   UNL     1     -10.729   9.812  67.595  1.00  0.00    -0.334 A  
HETATM   13  C   UNL     1     -10.403  10.868  68.440  1.00  0.00    -0.196 A  
HETATM   14  C   UNL     1      -9.865  10.603  69.699  1.00  0.00    -0.052 A  
ENDBRANCH   8   9
BRANCH   8  15
HETATM   15  C   UNL     1      -9.245   5.812  68.740  1.00  0.00    -0.128 A  
HETATM   16  C   UNL     1      -7.367   5.366  67.251  1.00  0.00    -0.083 A  
HETATM   17  C   UNL     1      -9.420   4.132  66.980  1.00  0.00    -0.215 A  
HETATM   18  C   UNL     1      -7.919   6.053  68.333  1.00  0.00    -0.107 A  
HETATM   19  C   UNL     1      -9.978   4.827  68.053  1.00  0.00    -0.154 A  
HETATM   20  C   UNL     1      -8.119   4.411  66.570  1.00  0.00    -0.102 A  
ENDBRANCH   8  15
ENDBRANCH   5   8
TORSDOF 3
ENDMDL
MODEL      140
REMARK 921   NORMALIZED FREE ENERGY PREDICTED BY IDOCK:   -3.08 KCAL/MOL
REMARK 922        TOTAL FREE ENERGY PREDICTED BY IDOCK:   -3.59 KCAL/MOL
REMARK 923 INTER-LIGAND FREE ENERGY PREDICTED BY IDOCK:   -3.25 KCAL/MOL
REMARK 924 INTRA-LIGAND FREE ENERGY PREDICTED BY IDOCK:   -0.34 KCAL/MOL
REMARK 927      BINDING AFFINITY PREDICTED BY RF-SCORE:    0.00 PKD
ROOT
HETATM    1  C   UNL     1      -8.328   7.626  74.405  1.00  0.00    -0.223 C  
HETATM    2  N   UNL     1      -9.257   7.270  73.334  1.00  0.00    -0.164 NA 
HETATM    3  C   UNL     1      -9.525   8.421  72.445  1.00  0.00    -0.295 C  
HETATM    4  C   UNL     1      -8.412   8.733  71.414  1.00  0.00    -0.188 C  
HETATM    5  N   UNL     1      -7.975   7.581  70.593  1.00  0.00    -0.099 NA 
HETATM    6  C   UNL     1      -7.628   6.490  71.541  1.00  0.00    -0.094 C  
HETATM    7  C   UNL     1      -8.747   6.129  72.549  1.00  0.00    -0.121 C  
ENDROOT
BRANCH   5   8
HETATM    8  C   UNL     1      -9.007   7.154  69.590  1.00  0.00    -0.141 C  
BRANCH   8   9
HETATM    9  C   UNL     1      -9.291   8.230  68.525  1.00  0.00    -0.138 A  
HETATM   10  C   UNL     1      -8.502   9.397  68.481  1.00  0.00    -0.119 A  
HETATM   11  C   UNL     1     -10.258   8.055  67.525  1.00  0.00    -0.311 A  
HETATM   12  C   UNL     1      -8.663  10.339  67.459  1.00  0.00    -0.125 A  
HETATM   13  C   UNL     1      -9.622  10.138  66.470  1.00  0.00    -0.236 A  
HETATM   14  C   UNL     1     -10.427   9.001  66.512  1.00  0.00    -0.192 A  
ENDBRANCH   8   9
BRANCH   8  15
HETATM   15  C   UNL     1      -8.664   5.780  68.989  1.00  0.00    -0.112 A  
HETATM   16  C   UNL     1      -7.346   4.474  67.407  1.00  0.00    -0.073 A  
HETATM   17  C   UNL     1      -9.318   3.506  68.398  1.00  0.00    -0.228 A  
HETATM   18  C   UNL     1      -7.551   5.647  68.136  1.00  0.00    -0.081 A  
HETATM   19  C   UNL     1      -9.532   4.682  69.117  1.00  0.00    -0.224 A  
HETATM   20  C   UNL     1      -8.233   3.407  67.531  1.00  0.00    -0.087 A  
ENDBRANCH   8  15
ENDBRANCH   5   8
TORSDOF 3
ENDMDL
MODEL      141
REMARK 921   NORMALIZED FREE ENERGY PREDICTED BY IDOCK:   -3.06 KCAL/MOL
REMARK 922        TOTAL FREE ENERGY PREDICTED BY IDOCK:   -3.57 KCAL/MOL
REMARK 923 INTER-LIGAND FREE ENERGY PREDICTED BY IDOCK:   -3.47 KCAL/MOL
REMARK 924 INTRA-LIGAND FREE ENERGY PREDICTED BY IDOCK:   -0.09 KCAL/MOL
REMARK 927      BINDING AFFINITY PREDICTED BY RF-SCORE:    0.00 PKD
ROOT
HETATM    1  C   UNL     1     -10.255  17.919  68.382  1.00  0.00    -0.394 C  
HETATM    2  N   UNL     1      -9.666  16.588  68.517  1.00  0.00    -0.231 NA 
HETATM    3  C   UNL     1      -9.914  16.019  69.858  1.00  0.00    -0.077 C  
HETATM    4  C   UNL     1     -11.334  15.443  70.080  1.00  0.00    -0.303 C  
HETATM    5  N   UNL     1     -11.787  14.475  69.055  1.00  0.00    -0.314 NA 
HETATM    6  C   UNL     1     -11.605  15.136  67.736  1.00  0.00    -0.289 C  
HETATM    7  C   UNL     1     -10.176  15.676  67.475  1.00  0.00    -0.263 C  
ENDROOT
BRANCH   5   8
HETATM    8  C   UNL     1     -11.068  13.161  69.135  1.00  0.00    -0.196 C  
BRANCH   8   9
HETATM    9  C   UNL     1     -11.698  12.192  70.153  1.00  0.00    -0.301 A  
HETATM   10  C   UNL     1     -13.009  12.419  70.618  1.00  0.00     0.137 A  
HETATM   11  C   UNL     1     -11.046  11.024  70.578  1.00  0.00     0.200 A  
HETATM   12  C   UNL     1     -13.647  11.498  71.455  1.00  0.00     0.265 A  
HETATM   13  C   UNL     1     -12.985  10.341  71.854  1.00  0.00    -0.554 A  
HETATM   14  C   UNL     1     -11.679  10.112  71.423  1.00  0.00    -0.373 A  
ENDBRANCH   8   9
BRANCH   8  15
HETATM   15  C   UNL     1     -10.885  12.540  67.739  1.00  0.00    -0.254 A  
HETATM   16  C   UNL     1     -11.896  11.519  65.770  1.00  0.00     0.371 A  
HETATM   17  C   UNL     1      -9.522  11.311  66.132  1.00  0.00    -0.232 A  
HETATM   18  C   UNL     1     -12.011  12.277  66.937  1.00  0.00    -0.214 A  
HETATM   19  C   UNL     1      -9.637  12.057  67.306  1.00  0.00    -0.185 A  
HETATM   20  C   UNL     1     -10.654  11.030  65.372  1.00  0.00    -0.270 A  
ENDBRANCH   8  15
ENDBRANCH   5   8
TORSDOF 3
ENDMDL
MODEL      142
REMARK 921   NORMALIZED FREE ENERGY PREDICTED BY IDOCK:   -3.05 KCAL/MOL
REMARK 922        TOTAL FREE ENERGY PREDICTED BY IDOCK:   -3.56 KCAL/MOL
REMARK 923 INTER-LIGAND FREE ENERGY PREDICTED BY IDOCK:   -3.16 KCAL/MOL
REMARK 924 INTRA-LIGAND FREE ENERGY PREDICTED BY IDOCK:   -0.40 KCAL/MOL
REMARK 927      BINDING AFFINITY PREDICTED BY RF-SCORE:    0.00 PKD
ROOT
HETATM    1  C   UNL     1     -13.809  14.263  71.953  1.00  0.00    -0.457 C  
HETATM    2  N   UNL     1     -12.441  14.287  71.439  1.00  0.00    -0.344 NA 
HETATM    3  C   UNL     1     -11.996  12.942  71.020  1.00  0.00     0.267 C  
HETATM    4  C   UNL     1     -12.531  12.466  69.646  1.00  0.00     0.188 C  
HETATM    5  N   UNL     1     -12.321  13.414  68.528  1.00  0.00    -0.068 NA 
HETATM    6  C   UNL     1     -12.873  14.723  68.970  1.00  0.00     0.736 C  
HETATM    7  C   UNL     1     -12.313  15.238  70.319  1.00  0.00    -0.366 C  
ENDROOT
BRANCH   5   8
HETATM    8  C   UNL     1     -10.883  13.517  68.112  1.00  0.00    -0.254 C  
BRANCH   8   9
HETATM    9  C   UNL     1     -10.377  12.258  67.384  1.00  0.00    -0.219 A  
HETATM   10  C   UNL     1      -9.246  11.573  67.874  1.00  0.00    -0.168 A  
HETATM   11  C   UNL     1     -11.055  11.703  66.288  1.00  0.00    -0.345 A  
HETATM   12  C   UNL     1      -8.829  10.367  67.301  1.00  0.00    -0.135 A  
HETATM   13  C   UNL     1      -9.525   9.830  66.222  1.00  0.00    -0.250 A  
HETATM   14  C   UNL     1     -10.631  10.506  65.709  1.00  0.00    -0.137 A  
ENDBRANCH   8   9
BRANCH   8  15
HETATM   15  C   UNL     1     -10.621  14.816  67.331  1.00  0.00    -0.268 A  
HETATM   16  C   UNL     1     -10.695  16.018  65.211  1.00  0.00    -0.417 A  
HETATM   17  C   UNL     1      -9.361  16.883  67.023  1.00  0.00    -0.245 A  
HETATM   18  C   UNL     1     -11.103  14.952  66.015  1.00  0.00    -0.334 A  
HETATM   19  C   UNL     1      -9.757  15.810  67.823  1.00  0.00    -0.216 A  
HETATM   20  C   UNL     1      -9.819  16.979  65.712  1.00  0.00    -0.129 A  
ENDBRANCH   8  15
ENDBRANCH   5   8
TORSDOF 3
ENDMDL
MODEL      143
REMARK 921   NORMALIZED FREE ENERGY PREDICTED BY IDOCK:   -3.01 KCAL/MOL
REMARK 922        TOTAL FREE ENERGY PREDICTED BY IDOCK:   -3.50 KCAL/MOL
REMARK 923 INTER-LIGAND FREE ENERGY PREDICTED BY IDOCK:   -6.95 KCAL/MOL
REMARK 924 INTRA-LIGAND FREE ENERGY PREDICTED BY IDOCK:    3.45 KCAL/MOL
REMARK 927      BINDING AFFINITY PREDICTED BY RF-SCORE:    0.00 PKD
ROOT
HETATM    1  C   UNL     1      -7.435  15.522  67.321  1.00  0.00    -0.223 C  
HETATM    2  N   UNL     1      -8.404  14.431  67.240  1.00  0.00    -0.203 NA 
HETATM    3  C   UNL     1      -9.167  14.289  68.497  1.00  0.00    -0.197 C  
HETATM    4  C   UNL     1     -10.305  15.320  68.700  1.00  0.00    -0.232 C  
HETATM    5  N   UNL     1     -11.255  15.438  67.569  1.00  0.00    -0.324 NA 
HETATM    6  C   UNL     1     -10.438  15.675  66.350  1.00  0.00    -0.305 C  
HETATM    7  C   UNL     1      -9.325  14.626  66.103  1.00  0.00    -0.230 C  
ENDROOT
BRANCH   5   8
HETATM    8  C   UNL     1     -12.148  14.240  67.429  1.00  0.00    -0.336 C  
BRANCH   8   9
HETATM    9  C   UNL     1     -11.916  13.468  66.117  1.00  0.00    -0.454 A  
HETATM   10  C   UNL     1     -12.456  13.959  64.911  1.00  0.00    -0.420 A  
HETATM   11  C   UNL     1     -11.102  12.327  66.053  1.00  0.00    -0.347 A  
HETATM   12  C   UNL     1     -12.170  13.341  63.688  1.00  0.00    -0.522 A  
HETATM   13  C   UNL     1     -11.351  12.217  63.649  1.00  0.00    -0.545 A  
HETATM   14  C   UNL     1     -10.828  11.704  64.835  1.00  0.00    -0.359 A  
ENDBRANCH   8   9
BRANCH   8  15
HETATM   15  C   UNL     1     -12.079  13.345  68.679  1.00  0.00    -0.281 A  
HETATM   16  C   UNL     1     -12.023  11.100  69.628  1.00  0.00    -0.429 A  
HETATM   17  C   UNL     1     -12.539  12.979  71.047  1.00  0.00    -0.386 A  
HETATM   18  C   UNL     1     -11.871  11.960  68.539  1.00  0.00    -0.357 A  
HETATM   19  C   UNL     1     -12.400  13.839  69.956  1.00  0.00    -0.364 A  
HETATM   20  C   UNL     1     -12.364  11.608  70.879  1.00  0.00    -0.436 A  
ENDBRANCH   8  15
ENDBRANCH   5   8
TORSDOF 3
ENDMDL
MODEL      144
REMARK 921   NORMALIZED FREE ENERGY PREDICTED BY IDOCK:   -3.00 KCAL/MOL
REMARK 922        TOTAL FREE ENERGY PREDICTED BY IDOCK:   -3.50 KCAL/MOL
REMARK 923 INTER-LIGAND FREE ENERGY PREDICTED BY IDOCK:   -3.93 KCAL/MOL
REMARK 924 INTRA-LIGAND FREE ENERGY PREDICTED BY IDOCK:    0.43 KCAL/MOL
REMARK 927      BINDING AFFINITY PREDICTED BY RF-SCORE:    0.00 PKD
ROOT
HETATM    1  C   UNL     1      -8.771   3.442  73.230  1.00  0.00    -0.081 C  
HETATM    2  N   UNL     1      -9.865   3.853  72.351  1.00  0.00    -0.149 NA 
HETATM    3  C   UNL     1     -10.588   5.021  72.897  1.00  0.00    -0.228 C  
HETATM    4  C   UNL     1      -9.883   6.386  72.702  1.00  0.00    -0.166 C  
HETATM    5  N   UNL     1      -9.463   6.684  71.313  1.00  0.00    -0.163 NA 
HETATM    6  C   UNL     1      -8.661   5.520  70.852  1.00  0.00    -0.135 C  
HETATM    7  C   UNL     1      -9.370   4.150  70.993  1.00  0.00    -0.149 C  
ENDROOT
BRANCH   5   8
HETATM    8  C   UNL     1     -10.621   6.971  70.403  1.00  0.00    -0.223 C  
BRANCH   8   9
HETATM    9  C   UNL     1     -11.825   7.590  71.138  1.00  0.00    -0.324 A  
HETATM   10  C   UNL     1     -12.784   6.752  71.741  1.00  0.00    -0.342 A  
HETATM   11  C   UNL     1     -11.963   8.975  71.313  1.00  0.00    -0.374 A  
HETATM   12  C   UNL     1     -13.826   7.284  72.509  1.00  0.00     0.410 A  
HETATM   13  C   UNL     1     -13.936   8.660  72.678  1.00  0.00    -0.289 A  
HETATM   14  C   UNL     1     -13.009   9.506  72.069  1.00  0.00    -0.514 A  
ENDBRANCH   8   9
BRANCH   8  15
HETATM   15  C   UNL     1     -10.176   7.784  69.175  1.00  0.00    -0.210 A  
HETATM   16  C   UNL     1      -9.823   7.885  66.765  1.00  0.00    -0.318 A  
HETATM   17  C   UNL     1      -8.810   9.547  68.186  1.00  0.00    -0.124 A  
HETATM   18  C   UNL     1     -10.406   7.281  67.880  1.00  0.00    -0.253 A  
HETATM   19  C   UNL     1      -9.382   8.937  69.304  1.00  0.00    -0.149 A  
HETATM   20  C   UNL     1      -9.019   9.012  66.918  1.00  0.00    -0.144 A  
ENDBRANCH   8  15
ENDBRANCH   5   8
TORSDOF 3
ENDMDL
MODEL      145
REMARK 921   NORMALIZED FREE ENERGY PREDICTED BY IDOCK:   -2.99 KCAL/MOL
REMARK 922        TOTAL FREE ENERGY PREDICTED BY IDOCK:   -3.48 KCAL/MOL
REMARK 923 INTER-LIGAND FREE ENERGY PREDICTED BY IDOCK:   -2.94 KCAL/MOL
REMARK 924 INTRA-LIGAND FREE ENERGY PREDICTED BY IDOCK:   -0.54 KCAL/MOL
REMARK 927      BINDING AFFINITY PREDICTED BY RF-SCORE:    0.00 PKD
ROOT
HETATM    1  C   UNL     1     -13.618   7.380  71.719  1.00  0.00    -0.314 C  
HETATM    2  N   UNL     1     -12.357   8.113  71.623  1.00  0.00    -0.303 NA 
HETATM    3  C   UNL     1     -11.408   7.698  72.677  1.00  0.00    -0.370 C  
HETATM    4  C   UNL     1     -10.678   6.356  72.417  1.00  0.00    -0.226 C  
HETATM    5  N   UNL     1     -10.014   6.247  71.098  1.00  0.00    -0.180 NA 
HETATM    6  C   UNL     1     -11.040   6.582  70.076  1.00  0.00    -0.363 C  
HETATM    7  C   UNL     1     -11.747   7.944  70.291  1.00  0.00     0.075 C  
ENDROOT
BRANCH   5   8
HETATM    8  C   UNL     1      -8.796   7.116  70.985  1.00  0.00    -0.145 C  
BRANCH   8   9
HETATM    9  C   UNL     1      -7.810   6.924  72.152  1.00  0.00    -0.094 A  
HETATM   10  C   UNL     1      -7.717   7.906  73.159  1.00  0.00    -0.174 A  
HETATM   11  C   UNL     1      -7.051   5.754  72.307  1.00  0.00    -0.084 A  
HETATM   12  C   UNL     1      -6.913   7.709  74.288  1.00  0.00    -0.124 A  
HETATM   13  C   UNL     1      -6.179   6.535  74.425  1.00  0.00    -0.065 A  
HETATM   14  C   UNL     1      -6.240   5.563  73.427  1.00  0.00    -0.060 A  
ENDBRANCH   8   9
BRANCH   8  15
HETATM   15  C   UNL     1      -8.135   6.972  69.603  1.00  0.00    -0.130 A  
HETATM   16  C   UNL     1      -7.225   5.510  67.877  1.00  0.00    -0.072 A  
HETATM   17  C   UNL     1      -6.714   7.865  67.833  1.00  0.00    -0.068 A  
HETATM   18  C   UNL     1      -8.009   5.698  69.017  1.00  0.00    -0.096 A  
HETATM   19  C   UNL     1      -7.486   8.052  68.980  1.00  0.00    -0.093 A  
HETATM   20  C   UNL     1      -6.571   6.591  67.290  1.00  0.00    -0.054 A  
ENDBRANCH   8  15
ENDBRANCH   5   8
TORSDOF 3
ENDMDL
MODEL      146
REMARK 921   NORMALIZED FREE ENERGY PREDICTED BY IDOCK:   -2.98 KCAL/MOL
REMARK 922        TOTAL FREE ENERGY PREDICTED BY IDOCK:   -3.47 KCAL/MOL
REMARK 923 INTER-LIGAND FREE ENERGY PREDICTED BY IDOCK:   -2.83 KCAL/MOL
REMARK 924 INTRA-LIGAND FREE ENERGY PREDICTED BY IDOCK:   -0.64 KCAL/MOL
REMARK 927      BINDING AFFINITY PREDICTED BY RF-SCORE:    0.00 PKD
ROOT
HETATM    1  C   UNL     1      -6.363   8.263  73.254  1.00  0.00    -0.102 C  
HETATM    2  N   UNL     1      -7.205   8.852  72.214  1.00  0.00    -0.332 NA 
HETATM    3  C   UNL     1      -6.395   9.389  71.101  1.00  0.00    -0.074 C  
HETATM    4  C   UNL     1      -5.857   8.333  70.104  1.00  0.00    -0.025 C  
HETATM    5  N   UNL     1      -6.877   7.409  69.557  1.00  0.00    -0.048 NA 
HETATM    6  C   UNL     1      -7.594   6.828  70.723  1.00  0.00    -0.092 C  
HETATM    7  C   UNL     1      -8.182   7.870  71.706  1.00  0.00    -0.117 C  
ENDROOT
BRANCH   5   8
HETATM    8  C   UNL     1      -7.812   8.077  68.592  1.00  0.00    -0.118 C  
BRANCH   8   9
HETATM    9  C   UNL     1      -7.078   8.872  67.496  1.00  0.00    -0.076 A  
HETATM   10  C   UNL     1      -6.288   8.191  66.547  1.00  0.00    -0.054 A  
HETATM   11  C   UNL     1      -7.233  10.258  67.345  1.00  0.00    -0.092 A  
HETATM   12  C   UNL     1      -5.700   8.873  65.476  1.00  0.00    -0.047 A  
HETATM   13  C   UNL     1      -5.878  10.246  65.340  1.00  0.00    -0.110 A  
HETATM   14  C   UNL     1      -6.636  10.939  66.283  1.00  0.00    -0.126 A  
ENDBRANCH   8   9
BRANCH   8  15
HETATM   15  C   UNL     1      -8.841   7.080  68.032  1.00  0.00    -0.124 A  
HETATM   16  C   UNL     1      -9.286   4.943  66.946  1.00  0.00    -0.137 A  
HETATM   17  C   UNL     1     -11.010   6.626  67.013  1.00  0.00    -0.463 A  
HETATM   18  C   UNL     1      -8.430   5.787  67.656  1.00  0.00    -0.103 A  
HETATM   19  C   UNL     1     -10.152   7.476  67.711  1.00  0.00    -0.235 A  
HETATM   20  C   UNL     1     -10.573   5.365  66.618  1.00  0.00    -0.359 A  
ENDBRANCH   8  15
ENDBRANCH   5   8
TORSDOF 3
ENDMDL
MODEL      147
REMARK 921   NORMALIZED FREE ENERGY PREDICTED BY IDOCK:   -2.97 KCAL/MOL
REMARK 922        TOTAL FREE ENERGY PREDICTED BY IDOCK:   -3.45 KCAL/MOL
REMARK 923 INTER-LIGAND FREE ENERGY PREDICTED BY IDOCK:   -3.18 KCAL/MOL
REMARK 924 INTRA-LIGAND FREE ENERGY PREDICTED BY IDOCK:   -0.28 KCAL/MOL
REMARK 927      BINDING AFFINITY PREDICTED BY RF-SCORE:    0.00 PKD
ROOT
HETATM    1  C   UNL     1     -10.169   5.335  70.229  1.00  0.00    -0.275 C  
HETATM    2  N   UNL     1      -9.173   6.346  69.877  1.00  0.00    -0.151 NA 
HETATM    3  C   UNL     1      -8.555   6.064  68.565  1.00  0.00    -0.111 C  
HETATM    4  C   UNL     1      -9.414   6.443  67.333  1.00  0.00    -0.116 C  
HETATM    5  N   UNL     1      -9.934   7.829  67.333  1.00  0.00    -0.176 NA 
HETATM    6  C   UNL     1     -10.627   8.024  68.634  1.00  0.00    -0.109 C  
HETATM    7  C   UNL     1      -9.768   7.697  69.880  1.00  0.00    -0.175 C  
ENDROOT
BRANCH   5   8
HETATM    8  C   UNL     1      -8.863   8.855  67.102  1.00  0.00    -0.123 C  
BRANCH   8   9
HETATM    9  C   UNL     1      -7.787   8.386  66.105  1.00  0.00    -0.101 A  
HETATM   10  C   UNL     1      -6.430   8.391  66.485  1.00  0.00    -0.055 A  
HETATM   11  C   UNL     1      -8.112   7.861  64.845  1.00  0.00    -0.144 A  
HETATM   12  C   UNL     1      -5.443   7.869  65.643  1.00  0.00    -0.029 A  
HETATM   13  C   UNL     1      -5.791   7.342  64.402  1.00  0.00    -0.037 A  
HETATM   14  C   UNL     1      -7.126   7.350  64.000  1.00  0.00    -0.071 A  
ENDBRANCH   8   9
BRANCH   8  15
HETATM   15  C   UNL     1      -9.469  10.222  66.742  1.00  0.00    -0.198 A  
HETATM   16  C   UNL     1     -10.182  12.437  67.471  1.00  0.00    -0.214 A  
HETATM   17  C   UNL     1     -10.925  11.589  65.341  1.00  0.00    -0.288 A  
HETATM   18  C   UNL     1      -9.451  11.267  67.686  1.00  0.00    -0.173 A  
HETATM   19  C   UNL     1     -10.206  10.413  65.560  1.00  0.00    -0.316 A  
HETATM   20  C   UNL     1     -10.925  12.595  66.303  1.00  0.00    -0.314 A  
ENDBRANCH   8  15
ENDBRANCH   5   8
TORSDOF 3
ENDMDL
MODEL      148
REMARK 921   NORMALIZED FREE ENERGY PREDICTED BY IDOCK:   -2.88 KCAL/MOL
REMARK 922        TOTAL FREE ENERGY PREDICTED BY IDOCK:   -3.35 KCAL/MOL
REMARK 923 INTER-LIGAND FREE ENERGY PREDICTED BY IDOCK:   -4.30 KCAL/MOL
REMARK 924 INTRA-LIGAND FREE ENERGY PREDICTED BY IDOCK:    0.95 KCAL/MOL
REMARK 927      BINDING AFFINITY PREDICTED BY RF-SCORE:    0.00 PKD
ROOT
HETATM    1  C   UNL     1      -5.473  19.781  65.002  1.00  0.00    -0.165 C  
HETATM    2  N   UNL     1      -5.869  19.543  66.389  1.00  0.00    -0.164 NA 
HETATM    3  C   UNL     1      -7.263  19.968  66.635  1.00  0.00    -0.249 C  
HETATM    4  C   UNL     1      -8.352  18.992  66.127  1.00  0.00    -0.217 C  
HETATM    5  N   UNL     1      -8.192  17.587  66.569  1.00  0.00    -0.259 NA 
HETATM    6  C   UNL     1      -6.807  17.183  66.210  1.00  0.00    -0.202 C  
HETATM    7  C   UNL     1      -5.699  18.122  66.750  1.00  0.00    -0.146 C  
ENDROOT
BRANCH   5   8
HETATM    8  C   UNL     1      -8.476  17.399  68.030  1.00  0.00    -0.235 C  
BRANCH   8   9
HETATM    9  C   UNL     1      -9.705  16.507  68.293  1.00  0.00    -0.231 A  
HETATM   10  C   UNL     1     -10.383  16.595  69.526  1.00  0.00    -0.245 A  
HETATM   11  C   UNL     1     -10.239  15.660  67.311  1.00  0.00    -0.266 A  
HETATM   12  C   UNL     1     -11.565  15.881  69.752  1.00  0.00    -0.340 A  
HETATM   13  C   UNL     1     -12.082  15.056  68.758  1.00  0.00    -0.215 A  
HETATM   14  C   UNL     1     -11.411  14.938  67.541  1.00  0.00    -0.361 A  
ENDBRANCH   8   9
BRANCH   8  15
HETATM   15  C   UNL     1      -7.219  16.938  68.787  1.00  0.00    -0.220 A  
HETATM   16  C   UNL     1      -5.895  15.103  69.695  1.00  0.00    -0.112 A  
HETATM   17  C   UNL     1      -5.466  17.358  70.431  1.00  0.00    -0.243 A  
HETATM   18  C   UNL     1      -6.895  15.568  68.840  1.00  0.00    -0.123 A  
HETATM   19  C   UNL     1      -6.474  17.824  69.586  1.00  0.00    -0.130 A  
HETATM   20  C   UNL     1      -5.186  15.996  70.496  1.00  0.00    -0.178 A  
ENDBRANCH   8  15
ENDBRANCH   5   8
TORSDOF 3
ENDMDL
MODEL      149
REMARK 921   NORMALIZED FREE ENERGY PREDICTED BY IDOCK:   -2.84 KCAL/MOL
REMARK 922        TOTAL FREE ENERGY PREDICTED BY IDOCK:   -3.31 KCAL/MOL
REMARK 923 INTER-LIGAND FREE ENERGY PREDICTED BY IDOCK:   -2.85 KCAL/MOL
REMARK 924 INTRA-LIGAND FREE ENERGY PREDICTED BY IDOCK:   -0.46 KCAL/MOL
REMARK 927      BINDING AFFINITY PREDICTED BY RF-SCORE:    0.00 PKD
ROOT
HETATM    1  C   UNL     1     -12.431  12.641  65.339  1.00  0.00    -0.355 C  
HETATM    2  N   UNL     1     -10.991  12.689  65.589  1.00  0.00    -0.274 NA 
HETATM    3  C   UNL     1     -10.685  12.526  67.026  1.00  0.00    -0.242 C  
HETATM    4  C   UNL     1     -10.757  11.073  67.557  1.00  0.00    -0.244 C  
HETATM    5  N   UNL     1      -9.976  10.082  66.783  1.00  0.00    -0.200 NA 
HETATM    6  C   UNL     1     -10.394  10.225  65.363  1.00  0.00    -0.163 C  
HETATM    7  C   UNL     1     -10.283  11.664  64.799  1.00  0.00    -0.275 C  
ENDROOT
BRANCH   5   8
HETATM    8  C   UNL     1      -8.494  10.242  66.956  1.00  0.00    -0.129 C  
BRANCH   8   9
HETATM    9  C   UNL     1      -8.021   9.949  68.392  1.00  0.00    -0.096 A  
HETATM   10  C   UNL     1      -7.107  10.818  69.020  1.00  0.00    -0.091 A  
HETATM   11  C   UNL     1      -8.537   8.885  69.147  1.00  0.00    -0.134 A  
HETATM   12  C   UNL     1      -6.745  10.640  70.359  1.00  0.00    -0.017 A  
HETATM   13  C   UNL     1      -7.279   9.584  71.092  1.00  0.00     0.073 A  
HETATM   14  C   UNL     1      -8.166   8.700  70.479  1.00  0.00    -0.127 A  
ENDBRANCH   8   9
BRANCH   8  15
HETATM   15  C   UNL     1      -7.719   9.450  65.888  1.00  0.00    -0.099 A  
HETATM   16  C   UNL     1      -6.429   9.463  63.820  1.00  0.00    -0.095 A  
HETATM   17  C   UNL     1      -7.349   7.390  64.636  1.00  0.00    -0.082 A  
HETATM   18  C   UNL     1      -6.958  10.136  64.922  1.00  0.00    -0.131 A  
HETATM   19  C   UNL     1      -7.890   8.063  65.732  1.00  0.00    -0.097 A  
HETATM   20  C   UNL     1      -6.631   8.092  63.672  1.00  0.00    -0.072 A  
ENDBRANCH   8  15
ENDBRANCH   5   8
TORSDOF 3
ENDMDL
MODEL      150
REMARK 921   NORMALIZED FREE ENERGY PREDICTED BY IDOCK:   -2.77 KCAL/MOL
REMARK 922        TOTAL FREE ENERGY PREDICTED BY IDOCK:   -3.22 KCAL/MOL
REMARK 923 INTER-LIGAND FREE ENERGY PREDICTED BY IDOCK:   -3.00 KCAL/MOL
REMARK 924 INTRA-LIGAND FREE ENERGY PREDICTED BY IDOCK:   -0.22 KCAL/MOL
REMARK 927      BINDING AFFINITY PREDICTED BY RF-SCORE:    0.00 PKD
ROOT
HETATM    1  C   UNL     1     -10.483   2.994  74.547  1.00  0.00    -0.155 C  
HETATM    2  N   UNL     1      -9.714   3.499  73.411  1.00  0.00    -0.107 NA 
HETATM    3  C   UNL     1     -10.466   4.527  72.661  1.00  0.00    -0.195 C  
HETATM    4  C   UNL     1     -10.488   5.934  73.308  1.00  0.00    -0.235 C  
HETATM    5  N   UNL     1      -9.160   6.479  73.672  1.00  0.00    -0.128 NA 
HETATM    6  C   UNL     1      -8.489   5.444  74.504  1.00  0.00    -0.108 C  
HETATM    7  C   UNL     1      -8.414   4.041  73.853  1.00  0.00    -0.091 C  
ENDROOT
BRANCH   5   8
HETATM    8  C   UNL     1      -8.339   6.865  72.477  1.00  0.00    -0.110 C  
BRANCH   8   9
HETATM    9  C   UNL     1      -9.177   7.508  71.355  1.00  0.00    -0.150 A  
HETATM   10  C   UNL     1     -10.024   8.595  71.649  1.00  0.00    -0.353 A  
HETATM   11  C   UNL     1      -9.065   7.109  70.015  1.00  0.00    -0.145 A  
HETATM   12  C   UNL     1     -10.712   9.269  70.634  1.00  0.00    -0.331 A  
HETATM   13  C   UNL     1     -10.575   8.863  69.310  1.00  0.00    -0.219 A  
HETATM   14  C   UNL     1      -9.760   7.774  69.004  1.00  0.00    -0.157 A  
ENDBRANCH   8   9
BRANCH   8  15
HETATM   15  C   UNL     1      -7.123   7.712  72.886  1.00  0.00    -0.086 A  
HETATM   16  C   UNL     1      -6.055   9.155  74.536  1.00  0.00    -0.065 A  
HETATM   17  C   UNL     1      -5.207   9.096  72.281  1.00  0.00    -0.068 A  
HETATM   18  C   UNL     1      -7.026   8.210  74.200  1.00  0.00    -0.176 A  
HETATM   19  C   UNL     1      -6.185   8.161  71.939  1.00  0.00    -0.047 A  
HETATM   20  C   UNL     1      -5.151   9.604  73.576  1.00  0.00    -0.076 A  
ENDBRANCH   8  15
ENDBRANCH   5   8
TORSDOF 3
ENDMDL
MODEL      151
REMARK 921   NORMALIZED FREE ENERGY PREDICTED BY IDOCK:   -2.64 KCAL/MOL
REMARK 922        TOTAL FREE ENERGY PREDICTED BY IDOCK:   -3.07 KCAL/MOL
REMARK 923 INTER-LIGAND FREE ENERGY PREDICTED BY IDOCK:   -4.20 KCAL/MOL
REMARK 924 INTRA-LIGAND FREE ENERGY PREDICTED BY IDOCK:    1.14 KCAL/MOL
REMARK 927      BINDING AFFINITY PREDICTED BY RF-SCORE:    0.00 PKD
ROOT
HETATM    1  C   UNL     1     -13.446  15.319  73.135  1.00  0.00    -0.414 C  
HETATM    2  N   UNL     1     -12.214  14.811  72.535  1.00  0.00    -0.297 NA 
HETATM    3  C   UNL     1     -12.331  13.381  72.182  1.00  0.00     0.384 C  
HETATM    4  C   UNL     1     -13.120  13.083  70.883  1.00  0.00     0.063 C  
HETATM    5  N   UNL     1     -12.674  13.838  69.690  1.00  0.00     0.031 NA 
HETATM    6  C   UNL     1     -12.667  15.275  70.074  1.00  0.00    -0.171 C  
HETATM    7  C   UNL     1     -11.843  15.600  71.344  1.00  0.00    -0.421 C  
ENDROOT
BRANCH   5   8
HETATM    8  C   UNL     1     -11.340  13.382  69.176  1.00  0.00    -0.280 C  
BRANCH   8   9
HETATM    9  C   UNL     1     -11.047  11.903  69.492  1.00  0.00    -0.169 A  
HETATM   10  C   UNL     1      -9.730  11.413  69.390  1.00  0.00     0.329 A  
HETATM   11  C   UNL     1     -12.036  11.030  69.970  1.00  0.00    -0.430 A  
HETATM   12  C   UNL     1      -9.415  10.105  69.776  1.00  0.00    -0.201 A  
HETATM   13  C   UNL     1     -10.410   9.261  70.258  1.00  0.00    -0.272 A  
HETATM   14  C   UNL     1     -11.723   9.722  70.343  1.00  0.00    -0.301 A  
ENDBRANCH   8   9
BRANCH   8  15
HETATM   15  C   UNL     1     -11.168  13.730  67.687  1.00  0.00    -0.316 A  
HETATM   16  C   UNL     1     -11.001  12.962  65.379  1.00  0.00    -0.305 A  
HETATM   17  C   UNL     1     -10.299  15.197  65.943  1.00  0.00    -0.344 A  
HETATM   18  C   UNL     1     -11.361  12.735  66.709  1.00  0.00    -0.362 A  
HETATM   19  C   UNL     1     -10.646  14.969  67.275  1.00  0.00    -0.279 A  
HETATM   20  C   UNL     1     -10.463  14.189  64.998  1.00  0.00    -0.447 A  
ENDBRANCH   8  15
ENDBRANCH   5   8
TORSDOF 3
ENDMDL
MODEL      152
REMARK 921   NORMALIZED FREE ENERGY PREDICTED BY IDOCK:   -2.57 KCAL/MOL
REMARK 922        TOTAL FREE ENERGY PREDICTED BY IDOCK:   -2.99 KCAL/MOL
REMARK 923 INTER-LIGAND FREE ENERGY PREDICTED BY IDOCK:   -6.31 KCAL/MOL
REMARK 924 INTRA-LIGAND FREE ENERGY PREDICTED BY IDOCK:    3.31 KCAL/MOL
REMARK 927      BINDING AFFINITY PREDICTED BY RF-SCORE:    0.00 PKD
ROOT
HETATM    1  C   UNL     1      -9.099  16.197  67.940  1.00  0.00    -0.192 C  
HETATM    2  N   UNL     1      -9.179  14.753  67.731  1.00  0.00    -0.191 NA 
HETATM    3  C   UNL     1      -9.967  14.095  68.794  1.00  0.00    -0.183 C  
HETATM    4  C   UNL     1     -11.504  14.227  68.655  1.00  0.00    -0.296 C  
HETATM    5  N   UNL     1     -12.052  13.836  67.336  1.00  0.00    -0.379 NA 
HETATM    6  C   UNL     1     -11.287  14.599  66.314  1.00  0.00    -0.347 C  
HETATM    7  C   UNL     1      -9.749  14.441  66.406  1.00  0.00    -0.302 C  
ENDROOT
BRANCH   5   8
HETATM    8  C   UNL     1     -11.997  12.356  67.096  1.00  0.00    -0.177 C  
BRANCH   8   9
HETATM    9  C   UNL     1     -11.350  11.989  65.747  1.00  0.00    -0.384 A  
HETATM   10  C   UNL     1     -10.238  11.123  65.716  1.00  0.00    -0.310 A  
HETATM   11  C   UNL     1     -11.882  12.415  64.521  1.00  0.00    -0.452 A  
HETATM   12  C   UNL     1      -9.698  10.685  64.502  1.00  0.00    -0.367 A  
HETATM   13  C   UNL     1     -10.251  11.112  63.298  1.00  0.00    -0.403 A  
HETATM   14  C   UNL     1     -11.336  11.988  63.310  1.00  0.00    -0.396 A  
ENDBRANCH   8   9
BRANCH   8  15
HETATM   15  C   UNL     1     -11.365  11.621  68.291  1.00  0.00    -0.348 A  
HETATM   16  C   UNL     1      -9.497  10.340  69.192  1.00  0.00    -0.225 A  
HETATM   17  C   UNL     1     -11.602  10.357  70.364  1.00  0.00    -0.423 A  
HETATM   18  C   UNL     1     -10.025  11.193  68.222  1.00  0.00    -0.196 A  
HETATM   19  C   UNL     1     -12.137  11.200  69.389  1.00  0.00    -0.396 A  
HETATM   20  C   UNL     1     -10.287   9.915  70.258  1.00  0.00    -0.339 A  
ENDBRANCH   8  15
ENDBRANCH   5   8
TORSDOF 3
ENDMDL
MODEL      153
REMARK 921   NORMALIZED FREE ENERGY PREDICTED BY IDOCK:   -2.54 KCAL/MOL
REMARK 922        TOTAL FREE ENERGY PREDICTED BY IDOCK:   -2.95 KCAL/MOL
REMARK 923 INTER-LIGAND FREE ENERGY PREDICTED BY IDOCK:   -2.55 KCAL/MOL
REMARK 924 INTRA-LIGAND FREE ENERGY PREDICTED BY IDOCK:   -0.41 KCAL/MOL
REMARK 927      BINDING AFFINITY PREDICTED BY RF-SCORE:    0.00 PKD
ROOT
HETATM    1  C   UNL     1      -9.386   5.132  71.429  1.00  0.00    -0.148 C  
HETATM    2  N   UNL     1      -8.363   5.639  70.516  1.00  0.00    -0.115 NA 
HETATM    3  C   UNL     1      -8.107   4.693  69.410  1.00  0.00    -0.069 C  
HETATM    4  C   UNL     1      -9.162   4.700  68.276  1.00  0.00    -0.128 C  
HETATM    5  N   UNL     1      -9.467   6.034  67.709  1.00  0.00    -0.112 NA 
HETATM    6  C   UNL     1      -9.810   6.916  68.856  1.00  0.00    -0.147 C  
HETATM    7  C   UNL     1      -8.743   6.960  69.979  1.00  0.00    -0.142 C  
ENDROOT
BRANCH   5   8
HETATM    8  C   UNL     1      -8.343   6.589  66.884  1.00  0.00    -0.113 C  
BRANCH   8   9
HETATM    9  C   UNL     1      -8.087   5.782  65.597  1.00  0.00    -0.119 A  
HETATM   10  C   UNL     1      -6.767   5.588  65.143  1.00  0.00    -0.044 A  
HETATM   11  C   UNL     1      -9.122   5.148  64.894  1.00  0.00    -0.042 A  
HETATM   12  C   UNL     1      -6.497   4.769  64.041  1.00  0.00    -0.037 A  
HETATM   13  C   UNL     1      -7.539   4.141  63.366  1.00  0.00    -0.062 A  
HETATM   14  C   UNL     1      -8.853   4.341  63.787  1.00  0.00    -0.132 A  
ENDBRANCH   8   9
BRANCH   8  15
HETATM   15  C   UNL     1      -8.528   8.094  66.630  1.00  0.00    -0.129 A  
HETATM   16  C   UNL     1      -7.815  10.382  67.081  1.00  0.00    -0.110 A  
HETATM   17  C   UNL     1      -9.963   9.984  66.063  1.00  0.00    -0.334 A  
HETATM   18  C   UNL     1      -7.566   9.008  67.102  1.00  0.00    -0.091 A  
HETATM   19  C   UNL     1      -9.722   8.610  66.096  1.00  0.00    -0.292 A  
HETATM   20  C   UNL     1      -9.015  10.869  66.569  1.00  0.00    -0.178 A  
ENDBRANCH   8  15
ENDBRANCH   5   8
TORSDOF 3
ENDMDL
MODEL      154
REMARK 921   NORMALIZED FREE ENERGY PREDICTED BY IDOCK:   -2.51 KCAL/MOL
REMARK 922        TOTAL FREE ENERGY PREDICTED BY IDOCK:   -2.92 KCAL/MOL
REMARK 923 INTER-LIGAND FREE ENERGY PREDICTED BY IDOCK:   -3.25 KCAL/MOL
REMARK 924 INTRA-LIGAND FREE ENERGY PREDICTED BY IDOCK:    0.33 KCAL/MOL
REMARK 927      BINDING AFFINITY PREDICTED BY RF-SCORE:    0.00 PKD
ROOT
HETATM    1  C   UNL     1      -7.447   5.089  66.625  1.00  0.00    -0.087 C  
HETATM    2  N   UNL     1      -7.022   6.316  65.953  1.00  0.00    -0.060 NA 
HETATM    3  C   UNL     1      -8.149   6.969  65.254  1.00  0.00    -0.134 C  
HETATM    4  C   UNL     1      -9.115   7.770  66.162  1.00  0.00    -0.153 C  
HETATM    5  N   UNL     1      -8.466   8.755  67.056  1.00  0.00    -0.109 NA 
HETATM    6  C   UNL     1      -7.408   8.022  67.801  1.00  0.00    -0.093 C  
HETATM    7  C   UNL     1      -6.402   7.255  66.908  1.00  0.00    -0.051 C  
ENDROOT
BRANCH   5   8
HETATM    8  C   UNL     1      -7.920   9.942  66.318  1.00  0.00    -0.108 C  
BRANCH   8   9
HETATM    9  C   UNL     1      -8.961  10.612  65.402  1.00  0.00    -0.208 A  
HETATM   10  C   UNL     1      -8.812  10.540  64.002  1.00  0.00    -0.206 A  
HETATM   11  C   UNL     1     -10.119  11.223  65.906  1.00  0.00    -0.291 A  
HETATM   12  C   UNL     1      -9.797  11.042  63.145  1.00  0.00    -0.398 A  
HETATM   13  C   UNL     1     -10.942  11.634  63.669  1.00  0.00    -0.507 A  
HETATM   14  C   UNL     1     -11.096  11.734  65.051  1.00  0.00    -0.343 A  
ENDBRANCH   8   9
BRANCH   8  15
HETATM   15  C   UNL     1      -7.234  10.929  67.279  1.00  0.00    -0.098 A  
HETATM   16  C   UNL     1      -5.444  11.373  68.874  1.00  0.00    -0.039 A  
HETATM   17  C   UNL     1      -7.353  12.841  68.789  1.00  0.00    -0.067 A  
HETATM   18  C   UNL     1      -5.983  10.606  67.839  1.00  0.00    -0.043 A  
HETATM   19  C   UNL     1      -7.900  12.069  67.763  1.00  0.00    -0.145 A  
HETATM   20  C   UNL     1      -6.132  12.485  69.354  1.00  0.00    -0.108 A  
ENDBRANCH   8  15
ENDBRANCH   5   8
TORSDOF 3
ENDMDL
MODEL      155
REMARK 921   NORMALIZED FREE ENERGY PREDICTED BY IDOCK:   -2.22 KCAL/MOL
REMARK 922        TOTAL FREE ENERGY PREDICTED BY IDOCK:   -2.58 KCAL/MOL
REMARK 923 INTER-LIGAND FREE ENERGY PREDICTED BY IDOCK:   -2.46 KCAL/MOL
REMARK 924 INTRA-LIGAND FREE ENERGY PREDICTED BY IDOCK:   -0.12 KCAL/MOL
REMARK 927      BINDING AFFINITY PREDICTED BY RF-SCORE:    0.00 PKD
ROOT
HETATM    1  C   UNL     1      -5.634   9.366  71.110  1.00  0.00    -0.060 C  
HETATM    2  N   UNL     1      -7.087   9.530  71.111  1.00  0.00    -0.319 NA 
HETATM    3  C   UNL     1      -7.501  10.698  70.306  1.00  0.00     0.460 C  
HETATM    4  C   UNL     1      -7.500  10.478  68.773  1.00  0.00    -0.097 C  
HETATM    5  N   UNL     1      -8.243   9.284  68.308  1.00  0.00    -0.114 NA 
HETATM    6  C   UNL     1      -7.718   8.128  69.083  1.00  0.00    -0.098 C  
HETATM    7  C   UNL     1      -7.757   8.310  70.621  1.00  0.00    -0.083 C  
ENDROOT
BRANCH   5   8
HETATM    8  C   UNL     1      -9.730   9.431  68.447  1.00  0.00    -0.149 C  
BRANCH   8   9
HETATM    9  C   UNL     1     -10.310  10.540  67.550  1.00  0.00    -0.265 A  
HETATM   10  C   UNL     1      -9.796  10.731  66.251  1.00  0.00    -0.262 A  
HETATM   11  C   UNL     1     -11.406  11.323  67.941  1.00  0.00    -0.367 A  
HETATM   12  C   UNL     1     -10.376  11.654  65.374  1.00  0.00    -0.313 A  
HETATM   13  C   UNL     1     -11.470  12.411  65.781  1.00  0.00    -0.416 A  
HETATM   14  C   UNL     1     -11.976  12.253  67.070  1.00  0.00    -0.213 A  
ENDBRANCH   8   9
BRANCH   8  15
HETATM   15  C   UNL     1     -10.442   8.078  68.277  1.00  0.00    -0.210 A  
HETATM   16  C   UNL     1     -11.170   5.974  69.269  1.00  0.00    -0.367 A  
HETATM   17  C   UNL     1     -11.110   6.201  66.870  1.00  0.00    -0.301 A  
HETATM   18  C   UNL     1     -10.729   7.291  69.409  1.00  0.00    -0.236 A  
HETATM   19  C   UNL     1     -10.657   7.513  67.008  1.00  0.00    -0.409 A  
HETATM   20  C   UNL     1     -11.353   5.426  68.001  1.00  0.00     1.361 A  
ENDBRANCH   8  15
ENDBRANCH   5   8
TORSDOF 3
ENDMDL
MODEL      156
REMARK 921   NORMALIZED FREE ENERGY PREDICTED BY IDOCK:   -2.19 KCAL/MOL
REMARK 922        TOTAL FREE ENERGY PREDICTED BY IDOCK:   -2.54 KCAL/MOL
REMARK 923 INTER-LIGAND FREE ENERGY PREDICTED BY IDOCK:   -2.14 KCAL/MOL
REMARK 924 INTRA-LIGAND FREE ENERGY PREDICTED BY IDOCK:   -0.40 KCAL/MOL
REMARK 927      BINDING AFFINITY PREDICTED BY RF-SCORE:    0.00 PKD
ROOT
HETATM    1  C   UNL     1      -5.225   4.629  72.915  1.00  0.00    -0.008 C  
HETATM    2  N   UNL     1      -6.583   4.525  72.382  1.00  0.00    -0.039 NA 
HETATM    3  C   UNL     1      -7.175   5.857  72.144  1.00  0.00    -0.089 C  
HETATM    4  C   UNL     1      -6.696   6.574  70.857  1.00  0.00    -0.054 C  
HETATM    5  N   UNL     1      -6.799   5.772  69.616  1.00  0.00    -0.059 NA 
HETATM    6  C   UNL     1      -6.104   4.484  69.883  1.00  0.00    -0.018 C  
HETATM    7  C   UNL     1      -6.603   3.729  71.140  1.00  0.00    -0.030 C  
ENDROOT
BRANCH   5   8
HETATM    8  C   UNL     1      -8.216   5.568  69.168  1.00  0.00    -0.095 C  
BRANCH   8   9
HETATM    9  C   UNL     1      -9.065   6.850  69.260  1.00  0.00    -0.140 A  
HETATM   10  C   UNL     1     -10.397   6.775  69.716  1.00  0.00    -0.226 A  
HETATM   11  C   UNL     1      -8.536   8.120  68.991  1.00  0.00    -0.129 A  
HETATM   12  C   UNL     1     -11.157   7.933  69.916  1.00  0.00    -0.123 A  
HETATM   13  C   UNL     1     -10.606   9.183  69.653  1.00  0.00    -0.237 A  
HETATM   14  C   UNL     1      -9.298   9.274  69.179  1.00  0.00    -0.157 A  
ENDBRANCH   8   9
BRANCH   8  15
HETATM   15  C   UNL     1      -8.271   4.903  67.782  1.00  0.00    -0.101 A  
HETATM   16  C   UNL     1      -8.088   5.124  65.361  1.00  0.00    -0.118 A  
HETATM   17  C   UNL     1      -9.135   3.167  66.301  1.00  0.00    -0.158 A  
HETATM   18  C   UNL     1      -7.845   5.615  66.645  1.00  0.00    -0.101 A  
HETATM   19  C   UNL     1      -8.906   3.663  67.585  1.00  0.00    -0.143 A  
HETATM   20  C   UNL     1      -8.739   3.905  65.188  1.00  0.00    -0.116 A  
ENDBRANCH   8  15
ENDBRANCH   5   8
TORSDOF 3
ENDMDL
MODEL      157
REMARK 921   NORMALIZED FREE ENERGY PREDICTED BY IDOCK:   -2.14 KCAL/MOL
REMARK 922        TOTAL FREE ENERGY PREDICTED BY IDOCK:   -2.48 KCAL/MOL
REMARK 923 INTER-LIGAND FREE ENERGY PREDICTED BY IDOCK:   -1.85 KCAL/MOL
REMARK 924 INTRA-LIGAND FREE ENERGY PREDICTED BY IDOCK:   -0.63 KCAL/MOL
REMARK 927      BINDING AFFINITY PREDICTED BY RF-SCORE:    0.00 PKD
ROOT
HETATM    1  C   UNL     1      -5.280   5.501  72.131  1.00  0.00    -0.016 C  
HETATM    2  N   UNL     1      -6.559   5.907  71.550  1.00  0.00    -0.052 NA 
HETATM    3  C   UNL     1      -6.563   7.341  71.197  1.00  0.00    -0.044 C  
HETATM    4  C   UNL     1      -5.822   7.701  69.885  1.00  0.00    -0.023 C  
HETATM    5  N   UNL     1      -6.225   6.911  68.699  1.00  0.00    -0.026 NA 
HETATM    6  C   UNL     1      -6.110   5.479  69.082  1.00  0.00    -0.025 C  
HETATM    7  C   UNL     1      -6.885   5.089  70.366  1.00  0.00    -0.044 C  
ENDROOT
BRANCH   5   8
HETATM    8  C   UNL     1      -7.599   7.257  68.207  1.00  0.00    -0.118 C  
BRANCH   8   9
HETATM    9  C   UNL     1      -7.723   8.724  67.753  1.00  0.00    -0.102 A  
HETATM   10  C   UNL     1      -8.785   9.518  68.232  1.00  0.00    -0.120 A  
HETATM   11  C   UNL     1      -6.761   9.340  66.940  1.00  0.00    -0.076 A  
HETATM   12  C   UNL     1      -8.861  10.881  67.927  1.00  0.00    -0.134 A  
HETATM   13  C   UNL     1      -7.888  11.473  67.127  1.00  0.00    -0.160 A  
HETATM   14  C   UNL     1      -6.844  10.697  66.625  1.00  0.00    -0.114 A  
ENDBRANCH   8   9
BRANCH   8  15
HETATM   15  C   UNL     1      -8.081   6.252  67.147  1.00  0.00    -0.109 A  
HETATM   16  C   UNL     1      -7.954   5.424  64.857  1.00  0.00    -0.108 A  
HETATM   17  C   UNL     1      -9.819   4.794  66.248  1.00  0.00    -0.236 A  
HETATM   18  C   UNL     1      -7.412   6.161  65.911  1.00  0.00    -0.082 A  
HETATM   19  C   UNL     1      -9.285   5.541  67.299  1.00  0.00    -0.110 A  
HETATM   20  C   UNL     1      -9.160   4.747  65.022  1.00  0.00    -0.150 A  
ENDBRANCH   8  15
ENDBRANCH   5   8
TORSDOF 3
ENDMDL
MODEL      158
REMARK 921   NORMALIZED FREE ENERGY PREDICTED BY IDOCK:   -2.13 KCAL/MOL
REMARK 922        TOTAL FREE ENERGY PREDICTED BY IDOCK:   -2.47 KCAL/MOL
REMARK 923 INTER-LIGAND FREE ENERGY PREDICTED BY IDOCK:   -2.63 KCAL/MOL
REMARK 924 INTRA-LIGAND FREE ENERGY PREDICTED BY IDOCK:    0.16 KCAL/MOL
REMARK 927      BINDING AFFINITY PREDICTED BY RF-SCORE:    0.00 PKD
ROOT
HETATM    1  C   UNL     1     -10.770   2.437  73.930  1.00  0.00    -0.169 C  
HETATM    2  N   UNL     1     -10.982   3.050  72.620  1.00  0.00     0.115 NA 
HETATM    3  C   UNL     1     -11.677   4.349  72.735  1.00  0.00     0.310 C  
HETATM    4  C   UNL     1     -10.788   5.538  73.178  1.00  0.00    -0.285 C  
HETATM    5  N   UNL     1      -9.547   5.722  72.390  1.00  0.00    -0.149 NA 
HETATM    6  C   UNL     1      -8.844   4.412  72.389  1.00  0.00    -0.113 C  
HETATM    7  C   UNL     1      -9.703   3.218  71.903  1.00  0.00    -0.163 C  
ENDROOT
BRANCH   5   8
HETATM    8  C   UNL     1      -9.808   6.226  71.001  1.00  0.00    -0.181 C  
BRANCH   8   9
HETATM    9  C   UNL     1     -10.316   7.680  70.974  1.00  0.00    -0.208 A  
HETATM   10  C   UNL     1      -9.416   8.732  70.708  1.00  0.00    -0.253 A  
HETATM   11  C   UNL     1     -11.674   8.002  71.118  1.00  0.00    -0.307 A  
HETATM   12  C   UNL     1      -9.866  10.049  70.568  1.00  0.00     0.017 A  
HETATM   13  C   UNL     1     -11.219  10.342  70.704  1.00  0.00    -0.406 A  
HETATM   14  C   UNL     1     -12.121   9.318  70.991  1.00  0.00    -0.349 A  
ENDBRANCH   8   9
BRANCH   8  15
HETATM   15  C   UNL     1      -8.594   5.991  70.086  1.00  0.00    -0.135 A  
HETATM   16  C   UNL     1      -6.173   6.018  69.796  1.00  0.00    -0.027 A  
HETATM   17  C   UNL     1      -7.603   5.935  67.857  1.00  0.00    -0.086 A  
HETATM   18  C   UNL     1      -7.294   6.008  70.628  1.00  0.00    -0.085 A  
HETATM   19  C   UNL     1      -8.725   5.938  68.687  1.00  0.00    -0.109 A  
HETATM   20  C   UNL     1      -6.327   5.990  68.412  1.00  0.00    -0.043 A  
ENDBRANCH   8  15
ENDBRANCH   5   8
TORSDOF 3
ENDMDL
MODEL      159
REMARK 921   NORMALIZED FREE ENERGY PREDICTED BY IDOCK:   -1.79 KCAL/MOL
REMARK 922        TOTAL FREE ENERGY PREDICTED BY IDOCK:   -2.07 KCAL/MOL
REMARK 923 INTER-LIGAND FREE ENERGY PREDICTED BY IDOCK:   -2.04 KCAL/MOL
REMARK 924 INTRA-LIGAND FREE ENERGY PREDICTED BY IDOCK:   -0.02 KCAL/MOL
REMARK 927      BINDING AFFINITY PREDICTED BY RF-SCORE:    0.00 PKD
ROOT
HETATM    1  C   UNL     1      -6.689   6.335  74.303  1.00  0.00    -0.078 C  
HETATM    2  N   UNL     1      -7.744   6.664  73.345  1.00  0.00    -0.091 NA 
HETATM    3  C   UNL     1      -7.249   7.564  72.282  1.00  0.00    -0.069 C  
HETATM    4  C   UNL     1      -6.416   6.879  71.171  1.00  0.00    -0.041 C  
HETATM    5  N   UNL     1      -7.054   5.698  70.545  1.00  0.00    -0.064 NA 
HETATM    6  C   UNL     1      -7.443   4.787  71.654  1.00  0.00    -0.071 C  
HETATM    7  C   UNL     1      -8.318   5.442  72.751  1.00  0.00    -0.113 C  
ENDROOT
BRANCH   5   8
HETATM    8  C   UNL     1      -8.219   6.058  69.672  1.00  0.00    -0.115 C  
BRANCH   8   9
HETATM    9  C   UNL     1      -8.126   7.487  69.105  1.00  0.00    -0.123 A  
HETATM   10  C   UNL     1      -9.197   8.385  69.289  1.00  0.00    -0.154 A  
HETATM   11  C   UNL     1      -6.967   7.971  68.479  1.00  0.00    -0.072 A  
HETATM   12  C   UNL     1      -9.097   9.721  68.884  1.00  0.00    -0.148 A  
HETATM   13  C   UNL     1      -7.932  10.180  68.276  1.00  0.00    -0.101 A  
HETATM   14  C   UNL     1      -6.872   9.300  68.064  1.00  0.00    -0.068 A  
ENDBRANCH   8   9
BRANCH   8  15
HETATM   15  C   UNL     1      -8.456   4.991  68.589  1.00  0.00    -0.087 A  
HETATM   16  C   UNL     1      -7.562   3.173  67.232  1.00  0.00    -0.074 A  
HETATM   17  C   UNL     1      -9.640   4.219  66.601  1.00  0.00    -0.218 A  
HETATM   18  C   UNL     1      -7.474   4.011  68.345  1.00  0.00    -0.059 A  
HETATM   19  C   UNL     1      -9.547   5.067  67.706  1.00  0.00    -0.178 A  
HETATM   20  C   UNL     1      -8.640   3.282  66.356  1.00  0.00    -0.121 A  
ENDBRANCH   8  15
ENDBRANCH   5   8
TORSDOF 3
ENDMDL
MODEL      160
REMARK 921   NORMALIZED FREE ENERGY PREDICTED BY IDOCK:   -1.74 KCAL/MOL
REMARK 922        TOTAL FREE ENERGY PREDICTED BY IDOCK:   -2.01 KCAL/MOL
REMARK 923 INTER-LIGAND FREE ENERGY PREDICTED BY IDOCK:   -5.52 KCAL/MOL
REMARK 924 INTRA-LIGAND FREE ENERGY PREDICTED BY IDOCK:    3.51 KCAL/MOL
REMARK 927      BINDING AFFINITY PREDICTED BY RF-SCORE:    0.00 PKD
ROOT
HETATM    1  C   UNL     1     -12.228  13.793  70.281  1.00  0.00    -0.359 C  
HETATM    2  N   UNL     1     -11.055  13.650  69.419  1.00  0.00    -0.191 NA 
HETATM    3  C   UNL     1     -11.312  12.714  68.305  1.00  0.00    -0.295 C  
HETATM    4  C   UNL     1     -12.137  13.295  67.130  1.00  0.00    -0.298 C  
HETATM    5  N   UNL     1     -11.632  14.574  66.579  1.00  0.00    -0.370 NA 
HETATM    6  C   UNL     1     -11.484  15.504  67.730  1.00  0.00    -0.243 C  
HETATM    7  C   UNL     1     -10.621  14.959  68.895  1.00  0.00    -0.247 C  
ENDROOT
BRANCH   5   8
HETATM    8  C   UNL     1     -10.353  14.414  65.812  1.00  0.00    -0.326 C  
BRANCH   8   9
HETATM    9  C   UNL     1      -9.159  15.123  66.480  1.00  0.00    -0.328 A  
HETATM   10  C   UNL     1      -8.229  14.374  67.229  1.00  0.00    -0.223 A  
HETATM   11  C   UNL     1      -8.904  16.490  66.298  1.00  0.00    -0.364 A  
HETATM   12  C   UNL     1      -7.077  14.970  67.753  1.00  0.00    -0.189 A  
HETATM   13  C   UNL     1      -6.840  16.326  67.550  1.00  0.00    -0.189 A  
HETATM   14  C   UNL     1      -7.761  17.087  66.832  1.00  0.00    -0.251 A  
ENDBRANCH   8   9
BRANCH   8  15
HETATM   15  C   UNL     1     -10.077  12.935  65.491  1.00  0.00    -0.270 A  
HETATM   16  C   UNL     1     -10.773  10.888  64.364  1.00  0.00    -0.250 A  
HETATM   17  C   UNL     1      -9.106  10.782  66.102  1.00  0.00    -0.193 A  
HETATM   18  C   UNL     1     -10.851  12.273  64.518  1.00  0.00    -0.355 A  
HETATM   19  C   UNL     1      -9.193  12.165  66.267  1.00  0.00    -0.183 A  
HETATM   20  C   UNL     1      -9.907  10.141  65.161  1.00  0.00    -0.394 A  
ENDBRANCH   8  15
ENDBRANCH   5   8
TORSDOF 3
ENDMDL
MODEL      161
REMARK 921   NORMALIZED FREE ENERGY PREDICTED BY IDOCK:   -1.73 KCAL/MOL
REMARK 922        TOTAL FREE ENERGY PREDICTED BY IDOCK:   -2.00 KCAL/MOL
REMARK 923 INTER-LIGAND FREE ENERGY PREDICTED BY IDOCK:   -2.40 KCAL/MOL
REMARK 924 INTRA-LIGAND FREE ENERGY PREDICTED BY IDOCK:    0.40 KCAL/MOL
REMARK 927      BINDING AFFINITY PREDICTED BY RF-SCORE:    0.00 PKD
ROOT
HETATM    1  C   UNL     1      -9.309  14.407  67.270  1.00  0.00    -0.208 C  
HETATM    2  N   UNL     1      -9.024  13.371  68.261  1.00  0.00    -0.186 NA 
HETATM    3  C   UNL     1      -9.951  12.228  68.131  1.00  0.00    -0.210 C  
HETATM    4  C   UNL     1      -9.633  11.247  66.975  1.00  0.00    -0.178 C  
HETATM    5  N   UNL     1      -8.240  10.745  66.942  1.00  0.00    -0.126 NA 
HETATM    6  C   UNL     1      -7.356  11.940  66.979  1.00  0.00    -0.118 C  
HETATM    7  C   UNL     1      -7.627  12.909  68.156  1.00  0.00    -0.135 C  
ENDROOT
BRANCH   5   8
HETATM    8  C   UNL     1      -7.939   9.784  68.055  1.00  0.00    -0.097 C  
BRANCH   8   9
HETATM    9  C   UNL     1      -9.183   9.422  68.888  1.00  0.00    -0.140 A  
HETATM   10  C   UNL     1     -10.185   8.603  68.330  1.00  0.00    -0.232 A  
HETATM   11  C   UNL     1      -9.322   9.805  70.230  1.00  0.00    -0.236 A  
HETATM   12  C   UNL     1     -11.271   8.167  69.098  1.00  0.00     0.326 A  
HETATM   13  C   UNL     1     -11.381   8.550  70.431  1.00  0.00    -0.193 A  
HETATM   14  C   UNL     1     -10.411   9.380  70.992  1.00  0.00    -0.392 A  
ENDBRANCH   8   9
BRANCH   8  15
HETATM   15  C   UNL     1      -7.177   8.553  67.536  1.00  0.00    -0.084 A  
HETATM   16  C   UNL     1      -5.995   6.479  68.033  1.00  0.00    -0.020 A  
HETATM   17  C   UNL     1      -5.753   7.496  65.861  1.00  0.00    -0.037 A  
HETATM   18  C   UNL     1      -6.869   7.498  68.417  1.00  0.00    -0.063 A  
HETATM   19  C   UNL     1      -6.616   8.522  66.247  1.00  0.00    -0.061 A  
HETATM   20  C   UNL     1      -5.432   6.481  66.759  1.00  0.00    -0.013 A  
ENDBRANCH   8  15
ENDBRANCH   5   8
TORSDOF 3
ENDMDL
MODEL      162
REMARK 921   NORMALIZED FREE ENERGY PREDICTED BY IDOCK:   -1.73 KCAL/MOL
REMARK 922        TOTAL FREE ENERGY PREDICTED BY IDOCK:   -2.00 KCAL/MOL
REMARK 923 INTER-LIGAND FREE ENERGY PREDICTED BY IDOCK:   -5.37 KCAL/MOL
REMARK 924 INTRA-LIGAND FREE ENERGY PREDICTED BY IDOCK:    3.36 KCAL/MOL
REMARK 927      BINDING AFFINITY PREDICTED BY RF-SCORE:    0.00 PKD
ROOT
HETATM    1  C   UNL     1     -12.267  13.590  70.222  1.00  0.00    -0.347 C  
HETATM    2  N   UNL     1     -10.978  13.827  69.575  1.00  0.00    -0.104 NA 
HETATM    3  C   UNL     1     -11.022  13.487  68.137  1.00  0.00    -0.254 C  
HETATM    4  C   UNL     1     -11.702  14.542  67.229  1.00  0.00    -0.406 C  
HETATM    5  N   UNL     1     -11.194  15.925  67.383  1.00  0.00    -0.204 NA 
HETATM    6  C   UNL     1     -11.262  16.245  68.834  1.00  0.00    -0.337 C  
HETATM    7  C   UNL     1     -10.545  15.226  69.755  1.00  0.00    -0.282 C  
ENDROOT
BRANCH   5   8
HETATM    8  C   UNL     1      -9.811  16.103  66.828  1.00  0.00    -0.245 C  
BRANCH   8   9
HETATM    9  C   UNL     1      -9.439  17.582  66.606  1.00  0.00    -0.285 A  
HETATM   10  C   UNL     1     -10.423  18.581  66.748  1.00  0.00    -0.432 A  
HETATM   11  C   UNL     1      -8.122  17.992  66.352  1.00  0.00    -0.292 A  
HETATM   12  C   UNL     1     -10.092  19.937  66.662  1.00  0.00    -0.598 A  
HETATM   13  C   UNL     1      -8.776  20.320  66.421  1.00  0.00    -0.247 A  
HETATM   14  C   UNL     1      -7.794  19.345  66.254  1.00  0.00    -0.320 A  
ENDBRANCH   8   9
BRANCH   8  15
HETATM   15  C   UNL     1      -8.772  15.335  67.662  1.00  0.00    -0.179 A  
HETATM   16  C   UNL     1      -7.028  15.381  69.365  1.00  0.00    -0.181 A  
HETATM   17  C   UNL     1      -7.226  13.465  67.917  1.00  0.00    -0.133 A  
HETATM   18  C   UNL     1      -8.124  15.975  68.736  1.00  0.00    -0.212 A  
HETATM   19  C   UNL     1      -8.313  14.063  67.277  1.00  0.00    -0.209 A  
HETATM   20  C   UNL     1      -6.575  14.131  68.952  1.00  0.00    -0.099 A  
ENDBRANCH   8  15
ENDBRANCH   5   8
TORSDOF 3
ENDMDL
MODEL      163
REMARK 921   NORMALIZED FREE ENERGY PREDICTED BY IDOCK:   -1.48 KCAL/MOL
REMARK 922        TOTAL FREE ENERGY PREDICTED BY IDOCK:   -1.71 KCAL/MOL
REMARK 923 INTER-LIGAND FREE ENERGY PREDICTED BY IDOCK:   -2.19 KCAL/MOL
REMARK 924 INTRA-LIGAND FREE ENERGY PREDICTED BY IDOCK:    0.48 KCAL/MOL
REMARK 927      BINDING AFFINITY PREDICTED BY RF-SCORE:    0.00 PKD
ROOT
HETATM    1  C   UNL     1      -7.142  10.513  69.927  1.00  0.00    -0.145 C  
HETATM    2  N   UNL     1      -6.973   9.191  70.528  1.00  0.00    -0.071 NA 
HETATM    3  C   UNL     1      -8.246   8.443  70.561  1.00  0.00    -0.113 C  
HETATM    4  C   UNL     1      -8.673   7.806  69.215  1.00  0.00    -0.139 C  
HETATM    5  N   UNL     1      -7.640   6.971  68.559  1.00  0.00    -0.112 NA 
HETATM    6  C   UNL     1      -6.414   7.807  68.468  1.00  0.00    -0.052 C  
HETATM    7  C   UNL     1      -5.943   8.413  69.813  1.00  0.00    -0.028 C  
ENDROOT
BRANCH   5   8
HETATM    8  C   UNL     1      -7.392   5.677  69.278  1.00  0.00    -0.074 C  
BRANCH   8   9
HETATM    9  C   UNL     1      -8.289   5.497  70.518  1.00  0.00    -0.116 A  
HETATM   10  C   UNL     1      -9.680   5.334  70.358  1.00  0.00    -0.259 A  
HETATM   11  C   UNL     1      -7.762   5.398  71.814  1.00  0.00    -0.110 A  
HETATM   12  C   UNL     1     -10.504   5.058  71.455  1.00  0.00    -0.213 A  
HETATM   13  C   UNL     1      -9.957   4.953  72.730  1.00  0.00    -0.203 A  
HETATM   14  C   UNL     1      -8.586   5.135  72.909  1.00  0.00    -0.115 A  
ENDBRANCH   8   9
BRANCH   8  15
HETATM   15  C   UNL     1      -7.449   4.483  68.310  1.00  0.00    -0.065 A  
HETATM   16  C   UNL     1      -8.383   3.486  66.291  1.00  0.00    -0.102 A  
HETATM   17  C   UNL     1      -7.241   2.089  67.888  1.00  0.00    -0.047 A  
HETATM   18  C   UNL     1      -8.128   4.607  67.083  1.00  0.00    -0.102 A  
HETATM   19  C   UNL     1      -6.997   3.206  68.688  1.00  0.00    -0.049 A  
HETATM   20  C   UNL     1      -7.947   2.227  66.696  1.00  0.00    -0.076 A  
ENDBRANCH   8  15
ENDBRANCH   5   8
TORSDOF 3
ENDMDL
MODEL      164
REMARK 921   NORMALIZED FREE ENERGY PREDICTED BY IDOCK:   -1.44 KCAL/MOL
REMARK 922        TOTAL FREE ENERGY PREDICTED BY IDOCK:   -1.65 KCAL/MOL
REMARK 923 INTER-LIGAND FREE ENERGY PREDICTED BY IDOCK:   -5.13 KCAL/MOL
REMARK 924 INTRA-LIGAND FREE ENERGY PREDICTED BY IDOCK:    3.48 KCAL/MOL
REMARK 927      BINDING AFFINITY PREDICTED BY RF-SCORE:    0.00 PKD
ROOT
HETATM    1  C   UNL     1      -6.066  10.153  69.895  1.00  0.00    -0.057 C  
HETATM    2  N   UNL     1      -7.496  10.206  70.194  1.00  0.00    -0.168 NA 
HETATM    3  C   UNL     1      -8.229  11.011  69.194  1.00  0.00    -0.045 C  
HETATM    4  C   UNL     1      -8.509  10.298  67.848  1.00  0.00    -0.118 C  
HETATM    5  N   UNL     1      -9.152   8.969  67.963  1.00  0.00    -0.136 NA 
HETATM    6  C   UNL     1      -8.320   8.173  68.904  1.00  0.00    -0.125 C  
HETATM    7  C   UNL     1      -8.069   8.849  70.275  1.00  0.00    -0.123 C  
ENDROOT
BRANCH   5   8
HETATM    8  C   UNL     1     -10.585   9.050  68.402  1.00  0.00    -0.154 C  
BRANCH   8   9
HETATM    9  C   UNL     1     -10.819   8.447  69.800  1.00  0.00    -0.184 A  
HETATM   10  C   UNL     1     -10.966   9.298  70.914  1.00  0.00    -0.368 A  
HETATM   11  C   UNL     1     -10.985   7.069  70.002  1.00  0.00    -0.303 A  
HETATM   12  C   UNL     1     -11.290   8.786  72.175  1.00  0.00    -0.411 A  
HETATM   13  C   UNL     1     -11.460   7.415  72.349  1.00  0.00    -0.343 A  
HETATM   14  C   UNL     1     -11.296   6.557  71.263  1.00  0.00    -0.355 A  
ENDBRANCH   8   9
BRANCH   8  15
HETATM   15  C   UNL     1     -11.131  10.481  68.260  1.00  0.00    -0.340 A  
HETATM   16  C   UNL     1     -11.427  12.465  66.874  1.00  0.00    -0.423 A  
HETATM   17  C   UNL     1     -11.746  12.621  69.257  1.00  0.00    -0.379 A  
HETATM   18  C   UNL     1     -11.146  11.103  66.996  1.00  0.00    -0.339 A  
HETATM   19  C   UNL     1     -11.452  11.262  69.384  1.00  0.00    -0.370 A  
HETATM   20  C   UNL     1     -11.719  13.225  68.004  1.00  0.00    -0.394 A  
ENDBRANCH   8  15
ENDBRANCH   5   8
TORSDOF 3
ENDMDL
MODEL      165
REMARK 921   NORMALIZED FREE ENERGY PREDICTED BY IDOCK:   -1.36 KCAL/MOL
REMARK 922        TOTAL FREE ENERGY PREDICTED BY IDOCK:   -1.57 KCAL/MOL
REMARK 923 INTER-LIGAND FREE ENERGY PREDICTED BY IDOCK:   -2.90 KCAL/MOL
REMARK 924 INTRA-LIGAND FREE ENERGY PREDICTED BY IDOCK:    1.34 KCAL/MOL
REMARK 927      BINDING AFFINITY PREDICTED BY RF-SCORE:    0.00 PKD
ROOT
HETATM    1  C   UNL     1      -9.393  14.406  67.326  1.00  0.00    -0.208 C  
HETATM    2  N   UNL     1      -9.448  13.822  68.665  1.00  0.00    -0.153 NA 
HETATM    3  C   UNL     1     -10.790  13.281  68.966  1.00  0.00    -0.173 C  
HETATM    4  C   UNL     1     -11.109  11.908  68.324  1.00  0.00    -0.239 C  
HETATM    5  N   UNL     1     -10.098  10.852  68.566  1.00  0.00    -0.176 NA 
HETATM    6  C   UNL     1      -8.785  11.418  68.156  1.00  0.00    -0.154 C  
HETATM    7  C   UNL     1      -8.427  12.769  68.825  1.00  0.00     0.163 C  
ENDROOT
BRANCH   5   8
HETATM    8  C   UNL     1     -10.088  10.367  69.986  1.00  0.00    -0.025 C  
BRANCH   8   9
HETATM    9  C   UNL     1     -11.434  10.582  70.703  1.00  0.00    -0.418 A  
HETATM   10  C   UNL     1     -12.267   9.478  70.976  1.00  0.00    -0.385 A  
HETATM   11  C   UNL     1     -11.834  11.838  71.184  1.00  0.00     0.457 A  
HETATM   12  C   UNL     1     -13.441   9.626  71.723  1.00  0.00    -0.477 A  
HETATM   13  C   UNL     1     -13.811  10.879  72.199  1.00  0.00     0.245 A  
HETATM   14  C   UNL     1     -13.012  11.987  71.918  1.00  0.00    -0.428 A  
ENDBRANCH   8   9
BRANCH   8  15
HETATM   15  C   UNL     1      -9.577   8.919  70.076  1.00  0.00    -0.190 A  
HETATM   16  C   UNL     1      -8.846   7.056  71.469  1.00  0.00    -0.128 A  
HETATM   17  C   UNL     1      -8.357   7.042  69.109  1.00  0.00    -0.125 A  
HETATM   18  C   UNL     1      -9.506   8.278  71.328  1.00  0.00    -0.219 A  
HETATM   19  C   UNL     1      -9.005   8.270  68.968  1.00  0.00    -0.147 A  
HETATM   20  C   UNL     1      -8.265   6.442  70.362  1.00  0.00    -0.121 A  
ENDBRANCH   8  15
ENDBRANCH   5   8
TORSDOF 3
ENDMDL
MODEL      166
REMARK 921   NORMALIZED FREE ENERGY PREDICTED BY IDOCK:   -1.32 KCAL/MOL
REMARK 922        TOTAL FREE ENERGY PREDICTED BY IDOCK:   -1.52 KCAL/MOL
REMARK 923 INTER-LIGAND FREE ENERGY PREDICTED BY IDOCK:   -5.18 KCAL/MOL
REMARK 924 INTRA-LIGAND FREE ENERGY PREDICTED BY IDOCK:    3.66 KCAL/MOL
REMARK 927      BINDING AFFINITY PREDICTED BY RF-SCORE:    0.00 PKD
ROOT
HETATM    1  C   UNL     1      -9.989  19.388  69.162  1.00  0.00    -0.342 C  
HETATM    2  N   UNL     1      -9.234  18.286  68.568  1.00  0.00    -0.317 NA 
HETATM    3  C   UNL     1      -9.949  17.001  68.708  1.00  0.00    -0.293 C  
HETATM    4  C   UNL     1     -11.112  16.779  67.710  1.00  0.00    -0.135 C  
HETATM    5  N   UNL     1     -10.764  16.984  66.284  1.00  0.00    -0.162 NA 
HETATM    6  C   UNL     1     -10.136  18.329  66.189  1.00  0.00    -0.346 C  
HETATM    7  C   UNL     1      -8.940  18.553  67.147  1.00  0.00    -0.277 C  
ENDROOT
BRANCH   5   8
HETATM    8  C   UNL     1      -9.876  15.904  65.739  1.00  0.00    -0.345 C  
BRANCH   8   9
HETATM    9  C   UNL     1      -8.687  15.580  66.664  1.00  0.00    -0.326 A  
HETATM   10  C   UNL     1      -7.457  16.242  66.481  1.00  0.00    -0.169 A  
HETATM   11  C   UNL     1      -8.804  14.705  67.754  1.00  0.00    -0.177 A  
HETATM   12  C   UNL     1      -6.395  16.050  67.371  1.00  0.00    -0.206 A  
HETATM   13  C   UNL     1      -6.538  15.186  68.452  1.00  0.00    -0.101 A  
HETATM   14  C   UNL     1      -7.741  14.504  68.635  1.00  0.00    -0.137 A  
ENDBRANCH   8   9
BRANCH   8  15
HETATM   15  C   UNL     1     -10.691  14.662  65.340  1.00  0.00    -0.382 A  
HETATM   16  C   UNL     1     -12.797  13.723  64.549  1.00  0.00     0.027 A  
HETATM   17  C   UNL     1     -11.152  12.276  65.553  1.00  0.00    -0.348 A  
HETATM   18  C   UNL     1     -11.946  14.816  64.721  1.00  0.00    -0.408 A  
HETATM   19  C   UNL     1     -10.305  13.369  65.737  1.00  0.00    -0.296 A  
HETATM   20  C   UNL     1     -12.404  12.455  64.972  1.00  0.00    -0.441 A  
ENDBRANCH   8  15
ENDBRANCH   5   8
TORSDOF 3
ENDMDL
MODEL      167
REMARK 921   NORMALIZED FREE ENERGY PREDICTED BY IDOCK:   -1.30 KCAL/MOL
REMARK 922        TOTAL FREE ENERGY PREDICTED BY IDOCK:   -1.49 KCAL/MOL
REMARK 923 INTER-LIGAND FREE ENERGY PREDICTED BY IDOCK:   -5.18 KCAL/MOL
REMARK 924 INTRA-LIGAND FREE ENERGY PREDICTED BY IDOCK:    3.69 KCAL/MOL
REMARK 927      BINDING AFFINITY PREDICTED BY RF-SCORE:    0.00 PKD
ROOT
HETATM    1  C   UNL     1      -8.541   8.247  64.677  1.00  0.00     0.022 C  
HETATM    2  N   UNL     1      -9.365   9.311  65.248  1.00  0.00    -0.232 NA 
HETATM    3  C   UNL     1     -10.029   8.873  66.493  1.00  0.00    -0.288 C  
HETATM    4  C   UNL     1      -9.128   8.857  67.753  1.00  0.00    -0.134 C  
HETATM    5  N   UNL     1      -8.392  10.116  68.015  1.00  0.00    -0.116 NA 
HETATM    6  C   UNL     1      -7.669  10.455  66.761  1.00  0.00    -0.114 C  
HETATM    7  C   UNL     1      -8.562  10.524  65.498  1.00  0.00    -0.180 C  
ENDROOT
BRANCH   5   8
HETATM    8  C   UNL     1      -9.287  11.230  68.473  1.00  0.00    -0.182 C  
BRANCH   8   9
HETATM    9  C   UNL     1      -9.989  11.954  67.308  1.00  0.00    -0.200 A  
HETATM   10  C   UNL     1     -11.284  11.558  66.916  1.00  0.00    -0.363 A  
HETATM   11  C   UNL     1      -9.423  13.066  66.668  1.00  0.00    -0.256 A  
HETATM   12  C   UNL     1     -11.990  12.266  65.938  1.00  0.00    -0.358 A  
HETATM   13  C   UNL     1     -11.411  13.374  65.325  1.00  0.00    -0.318 A  
HETATM   14  C   UNL     1     -10.122  13.765  65.683  1.00  0.00    -0.315 A  
ENDBRANCH   8   9
BRANCH   8  15
HETATM   15  C   UNL     1     -10.260  10.751  69.563  1.00  0.00    -0.146 A  
HETATM   16  C   UNL     1     -10.816   9.110  71.279  1.00  0.00    -0.402 A  
HETATM   17  C   UNL     1     -12.522  10.604  70.466  1.00  0.00    -0.445 A  
HETATM   18  C   UNL     1      -9.881   9.709  70.432  1.00  0.00    -0.315 A  
HETATM   19  C   UNL     1     -11.593  11.196  69.609  1.00  0.00    -0.398 A  
HETATM   20  C   UNL     1     -12.137   9.551  71.290  1.00  0.00    -0.443 A  
ENDBRANCH   8  15
ENDBRANCH   5   8
TORSDOF 3
ENDMDL
MODEL      168
REMARK 921   NORMALIZED FREE ENERGY PREDICTED BY IDOCK:   -1.24 KCAL/MOL
REMARK 922        TOTAL FREE ENERGY PREDICTED BY IDOCK:   -1.42 KCAL/MOL
REMARK 923 INTER-LIGAND FREE ENERGY PREDICTED BY IDOCK:   -1.93 KCAL/MOL
REMARK 924 INTRA-LIGAND FREE ENERGY PREDICTED BY IDOCK:    0.51 KCAL/MOL
REMARK 927      BINDING AFFINITY PREDICTED BY RF-SCORE:    0.00 PKD
ROOT
HETATM    1  C   UNL     1      -6.723   8.231  62.929  1.00  0.00    -0.086 C  
HETATM    2  N   UNL     1      -7.700   7.383  63.611  1.00  0.00    -0.121 NA 
HETATM    3  C   UNL     1      -7.274   5.968  63.624  1.00  0.00    -0.060 C  
HETATM    4  C   UNL     1      -6.192   5.613  64.673  1.00  0.00    -0.025 C  
HETATM    5  N   UNL     1      -6.497   6.037  66.059  1.00  0.00    -0.045 NA 
HETATM    6  C   UNL     1      -6.824   7.486  65.998  1.00  0.00    -0.057 C  
HETATM    7  C   UNL     1      -7.939   7.856  64.988  1.00  0.00    -0.137 C  
ENDROOT
BRANCH   5   8
HETATM    8  C   UNL     1      -7.599   5.234  66.686  1.00  0.00    -0.088 C  
BRANCH   8   9
HETATM    9  C   UNL     1      -7.077   4.126  67.621  1.00  0.00    -0.063 A  
HETATM   10  C   UNL     1      -7.971   3.457  68.481  1.00  0.00    -0.066 A  
HETATM   11  C   UNL     1      -5.746   3.685  67.589  1.00  0.00    -0.022 A  
HETATM   12  C   UNL     1      -7.549   2.374  69.260  1.00  0.00    -0.043 A  
HETATM   13  C   UNL     1      -6.226   1.947  69.203  1.00  0.00    -0.025 A  
HETATM   14  C   UNL     1      -5.322   2.612  68.375  1.00  0.00    -0.013 A  
ENDBRANCH   8   9
BRANCH   8  15
HETATM   15  C   UNL     1      -8.644   6.145  67.351  1.00  0.00    -0.106 A  
HETATM   16  C   UNL     1      -9.313   7.480  69.279  1.00  0.00    -0.151 A  
HETATM   17  C   UNL     1     -10.963   6.847  67.640  1.00  0.00    -0.304 A  
HETATM   18  C   UNL     1      -8.324   6.827  68.541  1.00  0.00    -0.120 A  
HETATM   19  C   UNL     1      -9.978   6.182  66.908  1.00  0.00    -0.211 A  
HETATM   20  C   UNL     1     -10.633   7.483  68.833  1.00  0.00    -0.184 A  
ENDBRANCH   8  15
ENDBRANCH   5   8
TORSDOF 3
ENDMDL
MODEL      169
REMARK 921   NORMALIZED FREE ENERGY PREDICTED BY IDOCK:   -1.23 KCAL/MOL
REMARK 922        TOTAL FREE ENERGY PREDICTED BY IDOCK:   -1.41 KCAL/MOL
REMARK 923 INTER-LIGAND FREE ENERGY PREDICTED BY IDOCK:   -2.96 KCAL/MOL
REMARK 924 INTRA-LIGAND FREE ENERGY PREDICTED BY IDOCK:    1.55 KCAL/MOL
REMARK 927      BINDING AFFINITY PREDICTED BY RF-SCORE:    0.00 PKD
ROOT
HETATM    1  C   UNL     1      -5.294   4.455  72.280  1.00  0.00    -0.004 C  
HETATM    2  N   UNL     1      -6.673   4.773  71.912  1.00  0.00    -0.041 NA 
HETATM    3  C   UNL     1      -6.943   6.222  72.020  1.00  0.00    -0.077 C  
HETATM    4  C   UNL     1      -6.405   7.084  70.851  1.00  0.00    -0.040 C  
HETATM    5  N   UNL     1      -6.792   6.620  69.499  1.00  0.00    -0.063 NA 
HETATM    6  C   UNL     1      -6.410   5.186  69.415  1.00  0.00    -0.034 C  
HETATM    7  C   UNL     1      -6.980   4.298  70.549  1.00  0.00    -0.034 C  
ENDROOT
BRANCH   5   8
HETATM    8  C   UNL     1      -8.246   6.838  69.202  1.00  0.00    -0.121 C  
BRANCH   8   9
HETATM    9  C   UNL     1      -9.070   7.186  70.456  1.00  0.00    -0.155 A  
HETATM   10  C   UNL     1     -10.049   6.286  70.923  1.00  0.00    -0.227 A  
HETATM   11  C   UNL     1      -8.824   8.339  71.217  1.00  0.00    -0.193 A  
HETATM   12  C   UNL     1     -10.735   6.522  72.119  1.00  0.00    -0.249 A  
HETATM   13  C   UNL     1     -10.465   7.667  72.863  1.00  0.00    -0.394 A  
HETATM   14  C   UNL     1      -9.518   8.581  72.404  1.00  0.00    -0.350 A  
ENDBRANCH   8   9
BRANCH   8  15
HETATM   15  C   UNL     1      -8.436   7.844  68.053  1.00  0.00    -0.123 A  
HETATM   16  C   UNL     1      -7.513   9.645  66.694  1.00  0.00    -0.094 A  
HETATM   17  C   UNL     1      -9.890   9.250  66.689  1.00  0.00    -0.311 A  
HETATM   18  C   UNL     1      -7.333   8.577  67.575  1.00  0.00    -0.089 A  
HETATM   19  C   UNL     1      -9.714   8.190  67.580  1.00  0.00    -0.200 A  
HETATM   20  C   UNL     1      -8.791   9.986  66.258  1.00  0.00    -0.160 A  
ENDBRANCH   8  15
ENDBRANCH   5   8
TORSDOF 3
ENDMDL
MODEL      170
REMARK 921   NORMALIZED FREE ENERGY PREDICTED BY IDOCK:   -0.97 KCAL/MOL
REMARK 922        TOTAL FREE ENERGY PREDICTED BY IDOCK:   -1.11 KCAL/MOL
REMARK 923 INTER-LIGAND FREE ENERGY PREDICTED BY IDOCK:   -5.06 KCAL/MOL
REMARK 924 INTRA-LIGAND FREE ENERGY PREDICTED BY IDOCK:    3.95 KCAL/MOL
REMARK 927      BINDING AFFINITY PREDICTED BY RF-SCORE:    0.00 PKD
ROOT
HETATM    1  C   UNL     1     -10.151  20.444  66.038  1.00  0.00    -0.145 C  
HETATM    2  N   UNL     1      -9.530  19.121  66.076  1.00  0.00    -0.454 NA 
HETATM    3  C   UNL     1      -8.473  19.048  67.107  1.00  0.00    -0.280 C  
HETATM    4  C   UNL     1      -8.979  18.882  68.561  1.00  0.00    -0.351 C  
HETATM    5  N   UNL     1      -9.936  17.771  68.772  1.00  0.00    -0.364 NA 
HETATM    6  C   UNL     1     -11.023  17.951  67.773  1.00  0.00    -0.081 C  
HETATM    7  C   UNL     1     -10.539  18.069  66.306  1.00  0.00    -0.253 C  
ENDROOT
BRANCH   5   8
HETATM    8  C   UNL     1      -9.292  16.420  68.672  1.00  0.00    -0.233 C  
BRANCH   8   9
HETATM    9  C   UNL     1     -10.088  15.438  67.791  1.00  0.00    -0.227 A  
HETATM   10  C   UNL     1     -11.355  14.988  68.214  1.00  0.00    -0.331 A  
HETATM   11  C   UNL     1      -9.640  15.036  66.525  1.00  0.00    -0.299 A  
HETATM   12  C   UNL     1     -12.149  14.185  67.387  1.00  0.00    -0.379 A  
HETATM   13  C   UNL     1     -11.687  13.808  66.130  1.00  0.00    -0.392 A  
HETATM   14  C   UNL     1     -10.426  14.225  65.705  1.00  0.00    -0.336 A  
ENDBRANCH   8   9
BRANCH   8  15
HETATM   15  C   UNL     1      -7.813  16.536  68.265  1.00  0.00    -0.175 A  
HETATM   16  C   UNL     1      -5.542  17.202  68.852  1.00  0.00    -0.146 A  
HETATM   17  C   UNL     1      -6.107  16.805  66.542  1.00  0.00     0.006 A  
HETATM   18  C   UNL     1      -6.846  16.876  69.230  1.00  0.00    -0.228 A  
HETATM   19  C   UNL     1      -7.414  16.491  66.918  1.00  0.00    -0.256 A  
HETATM   20  C   UNL     1      -5.175  17.174  67.508  1.00  0.00    -0.134 A  
ENDBRANCH   8  15
ENDBRANCH   5   8
TORSDOF 3
ENDMDL
MODEL      171
REMARK 921   NORMALIZED FREE ENERGY PREDICTED BY IDOCK:   -0.85 KCAL/MOL
REMARK 922        TOTAL FREE ENERGY PREDICTED BY IDOCK:   -0.96 KCAL/MOL
REMARK 923 INTER-LIGAND FREE ENERGY PREDICTED BY IDOCK:   -0.98 KCAL/MOL
REMARK 924 INTRA-LIGAND FREE ENERGY PREDICTED BY IDOCK:    0.02 KCAL/MOL
REMARK 927      BINDING AFFINITY PREDICTED BY RF-SCORE:    0.00 PKD
ROOT
HETATM    1  C   UNL     1      -9.008   9.173  64.741  1.00  0.00    -0.127 C  
HETATM    2  N   UNL     1      -9.290   9.944  65.950  1.00  0.00    -0.177 NA 
HETATM    3  C   UNL     1     -10.316   9.286  66.786  1.00  0.00    -0.226 C  
HETATM    4  C   UNL     1      -9.812   8.090  67.632  1.00  0.00    -0.167 C  
HETATM    5  N   UNL     1      -8.619   8.368  68.464  1.00  0.00    -0.135 NA 
HETATM    6  C   UNL     1      -7.589   8.938  67.554  1.00  0.00    -0.093 C  
HETATM    7  C   UNL     1      -8.059  10.165  66.735  1.00  0.00    -0.119 C  
ENDROOT
BRANCH   5   8
HETATM    8  C   UNL     1      -8.913   9.272  69.624  1.00  0.00    -0.160 C  
BRANCH   8   9
HETATM    9  C   UNL     1      -9.712   8.576  70.741  1.00  0.00    -0.221 A  
HETATM   10  C   UNL     1     -11.120   8.650  70.747  1.00  0.00    -0.295 A  
HETATM   11  C   UNL     1      -9.095   7.783  71.720  1.00  0.00    -0.171 A  
HETATM   12  C   UNL     1     -11.877   7.938  71.683  1.00  0.00    -0.325 A  
HETATM   13  C   UNL     1     -11.243   7.148  72.637  1.00  0.00    -0.331 A  
HETATM   14  C   UNL     1      -9.850   7.082  72.662  1.00  0.00    -0.186 A  
ENDBRANCH   8   9
BRANCH   8  15
HETATM   15  C   UNL     1      -7.635   9.961  70.132  1.00  0.00    -0.185 A  
HETATM   16  C   UNL     1      -6.392  12.026  70.498  1.00  0.00     0.396 A  
HETATM   17  C   UNL     1      -5.235   9.913  70.567  1.00  0.00    -0.041 A  
HETATM   18  C   UNL     1      -7.596  11.364  70.253  1.00  0.00     1.751 A  
HETATM   19  C   UNL     1      -6.435   9.249  70.310  1.00  0.00    -0.058 A  
HETATM   20  C   UNL     1      -5.211  11.302  70.647  1.00  0.00    -0.113 A  
ENDBRANCH   8  15
ENDBRANCH   5   8
TORSDOF 3
ENDMDL
MODEL      172
REMARK 921   NORMALIZED FREE ENERGY PREDICTED BY IDOCK:   -0.82 KCAL/MOL
REMARK 922        TOTAL FREE ENERGY PREDICTED BY IDOCK:   -0.93 KCAL/MOL
REMARK 923 INTER-LIGAND FREE ENERGY PREDICTED BY IDOCK:   -1.26 KCAL/MOL
REMARK 924 INTRA-LIGAND FREE ENERGY PREDICTED BY IDOCK:    0.33 KCAL/MOL
REMARK 927      BINDING AFFINITY PREDICTED BY RF-SCORE:    0.00 PKD
ROOT
HETATM    1  C   UNL     1     -11.157   1.473  74.119  1.00  0.00    -0.132 C  
HETATM    2  N   UNL     1     -10.945   2.338  72.960  1.00  0.00    -0.133 NA 
HETATM    3  C   UNL     1     -11.022   3.767  73.328  1.00  0.00    -0.183 C  
HETATM    4  C   UNL     1      -9.760   4.340  74.020  1.00  0.00    -0.121 C  
HETATM    5  N   UNL     1      -8.485   4.093  73.307  1.00  0.00    -0.090 NA 
HETATM    6  C   UNL     1      -8.419   2.631  73.048  1.00  0.00    -0.071 C  
HETATM    7  C   UNL     1      -9.651   2.047  72.313  1.00  0.00    -0.103 C  
ENDROOT
BRANCH   5   8
HETATM    8  C   UNL     1      -8.357   4.898  72.047  1.00  0.00    -0.123 C  
BRANCH   8   9
HETATM    9  C   UNL     1      -7.919   6.352  72.305  1.00  0.00    -0.103 A  
HETATM   10  C   UNL     1      -6.572   6.636  72.607  1.00  0.00    -0.063 A  
HETATM   11  C   UNL     1      -8.800   7.435  72.162  1.00  0.00    -0.144 A  
HETATM   12  C   UNL     1      -6.124   7.954  72.736  1.00  0.00    -0.056 A  
HETATM   13  C   UNL     1      -7.013   9.013  72.579  1.00  0.00     0.262 A  
HETATM   14  C   UNL     1      -8.355   8.750  72.304  1.00  0.00    -0.010 A  
ENDBRANCH   8   9
BRANCH   8  15
HETATM   15  C   UNL     1      -7.478   4.175  71.012  1.00  0.00    -0.047 A  
HETATM   16  C   UNL     1      -5.252   3.740  70.116  1.00  0.00    -0.004 A  
HETATM   17  C   UNL     1      -7.194   3.180  68.802  1.00  0.00    -0.049 A  
HETATM   18  C   UNL     1      -6.076   4.193  71.148  1.00  0.00    -0.014 A  
HETATM   19  C   UNL     1      -8.019   3.645  69.827  1.00  0.00    -0.056 A  
HETATM   20  C   UNL     1      -5.810   3.241  68.941  1.00  0.00    -0.023 A  
ENDBRANCH   8  15
ENDBRANCH   5   8
TORSDOF 3
ENDMDL
MODEL      173
REMARK 921   NORMALIZED FREE ENERGY PREDICTED BY IDOCK:   -0.61 KCAL/MOL
REMARK 922        TOTAL FREE ENERGY PREDICTED BY IDOCK:   -0.69 KCAL/MOL
REMARK 923 INTER-LIGAND FREE ENERGY PREDICTED BY IDOCK:   -4.55 KCAL/MOL
REMARK 924 INTRA-LIGAND FREE ENERGY PREDICTED BY IDOCK:    3.86 KCAL/MOL
REMARK 927      BINDING AFFINITY PREDICTED BY RF-SCORE:    0.00 PKD
ROOT
HETATM    1  C   UNL     1     -10.648  20.291  68.848  1.00  0.00     0.308 C  
HETATM    2  N   UNL     1      -9.391  19.597  68.574  1.00  0.00    -0.357 NA 
HETATM    3  C   UNL     1      -9.518  18.141  68.789  1.00  0.00    -0.272 C  
HETATM    4  C   UNL     1     -10.225  17.363  67.651  1.00  0.00    -0.342 C  
HETATM    5  N   UNL     1      -9.684  17.606  66.294  1.00  0.00    -0.416 NA 
HETATM    6  C   UNL     1      -9.670  19.080  66.098  1.00  0.00    -0.296 C  
HETATM    7  C   UNL     1      -8.924  19.871  67.201  1.00  0.00    -0.338 C  
ENDROOT
BRANCH   5   8
HETATM    8  C   UNL     1      -8.330  16.993  66.087  1.00  0.00    -0.241 C  
BRANCH   8   9
HETATM    9  C   UNL     1      -7.177  17.944  66.463  1.00  0.00    -0.273 A  
HETATM   10  C   UNL     1      -6.666  18.838  65.501  1.00  0.00    -0.285 A  
HETATM   11  C   UNL     1      -6.666  18.021  67.767  1.00  0.00    -0.200 A  
HETATM   12  C   UNL     1      -5.697  19.788  65.842  1.00  0.00    -0.184 A  
HETATM   13  C   UNL     1      -5.213  19.853  67.145  1.00  0.00    -0.156 A  
HETATM   14  C   UNL     1      -5.690  18.961  68.104  1.00  0.00    -0.205 A  
ENDBRANCH   8   9
BRANCH   8  15
HETATM   15  C   UNL     1      -8.230  15.619  66.771  1.00  0.00    -0.300 A  
HETATM   16  C   UNL     1      -6.825  13.859  67.704  1.00  0.00    -0.193 A  
HETATM   17  C   UNL     1      -9.130  13.389  67.182  1.00  0.00    -0.235 A  
HETATM   18  C   UNL     1      -6.994  15.178  67.281  1.00  0.00    -0.123 A  
HETATM   19  C   UNL     1      -9.298  14.704  66.746  1.00  0.00    -0.275 A  
HETATM   20  C   UNL     1      -7.890  12.962  67.648  1.00  0.00    -0.168 A  
ENDBRANCH   8  15
ENDBRANCH   5   8
TORSDOF 3
ENDMDL
MODEL      174
REMARK 921   NORMALIZED FREE ENERGY PREDICTED BY IDOCK:   -0.61 KCAL/MOL
REMARK 922        TOTAL FREE ENERGY PREDICTED BY IDOCK:   -0.68 KCAL/MOL
REMARK 923 INTER-LIGAND FREE ENERGY PREDICTED BY IDOCK:   -3.98 KCAL/MOL
REMARK 924 INTRA-LIGAND FREE ENERGY PREDICTED BY IDOCK:    3.30 KCAL/MOL
REMARK 927      BINDING AFFINITY PREDICTED BY RF-SCORE:    0.00 PKD
ROOT
HETATM    1  C   UNL     1     -10.950   1.962  74.111  1.00  0.00    -0.142 C  
HETATM    2  N   UNL     1     -11.011   2.910  73.000  1.00  0.00    -0.092 NA 
HETATM    3  C   UNL     1     -11.101   4.304  73.481  1.00  0.00    -0.290 C  
HETATM    4  C   UNL     1      -9.767   4.922  73.971  1.00  0.00    -0.141 C  
HETATM    5  N   UNL     1      -8.637   4.811  73.020  1.00  0.00    -0.113 NA 
HETATM    6  C   UNL     1      -8.534   3.376  72.645  1.00  0.00    -0.085 C  
HETATM    7  C   UNL     1      -9.846   2.753  72.107  1.00  0.00    -0.169 C  
ENDROOT
BRANCH   5   8
HETATM    8  C   UNL     1      -8.794   5.700  71.821  1.00  0.00    -0.136 C  
BRANCH   8   9
HETATM    9  C   UNL     1      -8.592   4.953  70.489  1.00  0.00    -0.122 A  
HETATM   10  C   UNL     1      -9.712   4.556  69.731  1.00  0.00    -0.285 A  
HETATM   11  C   UNL     1      -7.319   4.725  69.944  1.00  0.00    -0.055 A  
HETATM   12  C   UNL     1      -9.560   3.976  68.467  1.00  0.00    -0.184 A  
HETATM   13  C   UNL     1      -8.287   3.771  67.943  1.00  0.00    -0.100 A  
HETATM   14  C   UNL     1      -7.167   4.135  68.689  1.00  0.00    -0.055 A  
ENDBRANCH   8   9
BRANCH   8  15
HETATM   15  C   UNL     1     -10.115   6.487  71.880  1.00  0.00    -0.200 A  
HETATM   16  C   UNL     1     -12.341   6.883  70.969  1.00  0.00    -0.401 A  
HETATM   17  C   UNL     1     -11.341   8.525  72.423  1.00  0.00    -0.412 A  
HETATM   18  C   UNL     1     -11.214   6.071  71.104  1.00  0.00    -0.328 A  
HETATM   19  C   UNL     1     -10.208   7.720  72.548  1.00  0.00    -0.320 A  
HETATM   20  C   UNL     1     -12.402   8.112  71.621  1.00  0.00    -0.347 A  
ENDBRANCH   8  15
ENDBRANCH   5   8
TORSDOF 3
ENDMDL
MODEL      175
REMARK 921   NORMALIZED FREE ENERGY PREDICTED BY IDOCK:   -0.38 KCAL/MOL
REMARK 922        TOTAL FREE ENERGY PREDICTED BY IDOCK:   -0.41 KCAL/MOL
REMARK 923 INTER-LIGAND FREE ENERGY PREDICTED BY IDOCK:   -1.89 KCAL/MOL
REMARK 924 INTRA-LIGAND FREE ENERGY PREDICTED BY IDOCK:    1.47 KCAL/MOL
REMARK 927      BINDING AFFINITY PREDICTED BY RF-SCORE:    0.00 PKD
ROOT
HETATM    1  C   UNL     1      -5.723   5.380  72.455  1.00  0.00    -0.018 C  
HETATM    2  N   UNL     1      -6.793   6.376  72.421  1.00  0.00    -0.068 NA 
HETATM    3  C   UNL     1      -6.253   7.750  72.365  1.00  0.00    -0.045 C  
HETATM    4  C   UNL     1      -5.748   8.206  70.974  1.00  0.00    -0.033 C  
HETATM    5  N   UNL     1      -6.711   8.021  69.864  1.00  0.00    -0.037 NA 
HETATM    6  C   UNL     1      -7.146   6.600  69.911  1.00  0.00    -0.068 C  
HETATM    7  C   UNL     1      -7.700   6.138  71.282  1.00  0.00    -0.106 C  
ENDROOT
BRANCH   5   8
HETATM    8  C   UNL     1      -7.871   8.971  69.933  1.00  0.00    -0.090 C  
BRANCH   8   9
HETATM    9  C   UNL     1      -7.917   9.950  68.745  1.00  0.00    -0.093 A  
HETATM   10  C   UNL     1      -8.148  11.321  68.976  1.00  0.00    -0.045 A  
HETATM   11  C   UNL     1      -7.646   9.545  67.429  1.00  0.00    -0.095 A  
HETATM   12  C   UNL     1      -8.086  12.250  67.931  1.00  0.00    -0.155 A  
HETATM   13  C   UNL     1      -7.804  11.825  66.636  1.00  0.00    -0.043 A  
HETATM   14  C   UNL     1      -7.596  10.469  66.385  1.00  0.00    -0.132 A  
ENDBRANCH   8   9
BRANCH   8  15
HETATM   15  C   UNL     1      -9.195   8.219  70.150  1.00  0.00    -0.155 A  
HETATM   16  C   UNL     1     -11.297   7.401  69.225  1.00  0.00     0.192 A  
HETATM   17  C   UNL     1     -11.015   7.518  71.615  1.00  0.00    -0.263 A  
HETATM   18  C   UNL     1      -9.999   7.882  69.044  1.00  0.00    -0.188 A  
HETATM   19  C   UNL     1      -9.722   8.012  71.437  1.00  0.00    -0.205 A  
HETATM   20  C   UNL     1     -11.808   7.226  70.509  1.00  0.00    -0.237 A  
ENDBRANCH   8  15
ENDBRANCH   5   8
TORSDOF 3
ENDMDL
MODEL      176
REMARK 921   NORMALIZED FREE ENERGY PREDICTED BY IDOCK:   -0.04 KCAL/MOL
REMARK 922        TOTAL FREE ENERGY PREDICTED BY IDOCK:   -0.01 KCAL/MOL
REMARK 923 INTER-LIGAND FREE ENERGY PREDICTED BY IDOCK:   -0.87 KCAL/MOL
REMARK 924 INTRA-LIGAND FREE ENERGY PREDICTED BY IDOCK:    0.86 KCAL/MOL
REMARK 927      BINDING AFFINITY PREDICTED BY RF-SCORE:    0.00 PKD
ROOT
HETATM    1  C   UNL     1      -9.711   4.395  70.314  1.00  0.00    -0.211 C  
HETATM    2  N   UNL     1      -9.509   5.370  69.244  1.00  0.00    -0.126 NA 
HETATM    3  C   UNL     1     -10.219   6.636  69.523  1.00  0.00    -0.183 C  
HETATM    4  C   UNL     1      -9.526   7.571  70.545  1.00  0.00    -0.164 C  
HETATM    5  N   UNL     1      -8.103   7.869  70.260  1.00  0.00    -0.112 NA 
HETATM    6  C   UNL     1      -7.421   6.560  70.083  1.00  0.00    -0.094 C  
HETATM    7  C   UNL     1      -8.072   5.629  69.030  1.00  0.00    -0.097 C  
ENDROOT
BRANCH   5   8
HETATM    8  C   UNL     1      -7.922   8.767  69.071  1.00  0.00    -0.111 C  
BRANCH   8   9
HETATM    9  C   UNL     1      -9.256   9.278  68.494  1.00  0.00    -0.135 A  
HETATM   10  C   UNL     1      -9.661   8.875  67.206  1.00  0.00    -0.212 A  
HETATM   11  C   UNL     1     -10.142  10.067  69.242  1.00  0.00    -0.226 A  
HETATM   12  C   UNL     1     -10.915   9.232  66.699  1.00  0.00     0.298 A  
HETATM   13  C   UNL     1     -11.782  10.006  67.465  1.00  0.00     1.297 A  
HETATM   14  C   UNL     1     -11.388  10.433  68.732  1.00  0.00    -0.275 A  
ENDBRANCH   8   9
BRANCH   8  15
HETATM   15  C   UNL     1      -6.921   9.896  69.373  1.00  0.00    -0.063 A  
HETATM   16  C   UNL     1      -5.132  10.765  70.784  1.00  0.00    -0.084 A  
HETATM   17  C   UNL     1      -6.303  12.254  69.294  1.00  0.00    -0.103 A  
HETATM   18  C   UNL     1      -5.910   9.697  70.334  1.00  0.00    -0.052 A  
HETATM   19  C   UNL     1      -7.090  11.190  68.851  1.00  0.00    -0.101 A  
HETATM   20  C   UNL     1      -5.334  12.044  70.271  1.00  0.00    -0.115 A  
ENDBRANCH   8  15
ENDBRANCH   5   8
TORSDOF 3
ENDMDL
MODEL      177
REMARK 921   NORMALIZED FREE ENERGY PREDICTED BY IDOCK:   -0.02 KCAL/MOL
REMARK 922        TOTAL FREE ENERGY PREDICTED BY IDOCK:    0.01 KCAL/MOL
REMARK 923 INTER-LIGAND FREE ENERGY PREDICTED BY IDOCK:   -0.20 KCAL/MOL
REMARK 924 INTRA-LIGAND FREE ENERGY PREDICTED BY IDOCK:    0.21 KCAL/MOL
REMARK 927      BINDING AFFINITY PREDICTED BY RF-SCORE:    0.00 PKD
ROOT
HETATM    1  C   UNL     1      -5.133  14.074  72.654  1.00  0.00    -0.219 C  
HETATM    2  N   UNL     1      -6.284  14.865  72.223  1.00  0.00     0.795 NA 
HETATM    3  C   UNL     1      -5.966  16.307  72.181  1.00  0.00     1.948 C  
HETATM    4  C   UNL     1      -5.153  16.769  70.947  1.00  0.00    -0.206 C  
HETATM    5  N   UNL     1      -5.712  16.360  69.637  1.00  0.00    -0.160 NA 
HETATM    6  C   UNL     1      -5.921  14.889  69.705  1.00  0.00    -0.114 C  
HETATM    7  C   UNL     1      -6.774  14.412  70.907  1.00  0.00     0.462 C  
ENDROOT
BRANCH   5   8
HETATM    8  C   UNL     1      -6.971  17.096  69.284  1.00  0.00    -0.186 C  
BRANCH   8   9
HETATM    9  C   UNL     1      -6.706  18.405  68.517  1.00  0.00    -0.253 A  
HETATM   10  C   UNL     1      -7.402  19.579  68.873  1.00  0.00    -0.398 A  
HETATM   11  C   UNL     1      -5.723  18.504  67.521  1.00  0.00    -0.149 A  
HETATM   12  C   UNL     1      -7.104  20.805  68.270  1.00  0.00    -0.038 A  
HETATM   13  C   UNL     1      -6.116  20.880  67.293  1.00  0.00    -0.337 A  
HETATM   14  C   UNL     1      -5.435  19.725  66.911  1.00  0.00    -0.169 A  
ENDBRANCH   8   9
BRANCH   8  15
HETATM   15  C   UNL     1      -7.977  16.172  68.578  1.00  0.00    -0.175 A  
HETATM   16  C   UNL     1      -8.503  14.737  66.678  1.00  0.00    -0.093 A  
HETATM   17  C   UNL     1     -10.279  15.514  68.111  1.00  0.00    -0.227 A  
HETATM   18  C   UNL     1      -7.568  15.409  67.467  1.00  0.00    -0.207 A  
HETATM   19  C   UNL     1      -9.347  16.197  68.893  1.00  0.00    -0.235 A  
HETATM   20  C   UNL     1      -9.858  14.795  66.995  1.00  0.00    -0.240 A  
ENDBRANCH   8  15
ENDBRANCH   5   8
TORSDOF 3
ENDMDL
MODEL      178
REMARK 921   NORMALIZED FREE ENERGY PREDICTED BY IDOCK:    0.11 KCAL/MOL
REMARK 922        TOTAL FREE ENERGY PREDICTED BY IDOCK:    0.16 KCAL/MOL
REMARK 923 INTER-LIGAND FREE ENERGY PREDICTED BY IDOCK:   -3.42 KCAL/MOL
REMARK 924 INTRA-LIGAND FREE ENERGY PREDICTED BY IDOCK:    3.58 KCAL/MOL
REMARK 927      BINDING AFFINITY PREDICTED BY RF-SCORE:    0.00 PKD
ROOT
HETATM    1  C   UNL     1      -6.991  17.777  67.112  1.00  0.00    -0.172 C  
HETATM    2  N   UNL     1      -7.220  16.345  66.923  1.00  0.00    -0.220 NA 
HETATM    3  C   UNL     1      -7.131  15.609  68.201  1.00  0.00    -0.118 C  
HETATM    4  C   UNL     1      -8.378  15.715  69.114  1.00  0.00    -0.251 C  
HETATM    5  N   UNL     1      -9.666  15.390  68.458  1.00  0.00    -0.200 NA 
HETATM    6  C   UNL     1      -9.743  16.228  67.233  1.00  0.00    -0.237 C  
HETATM    7  C   UNL     1      -8.526  16.099  66.283  1.00  0.00    -0.322 C  
ENDROOT
BRANCH   5   8
HETATM    8  C   UNL     1      -9.813  13.928  68.155  1.00  0.00    -0.240 C  
BRANCH   8   9
HETATM    9  C   UNL     1     -10.648  13.658  66.889  1.00  0.00    -0.271 A  
HETATM   10  C   UNL     1     -10.000  13.380  65.669  1.00  0.00    -0.249 A  
HETATM   11  C   UNL     1     -12.049  13.588  66.917  1.00  0.00    -0.417 A  
HETATM   12  C   UNL     1     -10.729  13.022  64.529  1.00  0.00    -0.404 A  
HETATM   13  C   UNL     1     -12.118  12.949  64.585  1.00  0.00    -0.474 A  
HETATM   14  C   UNL     1     -12.777  13.244  65.777  1.00  0.00    -0.300 A  
ENDBRANCH   8   9
BRANCH   8  15
HETATM   15  C   UNL     1      -8.447  13.221  68.142  1.00  0.00    -0.173 A  
HETATM   16  C   UNL     1      -6.764  11.973  66.896  1.00  0.00    -0.041 A  
HETATM   17  C   UNL     1      -6.689  11.992  69.304  1.00  0.00    -0.093 A  
HETATM   18  C   UNL     1      -7.885  12.804  66.920  1.00  0.00     0.073 A  
HETATM   19  C   UNL     1      -7.818  12.812  69.332  1.00  0.00     0.734 A  
HETATM   20  C   UNL     1      -6.171  11.560  68.087  1.00  0.00    -0.045 A  
ENDBRANCH   8  15
ENDBRANCH   5   8
TORSDOF 3
ENDMDL
MODEL      179
REMARK 921   NORMALIZED FREE ENERGY PREDICTED BY IDOCK:    0.35 KCAL/MOL
REMARK 922        TOTAL FREE ENERGY PREDICTED BY IDOCK:    0.44 KCAL/MOL
REMARK 923 INTER-LIGAND FREE ENERGY PREDICTED BY IDOCK:   -2.86 KCAL/MOL
REMARK 924 INTRA-LIGAND FREE ENERGY PREDICTED BY IDOCK:    3.30 KCAL/MOL
REMARK 927      BINDING AFFINITY PREDICTED BY RF-SCORE:    0.00 PKD
ROOT
HETATM    1  C   UNL     1      -6.731   7.615  62.778  1.00  0.00    -0.071 C  
HETATM    2  N   UNL     1      -7.820   6.818  63.340  1.00  0.00    -0.119 NA 
HETATM    3  C   UNL     1      -7.614   5.374  63.102  1.00  0.00    -0.069 C  
HETATM    4  C   UNL     1      -6.591   4.688  64.041  1.00  0.00    -0.042 C  
HETATM    5  N   UNL     1      -6.818   4.911  65.488  1.00  0.00    -0.059 NA 
HETATM    6  C   UNL     1      -6.921   6.381  65.681  1.00  0.00    -0.057 C  
HETATM    7  C   UNL     1      -7.975   7.079  64.785  1.00  0.00    -0.122 C  
ENDROOT
BRANCH   5   8
HETATM    8  C   UNL     1      -8.024   4.185  66.007  1.00  0.00    -0.094 C  
BRANCH   8   9
HETATM    9  C   UNL     1      -8.931   5.073  66.880  1.00  0.00    -0.112 A  
HETATM   10  C   UNL     1      -8.439   5.599  68.092  1.00  0.00    -0.098 A  
HETATM   11  C   UNL     1     -10.215   5.462  66.471  1.00  0.00    -0.287 A  
HETATM   12  C   UNL     1      -9.199   6.496  68.850  1.00  0.00    -0.129 A  
HETATM   13  C   UNL     1     -10.466   6.876  68.418  1.00  0.00    -0.235 A  
HETATM   14  C   UNL     1     -10.978   6.348  67.233  1.00  0.00    -0.474 A  
ENDBRANCH   8   9
BRANCH   8  15
HETATM   15  C   UNL     1      -8.781   3.477  64.870  1.00  0.00    -0.115 A  
HETATM   16  C   UNL     1     -10.781   3.325  63.484  1.00  0.00    -0.252 A  
HETATM   17  C   UNL     1      -9.247   1.468  63.568  1.00  0.00    -0.091 A  
HETATM   18  C   UNL     1      -9.961   4.047  64.354  1.00  0.00    -0.192 A  
HETATM   19  C   UNL     1      -8.433   2.182  64.448  1.00  0.00    -0.087 A  
HETATM   20  C   UNL     1     -10.429   2.034  63.097  1.00  0.00    -0.149 A  
ENDBRANCH   8  15
ENDBRANCH   5   8
TORSDOF 3
ENDMDL
MODEL      180
REMARK 921   NORMALIZED FREE ENERGY PREDICTED BY IDOCK:    0.43 KCAL/MOL
REMARK 922        TOTAL FREE ENERGY PREDICTED BY IDOCK:    0.54 KCAL/MOL
REMARK 923 INTER-LIGAND FREE ENERGY PREDICTED BY IDOCK:   -0.95 KCAL/MOL
REMARK 924 INTRA-LIGAND FREE ENERGY PREDICTED BY IDOCK:    1.48 KCAL/MOL
REMARK 927      BINDING AFFINITY PREDICTED BY RF-SCORE:    0.00 PKD
ROOT
HETATM    1  C   UNL     1     -10.525  19.884  68.839  1.00  0.00    -0.016 C  
HETATM    2  N   UNL     1      -9.856  19.142  67.771  1.00  0.00    -0.320 NA 
HETATM    3  C   UNL     1      -8.522  18.669  68.193  1.00  0.00    -0.312 C  
HETATM    4  C   UNL     1      -8.521  17.415  69.102  1.00  0.00     0.064 C  
HETATM    5  N   UNL     1      -9.299  16.265  68.586  1.00  0.00    -0.210 NA 
HETATM    6  C   UNL     1     -10.658  16.779  68.269  1.00  0.00    -0.352 C  
HETATM    7  C   UNL     1     -10.681  18.004  67.322  1.00  0.00    -0.290 C  
ENDROOT
BRANCH   5   8
HETATM    8  C   UNL     1      -8.652  15.606  67.403  1.00  0.00    -0.175 C  
BRANCH   8   9
HETATM    9  C   UNL     1      -7.481  16.423  66.826  1.00  0.00    -0.278 A  
HETATM   10  C   UNL     1      -6.242  16.441  67.498  1.00  0.00    -0.186 A  
HETATM   11  C   UNL     1      -7.567  17.090  65.595  1.00  0.00     0.750 A  
HETATM   12  C   UNL     1      -5.129  17.082  66.943  1.00  0.00    -0.183 A  
HETATM   13  C   UNL     1      -5.236  17.727  65.715  1.00  0.00    -0.206 A  
HETATM   14  C   UNL     1      -6.460  17.740  65.047  1.00  0.00     0.922 A  
ENDBRANCH   8   9
BRANCH   8  15
HETATM   15  C   UNL     1      -8.279  14.147  67.714  1.00  0.00    -0.172 A  
HETATM   16  C   UNL     1      -8.735  12.106  68.967  1.00  0.00     0.385 A  
HETATM   17  C   UNL     1      -6.606  12.378  67.870  1.00  0.00    -0.097 A  
HETATM   18  C   UNL     1      -9.145  13.351  68.488  1.00  0.00    -0.077 A  
HETATM   19  C   UNL     1      -7.009  13.629  67.401  1.00  0.00    -0.075 A  
HETATM   20  C   UNL     1      -7.464  11.622  68.665  1.00  0.00    -0.117 A  
ENDBRANCH   8  15
ENDBRANCH   5   8
TORSDOF 3
ENDMDL
MODEL      181
REMARK 921   NORMALIZED FREE ENERGY PREDICTED BY IDOCK:    0.92 KCAL/MOL
REMARK 922        TOTAL FREE ENERGY PREDICTED BY IDOCK:    1.11 KCAL/MOL
REMARK 923 INTER-LIGAND FREE ENERGY PREDICTED BY IDOCK:   -2.39 KCAL/MOL
REMARK 924 INTRA-LIGAND FREE ENERGY PREDICTED BY IDOCK:    3.51 KCAL/MOL
REMARK 927      BINDING AFFINITY PREDICTED BY RF-SCORE:    0.00 PKD
ROOT
HETATM    1  C   UNL     1      -6.947   8.278  62.908  1.00  0.00    -0.090 C  
HETATM    2  N   UNL     1      -7.961   7.938  63.905  1.00  0.00    -0.141 NA 
HETATM    3  C   UNL     1      -7.463   6.929  64.862  1.00  0.00    -0.094 C  
HETATM    4  C   UNL     1      -6.522   7.472  65.966  1.00  0.00    -0.045 C  
HETATM    5  N   UNL     1      -7.042   8.636  66.719  1.00  0.00    -0.077 NA 
HETATM    6  C   UNL     1      -7.438   9.654  65.709  1.00  0.00    -0.100 C  
HETATM    7  C   UNL     1      -8.418   9.142  64.625  1.00  0.00    -0.181 C  
ENDROOT
BRANCH   5   8
HETATM    8  C   UNL     1      -8.175   8.279  67.636  1.00  0.00    -0.127 C  
BRANCH   8   9
HETATM    9  C   UNL     1      -9.122   9.462  67.911  1.00  0.00    -0.136 A  
HETATM   10  C   UNL     1     -10.459   9.216  68.284  1.00  0.00    -0.254 A  
HETATM   11  C   UNL     1      -8.682  10.794  67.892  1.00  0.00    -0.129 A  
HETATM   12  C   UNL     1     -11.311  10.265  68.647  1.00  0.00    -0.226 A  
HETATM   13  C   UNL     1     -10.848  11.577  68.632  1.00  0.00    -0.253 A  
HETATM   14  C   UNL     1      -9.536  11.841  68.243  1.00  0.00    -0.193 A  
ENDBRANCH   8   9
BRANCH   8  15
HETATM   15  C   UNL     1      -8.907   7.016  67.152  1.00  0.00    -0.121 A  
HETATM   16  C   UNL     1     -10.887   6.022  66.135  1.00  0.00     0.302 A  
HETATM   17  C   UNL     1      -9.325   4.618  67.316  1.00  0.00    -0.159 A  
HETATM   18  C   UNL     1     -10.089   7.137  66.397  1.00  0.00    -0.051 A  
HETATM   19  C   UNL     1      -8.532   5.733  67.591  1.00  0.00    -0.103 A  
HETATM   20  C   UNL     1     -10.510   4.765  66.600  1.00  0.00    -0.216 A  
ENDBRANCH   8  15
ENDBRANCH   5   8
TORSDOF 3
ENDMDL
MODEL      182
REMARK 921   NORMALIZED FREE ENERGY PREDICTED BY IDOCK:    1.33 KCAL/MOL
REMARK 922        TOTAL FREE ENERGY PREDICTED BY IDOCK:    1.60 KCAL/MOL
REMARK 923 INTER-LIGAND FREE ENERGY PREDICTED BY IDOCK:   -0.85 KCAL/MOL
REMARK 924 INTRA-LIGAND FREE ENERGY PREDICTED BY IDOCK:    2.45 KCAL/MOL
REMARK 927      BINDING AFFINITY PREDICTED BY RF-SCORE:    0.00 PKD
ROOT
HETATM    1  C   UNL     1      -6.474  19.241  66.594  1.00  0.00    -0.187 C  
HETATM    2  N   UNL     1      -7.871  18.843  66.430  1.00  0.00    -0.271 NA 
HETATM    3  C   UNL     1      -8.024  17.374  66.464  1.00  0.00    -0.281 C  
HETATM    4  C   UNL     1      -7.980  16.736  67.875  1.00  0.00    -0.177 C  
HETATM    5  N   UNL     1      -8.900  17.340  68.866  1.00  0.00    -0.224 NA 
HETATM    6  C   UNL     1      -8.634  18.803  68.858  1.00  0.00    -0.199 C  
HETATM    7  C   UNL     1      -8.722  19.468  67.461  1.00  0.00    -0.307 C  
ENDROOT
BRANCH   5   8
HETATM    8  C   UNL     1     -10.341  17.024  68.593  1.00  0.00    -0.351 C  
BRANCH   8   9
HETATM    9  C   UNL     1     -10.653  16.892  67.091  1.00  0.00    -0.249 A  
HETATM   10  C   UNL     1     -10.692  15.615  66.494  1.00  0.00    -0.293 A  
HETATM   11  C   UNL     1     -10.993  17.997  66.296  1.00  0.00     0.254 A  
HETATM   12  C   UNL     1     -11.080  15.455  65.159  1.00  0.00    -0.402 A  
HETATM   13  C   UNL     1     -11.424  16.565  64.394  1.00  0.00     0.130 A  
HETATM   14  C   UNL     1     -11.368  17.837  64.962  1.00  0.00     1.387 A  
ENDBRANCH   8   9
BRANCH   8  15
HETATM   15  C   UNL     1     -10.813  15.815  69.419  1.00  0.00    -0.269 A  
HETATM   16  C   UNL     1     -10.419  13.529  70.168  1.00  0.00     1.424 A  
HETATM   17  C   UNL     1     -12.614  14.495  70.400  1.00  0.00    -0.405 A  
HETATM   18  C   UNL     1      -9.948  14.721  69.617  1.00  0.00     0.038 A  
HETATM   19  C   UNL     1     -12.149  15.684  69.837  1.00  0.00    -0.360 A  
HETATM   20  C   UNL     1     -11.753  13.412  70.553  1.00  0.00    -0.106 A  
ENDBRANCH   8  15
ENDBRANCH   5   8
TORSDOF 3
ENDMDL
MODEL      183
REMARK 921   NORMALIZED FREE ENERGY PREDICTED BY IDOCK:    4.64 KCAL/MOL
REMARK 922        TOTAL FREE ENERGY PREDICTED BY IDOCK:    5.49 KCAL/MOL
REMARK 923 INTER-LIGAND FREE ENERGY PREDICTED BY IDOCK:   -2.29 KCAL/MOL
REMARK 924 INTRA-LIGAND FREE ENERGY PREDICTED BY IDOCK:    7.78 KCAL/MOL
REMARK 927      BINDING AFFINITY PREDICTED BY RF-SCORE:    0.00 PKD
ROOT
HETATM    1  C   UNL     1      -8.772  14.224  67.248  1.00  0.00    -0.218 C  
HETATM    2  N   UNL     1      -8.612  13.055  68.111  1.00  0.00    -0.183 NA 
HETATM    3  C   UNL     1      -9.549  11.974  67.740  1.00  0.00    -0.193 C  
HETATM    4  C   UNL     1      -9.142  11.145  66.496  1.00  0.00    -0.182 C  
HETATM    5  N   UNL     1      -7.765  10.600  66.527  1.00  0.00    -0.130 NA 
HETATM    6  C   UNL     1      -6.860  11.746  66.809  1.00  0.00    -0.050 C  
HETATM    7  C   UNL     1      -7.222  12.559  68.077  1.00  0.00    -0.105 C  
ENDROOT
BRANCH   5   8
HETATM    8  C   UNL     1      -7.599   9.489  67.522  1.00  0.00    -0.095 C  
BRANCH   8   9
HETATM    9  C   UNL     1      -6.662   9.860  68.686  1.00  0.00    -0.050 A  
HETATM   10  C   UNL     1      -6.516  11.210  69.065  1.00  0.00    -0.066 A  
HETATM   11  C   UNL     1      -6.005   8.890  69.457  1.00  0.00    -0.036 A  
HETATM   12  C   UNL     1      -5.760  11.567  70.187  1.00  0.00    -0.137 A  
HETATM   13  C   UNL     1      -5.127  10.585  70.943  1.00  0.00    -0.078 A  
HETATM   14  C   UNL     1      -5.241   9.247  70.569  1.00  0.00    -0.030 A  
ENDBRANCH   8   9
BRANCH   8  15
HETATM   15  C   UNL     1      -8.962   8.951  67.988  1.00  0.00    -0.140 A  
HETATM   16  C   UNL     1     -10.633   8.774  69.755  1.00  0.00    -0.227 A  
HETATM   17  C   UNL     1     -10.723   7.265  67.878  1.00  0.00    -0.239 A  
HETATM   18  C   UNL     1      -9.516   9.402  69.202  1.00  0.00    -0.163 A  
HETATM   19  C   UNL     1      -9.597   7.883  67.330  1.00  0.00    -0.205 A  
HETATM   20  C   UNL     1     -11.232   7.702  69.097  1.00  0.00     0.233 A  
ENDBRANCH   8  15
ENDBRANCH   5   8
TORSDOF 3
ENDMDL
MODEL      184
REMARK 921   NORMALIZED FREE ENERGY PREDICTED BY IDOCK:    5.36 KCAL/MOL
REMARK 922        TOTAL FREE ENERGY PREDICTED BY IDOCK:    6.34 KCAL/MOL
REMARK 923 INTER-LIGAND FREE ENERGY PREDICTED BY IDOCK:    4.50 KCAL/MOL
REMARK 924 INTRA-LIGAND FREE ENERGY PREDICTED BY IDOCK:    1.84 KCAL/MOL
REMARK 927      BINDING AFFINITY PREDICTED BY RF-SCORE:    0.00 PKD
ROOT
HETATM    1  C   UNL     1     -10.332  20.511  67.435  1.00  0.00    -0.070 C  
HETATM    2  N   UNL     1     -10.442  19.127  67.891  1.00  0.00    -0.407 NA 
HETATM    3  C   UNL     1      -9.675  18.209  67.024  1.00  0.00    -0.307 C  
HETATM    4  C   UNL     1      -8.145  18.195  67.264  1.00  0.00    -0.225 C  
HETATM    5  N   UNL     1      -7.731  17.988  68.672  1.00  0.00    -0.300 NA 
HETATM    6  C   UNL     1      -8.460  18.999  69.482  1.00  0.00     0.386 C  
HETATM    7  C   UNL     1      -9.997  18.995  69.292  1.00  0.00    -0.134 C  
ENDROOT
BRANCH   5   8
HETATM    8  C   UNL     1      -7.981  16.589  69.153  1.00  0.00    -0.182 C  
BRANCH   8   9
HETATM    9  C   UNL     1      -8.190  15.586  68.003  1.00  0.00    -0.146 A  
HETATM   10  C   UNL     1      -7.127  14.752  67.600  1.00  0.00    -0.206 A  
HETATM   11  C   UNL     1      -9.437  15.401  67.388  1.00  0.00    -0.207 A  
HETATM   12  C   UNL     1      -7.318  13.756  66.635  1.00  0.00     1.376 A  
HETATM   13  C   UNL     1      -8.567  13.584  66.048  1.00  0.00     0.950 A  
HETATM   14  C   UNL     1      -9.623  14.416  66.417  1.00  0.00    -0.320 A  
ENDBRANCH   8   9
BRANCH   8  15
HETATM   15  C   UNL     1      -6.904  16.145  70.157  1.00  0.00     0.396 A  
HETATM   16  C   UNL     1      -5.635  14.330  71.177  1.00  0.00    -0.197 A  
HETATM   17  C   UNL     1      -5.673  16.496  72.234  1.00  0.00     1.550 A  
HETATM   18  C   UNL     1      -6.441  14.815  70.146  1.00  0.00    -0.163 A  
HETATM   19  C   UNL     1      -6.490  16.979  71.211  1.00  0.00     2.691 A  
HETATM   20  C   UNL     1      -5.257  15.167  72.224  1.00  0.00     0.013 A  
ENDBRANCH   8  15
ENDBRANCH   5   8
TORSDOF 3
ENDMDL
MODEL      185
REMARK 921   NORMALIZED FREE ENERGY PREDICTED BY IDOCK:   12.76 KCAL/MOL
REMARK 922        TOTAL FREE ENERGY PREDICTED BY IDOCK:   15.04 KCAL/MOL
REMARK 923 INTER-LIGAND FREE ENERGY PREDICTED BY IDOCK:    9.44 KCAL/MOL
REMARK 924 INTRA-LIGAND FREE ENERGY PREDICTED BY IDOCK:    5.60 KCAL/MOL
REMARK 927      BINDING AFFINITY PREDICTED BY RF-SCORE:    0.00 PKD
ROOT
HETATM    1  C   UNL     1     -13.126  18.908  67.212  1.00  0.00     7.603 C  
HETATM    2  N   UNL     1     -11.788  18.374  67.462  1.00  0.00     1.701 NA 
HETATM    3  C   UNL     1     -11.462  17.272  66.534  1.00  0.00     1.265 C  
HETATM    4  C   UNL     1     -11.049  17.709  65.107  1.00  0.00     0.580 C  
HETATM    5  N   UNL     1      -9.972  18.725  65.047  1.00  0.00     1.178 NA 
HETATM    6  C   UNL     1     -10.399  19.849  65.922  1.00  0.00    -0.464 C  
HETATM    7  C   UNL     1     -10.769  19.437  67.369  1.00  0.00    -0.479 C  
ENDROOT
BRANCH   5   8
HETATM    8  C   UNL     1      -8.632  18.177  65.441  1.00  0.00     1.463 C  
BRANCH   8   9
HETATM    9  C   UNL     1      -7.670  19.260  65.963  1.00  0.00    -0.293 A  
HETATM   10  C   UNL     1      -8.003  19.994  67.120  1.00  0.00    -0.351 A  
HETATM   11  C   UNL     1      -6.416  19.492  65.380  1.00  0.00    -0.297 A  
HETATM   12  C   UNL     1      -7.102  20.905  67.681  1.00  0.00    -0.339 A  
HETATM   13  C   UNL     1      -5.858  21.109  67.091  1.00  0.00    -0.370 A  
HETATM   14  C   UNL     1      -5.521  20.410  65.933  1.00  0.00    -0.207 A  
ENDBRANCH   8   9
BRANCH   8  15
HETATM   15  C   UNL     1      -8.778  16.982  66.399  1.00  0.00    -0.308 A  
HETATM   16  C   UNL     1      -9.578  14.712  66.783  1.00  0.00    -0.266 A  
HETATM   17  C   UNL     1      -8.985  16.098  68.663  1.00  0.00    -0.221 A  
HETATM   18  C   UNL     1      -9.229  15.742  65.908  1.00  0.00    -0.337 A  
HETATM   19  C   UNL     1      -8.647  17.134  67.791  1.00  0.00    -0.216 A  
HETATM   20  C   UNL     1      -9.464  14.892  68.160  1.00  0.00    -0.202 A  
ENDBRANCH   8  15
ENDBRANCH   5   8
TORSDOF 3
ENDMDL
MODEL      186
REMARK 921   NORMALIZED FREE ENERGY PREDICTED BY IDOCK:   22.45 KCAL/MOL
REMARK 922        TOTAL FREE ENERGY PREDICTED BY IDOCK:   26.42 KCAL/MOL
REMARK 923 INTER-LIGAND FREE ENERGY PREDICTED BY IDOCK:   21.41 KCAL/MOL
REMARK 924 INTRA-LIGAND FREE ENERGY PREDICTED BY IDOCK:    5.00 KCAL/MOL
REMARK 927      BINDING AFFINITY PREDICTED BY RF-SCORE:    0.00 PKD
ROOT
HETATM    1  C   UNL     1     -13.702  18.902  67.217  1.00  0.00     9.568 C  
HETATM    2  N   UNL     1     -12.755  18.186  68.070  1.00  0.00     4.788 NA 
HETATM    3  C   UNL     1     -12.125  17.058  67.353  1.00  0.00     2.153 C  
HETATM    4  C   UNL     1     -10.989  17.449  66.375  1.00  0.00     0.236 C  
HETATM    5  N   UNL     1      -9.928  18.306  66.954  1.00  0.00    -0.330 NA 
HETATM    6  C   UNL     1     -10.614  19.469  67.577  1.00  0.00    -0.474 C  
HETATM    7  C   UNL     1     -11.721  19.099  68.595  1.00  0.00     3.297 C  
ENDROOT
BRANCH   5   8
HETATM    8  C   UNL     1      -9.055  17.574  67.930  1.00  0.00    -0.261 C  
BRANCH   8   9
HETATM    9  C   UNL     1      -8.451  18.497  69.005  1.00  0.00    -0.082 A  
HETATM   10  C   UNL     1      -9.300  19.268  69.825  1.00  0.00     0.466 A  
HETATM   11  C   UNL     1      -7.073  18.539  69.268  1.00  0.00    -0.171 A  
HETATM   12  C   UNL     1      -8.789  20.029  70.881  1.00  0.00     1.979 A  
HETATM   13  C   UNL     1      -7.419  20.046  71.130  1.00  0.00     1.253 A  
HETATM   14  C   UNL     1      -6.562  19.309  70.314  1.00  0.00     0.101 A  
ENDBRANCH   8   9
BRANCH   8  15
HETATM   15  C   UNL     1      -9.780  16.352  68.519  1.00  0.00    -0.228 A  
HETATM   16  C   UNL     1     -11.117  15.396  70.319  1.00  0.00    -0.331 A  
HETATM   17  C   UNL     1      -9.989  13.934  68.770  1.00  0.00    -0.139 A  
HETATM   18  C   UNL     1     -10.625  16.508  69.634  1.00  0.00    -0.302 A  
HETATM   19  C   UNL     1      -9.486  15.045  68.091  1.00  0.00    -0.196 A  
HETATM   20  C   UNL     1     -10.794  14.110  69.892  1.00  0.00     0.087 A  
ENDBRANCH   8  15
ENDBRANCH   5   8
TORSDOF 3
ENDMDL
