MODEL        1
REMARK 921   NORMALIZED FREE ENERGY PREDICTED BY IDOCK:   -8.05 KCAL/MOL
REMARK 922        TOTAL FREE ENERGY PREDICTED BY IDOCK:   -9.06 KCAL/MOL
REMARK 923 INTER-LIGAND FREE ENERGY PREDICTED BY IDOCK:   -8.99 KCAL/MOL
REMARK 924 INTRA-LIGAND FREE ENERGY PREDICTED BY IDOCK:   -0.07 KCAL/MOL
REMARK 927      BINDING AFFINITY PREDICTED BY RF-SCORE:    0.00 PKD
ROOT
HETATM    1  N   UNL     1     -14.035  16.197  73.495  1.00  0.00    -0.698 N  
HETATM    2  S   UNL     1     -12.387  15.862  73.486  1.00  0.00    -0.595 S  
HETATM    3  H1  UNL     1     -14.485  15.287  73.399  1.00  0.00     0.000 HD 
HETATM    4  H2  UNL     1     -14.485  17.109  73.578  1.00  0.00     0.000 HD 
HETATM    5  O   UNL     1     -11.749  17.152  73.622  1.00  0.00    -0.108 OA 
HETATM    6  O   UNL     1     -12.164  14.795  74.429  1.00  0.00    -0.528 OA 
ENDROOT
BRANCH   2   7
HETATM    7  C   UNL     1     -12.110  15.262  71.851  1.00  0.00    -0.381 A  
HETATM    8  C   UNL     1     -12.652  14.043  71.438  1.00  0.00    -0.372 A  
HETATM    9  C   UNL     1     -12.444  13.611  70.128  1.00  0.00    -0.305 A  
HETATM   10 CL   UNL     1     -13.579  12.992  72.454  1.00  0.00    -0.677 Cl 
HETATM   11  C   UNL     1     -11.716  14.376  69.206  1.00  0.00    -0.317 A  
HETATM   12  N   UNL     1     -11.539  13.866  67.938  1.00  0.00    -0.322 NA 
HETATM   13  H   UNL     1     -11.957  12.959  67.732  1.00  0.00     0.000 HD 
HETATM   14  C   UNL     1     -10.805  14.521  66.875  1.00  0.00    -0.305 C  
HETATM   15  C   UNL     1     -11.316  16.013  70.964  1.00  0.00    -0.423 A  
HETATM   16  N   UNL     1      -9.627  15.166  67.429  1.00  0.00    -0.207 N  
HETATM   17  O   UNL     1     -10.888  17.339  67.799  1.00  0.00    -0.351 OA 
HETATM   18  S   UNL     1     -10.071  16.390  68.525  1.00  0.00    -0.262 S  
HETATM   19  H   UNL     1      -8.666  14.920  67.193  1.00  0.00     0.000 HD 
HETATM   20  C   UNL     1     -11.115  15.541  69.659  1.00  0.00    -0.279 A  
HETATM   21  O   UNL     1      -8.866  16.792  69.214  1.00  0.00    -0.154 OA 
BRANCH  14  22
HETATM   22  C   UNL     1     -10.475  13.515  65.715  1.00  0.00    -0.293 C  
HETATM   23  C   UNL     1     -10.893  14.188  64.366  1.00  0.00    -0.218 C  
HETATM   24  C   UNL     1     -12.102  13.330  63.920  1.00  0.00    -0.531 C  
HETATM   25  C   UNL     1     -12.633  12.600  65.157  1.00  0.00    -0.459 C  
HETATM   26  C   UNL     1     -11.240  12.154  65.604  1.00  0.00    -0.381 C  
HETATM   27  C   UNL     1     -10.904  11.437  64.287  1.00  0.00    -0.416 C  
HETATM   28  C   UNL     1     -11.467  12.124  63.275  1.00  0.00    -0.410 C  
ENDBRANCH  14  22
ENDBRANCH   2   7
TORSDOF 2
ENDMDL
MODEL        2
REMARK 921   NORMALIZED FREE ENERGY PREDICTED BY IDOCK:   -7.75 KCAL/MOL
REMARK 922        TOTAL FREE ENERGY PREDICTED BY IDOCK:   -8.73 KCAL/MOL
REMARK 923 INTER-LIGAND FREE ENERGY PREDICTED BY IDOCK:   -8.81 KCAL/MOL
REMARK 924 INTRA-LIGAND FREE ENERGY PREDICTED BY IDOCK:    0.08 KCAL/MOL
REMARK 927      BINDING AFFINITY PREDICTED BY RF-SCORE:    0.00 PKD
ROOT
HETATM    1  N   UNL     1      -9.520   8.652  65.494  1.00  0.00    -0.443 N  
HETATM    2  S   UNL     1      -9.867   8.070  67.033  1.00  0.00    -0.253 S  
HETATM    3  H1  UNL     1      -8.738   9.292  65.628  1.00  0.00     0.000 HD 
HETATM    4  H2  UNL     1      -9.989   8.416  64.619  1.00  0.00     0.000 HD 
HETATM    5  O   UNL     1     -10.975   7.163  66.842  1.00  0.00    -0.363 OA 
HETATM    6  O   UNL     1      -8.620   7.641  67.617  1.00  0.00    -0.116 OA 
ENDROOT
BRANCH   2   7
HETATM    7  C   UNL     1     -10.445   9.502  67.882  1.00  0.00    -0.241 A  
HETATM    8  C   UNL     1     -10.784   9.441  69.235  1.00  0.00    -0.211 A  
HETATM    9  C   UNL     1     -11.206  10.599  69.888  1.00  0.00    -0.378 A  
HETATM   10 CL   UNL     1     -10.730   7.999  70.191  1.00  0.00    -0.242 Cl 
HETATM   11  C   UNL     1     -11.285  11.832  69.226  1.00  0.00    -0.256 A  
HETATM   12  N   UNL     1     -11.732  12.923  69.939  1.00  0.00    -0.485 NA 
HETATM   13  H   UNL     1     -11.974  12.778  70.920  1.00  0.00     0.000 HD 
HETATM   14  C   UNL     1     -11.885  14.260  69.403  1.00  0.00    -0.326 C  
HETATM   15  C   UNL     1     -10.585  10.714  67.179  1.00  0.00    -0.312 A  
HETATM   16  N   UNL     1     -12.401  14.179  68.048  1.00  0.00    -0.540 N  
HETATM   17  O   UNL     1     -10.060  14.131  67.067  1.00  0.00    -0.255 OA 
HETATM   18  S   UNL     1     -11.297  13.380  67.029  1.00  0.00    -0.333 S  
HETATM   19  H   UNL     1     -13.303  14.552  67.748  1.00  0.00     0.000 HD 
HETATM   20  C   UNL     1     -11.026  11.855  67.863  1.00  0.00    -0.222 A  
HETATM   21  O   UNL     1     -11.989  13.115  65.788  1.00  0.00    -0.377 OA 
BRANCH  14  22
HETATM   22  C   UNL     1     -12.762  15.151  70.352  1.00  0.00    -0.378 C  
HETATM   23  C   UNL     1     -11.802  15.871  71.355  1.00  0.00    -0.524 C  
HETATM   24  C   UNL     1     -12.152  15.194  72.703  1.00  0.00    -0.487 C  
HETATM   25  C   UNL     1     -12.844  13.865  72.388  1.00  0.00    -0.379 C  
HETATM   26  C   UNL     1     -13.774  14.493  71.348  1.00  0.00    -0.448 C  
HETATM   27  C   UNL     1     -14.361  15.536  72.311  1.00  0.00    -0.556 C  
HETATM   28  C   UNL     1     -13.389  15.923  73.159  1.00  0.00    -0.681 C  
ENDBRANCH  14  22
ENDBRANCH   2   7
TORSDOF 2
ENDMDL
MODEL        3
REMARK 921   NORMALIZED FREE ENERGY PREDICTED BY IDOCK:   -7.48 KCAL/MOL
REMARK 922        TOTAL FREE ENERGY PREDICTED BY IDOCK:   -8.42 KCAL/MOL
REMARK 923 INTER-LIGAND FREE ENERGY PREDICTED BY IDOCK:   -8.00 KCAL/MOL
REMARK 924 INTRA-LIGAND FREE ENERGY PREDICTED BY IDOCK:   -0.42 KCAL/MOL
REMARK 927      BINDING AFFINITY PREDICTED BY RF-SCORE:    0.00 PKD
ROOT
HETATM    1  N   UNL     1     -11.454   9.250  69.356  1.00  0.00    -0.417 N  
HETATM    2  S   UNL     1     -12.139  10.114  70.626  1.00  0.00    -0.321 S  
HETATM    3  H1  UNL     1     -10.458   9.459  69.407  1.00  0.00     0.000 HD 
HETATM    4  H2  UNL     1     -11.931   8.649  68.683  1.00  0.00     0.000 HD 
HETATM    5  O   UNL     1     -13.551   9.818  70.553  1.00  0.00    -0.054 OA 
HETATM    6  O   UNL     1     -11.358   9.831  71.804  1.00  0.00    -0.298 OA 
ENDROOT
BRANCH   2   7
HETATM    7  C   UNL     1     -11.886  11.792  70.150  1.00  0.00    -0.324 A  
HETATM    8  C   UNL     1     -12.428  12.836  70.903  1.00  0.00    -0.283 A  
HETATM    9  C   UNL     1     -12.181  14.155  70.521  1.00  0.00    -0.431 A  
HETATM   10 CL   UNL     1     -13.416  12.617  72.307  1.00  0.00    -0.633 Cl 
HETATM   11  C   UNL     1     -11.390  14.464  69.407  1.00  0.00    -0.281 A  
HETATM   12  N   UNL     1     -11.215  15.793  69.085  1.00  0.00    -0.297 NA 
HETATM   13  H   UNL     1     -11.664  16.486  69.684  1.00  0.00     0.000 HD 
HETATM   14  C   UNL     1     -10.441  16.280  67.962  1.00  0.00    -0.293 C  
HETATM   15  C   UNL     1     -11.148  12.078  68.987  1.00  0.00    -0.291 A  
HETATM   16  N   UNL     1     -10.653  15.412  66.817  1.00  0.00    -0.305 N  
HETATM   17  O   UNL     1      -8.677  13.950  67.453  1.00  0.00    -0.181 OA 
HETATM   18  S   UNL     1     -10.086  13.841  67.141  1.00  0.00    -0.244 S  
HETATM   19  H   UNL     1     -11.083  15.704  65.939  1.00  0.00     0.000 HD 
HETATM   20  C   UNL     1     -10.932  13.415  68.623  1.00  0.00    -0.260 A  
HETATM   21  O   UNL     1     -10.565  12.994  66.072  1.00  0.00    -0.272 OA 
BRANCH  14  22
HETATM   22  C   UNL     1     -10.763  17.789  67.667  1.00  0.00    -0.330 C  
HETATM   23  C   UNL     1     -10.169  18.139  66.264  1.00  0.00    -0.401 C  
HETATM   24  C   UNL     1      -9.012  19.106  66.618  1.00  0.00    -0.349 C  
HETATM   25  C   UNL     1      -8.661  18.888  68.092  1.00  0.00    -0.349 C  
HETATM   26  C   UNL     1     -10.123  18.921  68.539  1.00  0.00    -0.460 C  
HETATM   27  C   UNL     1     -10.411  20.307  67.941  1.00  0.00    -0.395 C  
HETATM   28  C   UNL     1      -9.700  20.434  66.805  1.00  0.00    -0.528 C  
ENDBRANCH  14  22
ENDBRANCH   2   7
TORSDOF 2
ENDMDL
MODEL        4
REMARK 921   NORMALIZED FREE ENERGY PREDICTED BY IDOCK:   -7.28 KCAL/MOL
REMARK 922        TOTAL FREE ENERGY PREDICTED BY IDOCK:   -8.20 KCAL/MOL
REMARK 923 INTER-LIGAND FREE ENERGY PREDICTED BY IDOCK:   -7.76 KCAL/MOL
REMARK 924 INTRA-LIGAND FREE ENERGY PREDICTED BY IDOCK:   -0.44 KCAL/MOL
REMARK 927      BINDING AFFINITY PREDICTED BY RF-SCORE:    0.00 PKD
ROOT
HETATM    1  N   UNL     1     -10.512  11.643  63.055  1.00  0.00    -0.675 N  
HETATM    2  S   UNL     1     -11.239  12.662  64.178  1.00  0.00    -0.420 S  
HETATM    3  H1  UNL     1     -11.133  10.837  62.996  1.00  0.00     0.000 HD 
HETATM    4  H2  UNL     1      -9.642  11.798  62.545  1.00  0.00     0.000 HD 
HETATM    5  O   UNL     1     -10.359  13.805  64.262  1.00  0.00    -0.331 OA 
HETATM    6  O   UNL     1     -12.625  12.791  63.803  1.00  0.00    -0.660 OA 
ENDROOT
BRANCH   2   7
HETATM    7  C   UNL     1     -11.125  11.748  65.681  1.00  0.00    -0.285 A  
HETATM    8  C   UNL     1     -11.596  12.286  66.880  1.00  0.00    -0.361 A  
HETATM    9  C   UNL     1     -11.525  11.524  68.047  1.00  0.00    -0.381 A  
HETATM   10 CL   UNL     1     -12.274  13.871  67.040  1.00  0.00    -0.441 Cl 
HETATM   11  C   UNL     1     -11.004  10.224  68.047  1.00  0.00    -0.289 A  
HETATM   12  N   UNL     1     -10.949   9.548  69.247  1.00  0.00    -0.373 NA 
HETATM   13  H   UNL     1     -11.301  10.028  70.075  1.00  0.00     0.000 HD 
HETATM   14  C   UNL     1     -10.430   8.207  69.422  1.00  0.00    -0.220 C  
HETATM   15  C   UNL     1     -10.534  10.471  65.671  1.00  0.00    -0.213 A  
HETATM   16  N   UNL     1      -9.257   8.031  68.583  1.00  0.00    -0.143 N  
HETATM   17  O   UNL     1     -10.662   7.158  66.656  1.00  0.00    -0.245 OA 
HETATM   18  S   UNL     1      -9.668   8.172  66.938  1.00  0.00    -0.249 S  
HETATM   19  H   UNL     1      -8.316   7.847  68.932  1.00  0.00     0.000 HD 
HETATM   20  C   UNL     1     -10.464   9.739  66.864  1.00  0.00    -0.211 A  
HETATM   21  O   UNL     1      -8.426   8.246  66.201  1.00  0.00    -0.119 OA 
BRANCH  14  22
HETATM   22  C   UNL     1     -10.162   7.899  70.938  1.00  0.00    -0.213 C  
HETATM   23  C   UNL     1      -9.786   6.386  71.059  1.00  0.00    -0.200 C  
HETATM   24  C   UNL     1     -11.009   5.792  71.802  1.00  0.00    -0.317 C  
HETATM   25  C   UNL     1     -12.175   6.769  71.629  1.00  0.00    -0.410 C  
HETATM   26  C   UNL     1     -11.324   7.989  71.983  1.00  0.00    -0.359 C  
HETATM   27  C   UNL     1     -10.881   7.447  73.350  1.00  0.00    -0.362 C  
HETATM   28  C   UNL     1     -10.737   6.112  73.250  1.00  0.00    -0.282 C  
ENDBRANCH  14  22
ENDBRANCH   2   7
TORSDOF 2
ENDMDL
MODEL        5
REMARK 921   NORMALIZED FREE ENERGY PREDICTED BY IDOCK:   -7.27 KCAL/MOL
REMARK 922        TOTAL FREE ENERGY PREDICTED BY IDOCK:   -8.20 KCAL/MOL
REMARK 923 INTER-LIGAND FREE ENERGY PREDICTED BY IDOCK:   -8.17 KCAL/MOL
REMARK 924 INTRA-LIGAND FREE ENERGY PREDICTED BY IDOCK:   -0.03 KCAL/MOL
REMARK 927      BINDING AFFINITY PREDICTED BY RF-SCORE:    0.00 PKD
ROOT
HETATM    1  N   UNL     1     -11.497  14.911  72.007  1.00  0.00    -0.467 N  
HETATM    2  S   UNL     1     -12.991  14.188  71.736  1.00  0.00    -0.366 S  
HETATM    3  H1  UNL     1     -11.095  15.031  71.078  1.00  0.00     0.000 HD 
HETATM    4  H2  UNL     1     -11.084  15.171  72.903  1.00  0.00     0.000 HD 
HETATM    5  O   UNL     1     -13.561  14.018  73.053  1.00  0.00    -0.644 OA 
HETATM    6  O   UNL     1     -13.655  14.953  70.710  1.00  0.00    -0.323 OA 
ENDROOT
BRANCH   2   7
HETATM    7  C   UNL     1     -12.560  12.604  71.095  1.00  0.00    -0.258 A  
HETATM    8  C   UNL     1     -11.917  12.486  69.861  1.00  0.00    -0.301 A  
HETATM    9  C   UNL     1     -11.557  11.220  69.396  1.00  0.00    -0.390 A  
HETATM   10 CL   UNL     1     -11.528  13.820  68.830  1.00  0.00    -0.318 Cl 
HETATM   11  C   UNL     1     -11.810  10.061  70.142  1.00  0.00    -0.173 A  
HETATM   12  N   UNL     1     -11.442   8.849  69.600  1.00  0.00    -0.420 NA 
HETATM   13  H   UNL     1     -10.993   8.859  68.684  1.00  0.00     0.000 HD 
HETATM   14  C   UNL     1     -11.643   7.561  70.231  1.00  0.00    -0.091 C  
HETATM   15  C   UNL     1     -12.887  11.448  71.828  1.00  0.00    -0.449 A  
HETATM   16  N   UNL     1     -12.932   7.549  70.901  1.00  0.00    -0.585 N  
HETATM   17  O   UNL     1     -11.907   8.374  73.073  1.00  0.00    -0.231 OA 
HETATM   18  S   UNL     1     -12.972   8.704  72.150  1.00  0.00    -0.392 S  
HETATM   19  H   UNL     1     -13.707   6.932  70.657  1.00  0.00     0.000 HD 
HETATM   20  C   UNL     1     -12.525  10.192  71.323  1.00  0.00    -0.406 A  
HETATM   21  O   UNL     1     -14.348   8.807  72.581  1.00  0.00    -0.585 OA 
BRANCH  14  22
HETATM   22  C   UNL     1     -11.468   6.392  69.198  1.00  0.00    -0.265 C  
HETATM   23  C   UNL     1     -10.409   5.397  69.777  1.00  0.00    -0.375 C  
HETATM   24  C   UNL     1      -9.208   5.585  68.817  1.00  0.00    -0.142 C  
HETATM   25  C   UNL     1      -9.386   6.933  68.111  1.00  0.00    -0.124 C  
HETATM   26  C   UNL     1     -10.856   6.669  67.784  1.00  0.00    -0.372 C  
HETATM   27  C   UNL     1     -10.589   5.356  67.031  1.00  0.00    -0.298 C  
HETATM   28  C   UNL     1      -9.561   4.727  67.630  1.00  0.00    -0.190 C  
ENDBRANCH  14  22
ENDBRANCH   2   7
TORSDOF 2
ENDMDL
MODEL        6
REMARK 921   NORMALIZED FREE ENERGY PREDICTED BY IDOCK:   -6.94 KCAL/MOL
REMARK 922        TOTAL FREE ENERGY PREDICTED BY IDOCK:   -7.82 KCAL/MOL
REMARK 923 INTER-LIGAND FREE ENERGY PREDICTED BY IDOCK:   -7.63 KCAL/MOL
REMARK 924 INTRA-LIGAND FREE ENERGY PREDICTED BY IDOCK:   -0.20 KCAL/MOL
REMARK 927      BINDING AFFINITY PREDICTED BY RF-SCORE:    0.00 PKD
ROOT
HETATM    1  N   UNL     1     -13.911   9.017  72.970  1.00  0.00    -0.881 N  
HETATM    2  S   UNL     1     -12.681   8.604  71.900  1.00  0.00    -0.389 S  
HETATM    3  H1  UNL     1     -14.706   9.246  72.374  1.00  0.00     0.000 HD 
HETATM    4  H2  UNL     1     -13.871   9.033  73.989  1.00  0.00     0.000 HD 
HETATM    5  O   UNL     1     -11.553   8.279  72.744  1.00  0.00    -0.395 OA 
HETATM    6  O   UNL     1     -13.231   7.658  70.961  1.00  0.00    -0.174 OA 
ENDROOT
BRANCH   2   7
HETATM    7  C   UNL     1     -12.347  10.123  71.069  1.00  0.00    -0.373 A  
HETATM    8  C   UNL     1     -11.598  10.140  69.891  1.00  0.00    -0.223 A  
HETATM    9  C   UNL     1     -11.380  11.353  69.236  1.00  0.00    -0.355 A  
HETATM   10 CL   UNL     1     -10.891   8.739  69.161  1.00  0.00    -0.138 Cl 
HETATM   11  C   UNL     1     -11.906  12.558  69.723  1.00  0.00    -0.310 A  
HETATM   12  N   UNL     1     -11.626  13.715  69.028  1.00  0.00    -0.289 NA 
HETATM   13  H   UNL     1     -11.055  13.632  68.187  1.00  0.00     0.000 HD 
HETATM   14  C   UNL     1     -12.079  15.038  69.402  1.00  0.00    -0.255 C  
HETATM   15  C   UNL     1     -12.825  11.329  71.613  1.00  0.00    -0.510 A  
HETATM   16  N   UNL     1     -12.018  15.179  70.846  1.00  0.00    -0.299 N  
HETATM   17  O   UNL     1     -14.408  14.363  71.112  1.00  0.00    -0.230 OA 
HETATM   18  S   UNL     1     -13.075  14.082  71.603  1.00  0.00    -0.378 S  
HETATM   19  H   UNL     1     -11.423  15.845  71.339  1.00  0.00     0.000 HD 
HETATM   20  C   UNL     1     -12.574  12.532  70.938  1.00  0.00    -0.241 A  
HETATM   21  O   UNL     1     -12.763  14.106  73.014  1.00  0.00    -0.351 OA 
BRANCH  14  22
HETATM   22  C   UNL     1     -11.276  16.148  68.634  1.00  0.00    -0.369 C  
HETATM   23  C   UNL     1     -10.588  15.473  67.402  1.00  0.00    -0.292 C  
HETATM   24  C   UNL     1      -9.087  15.533  67.779  1.00  0.00    -0.178 C  
HETATM   25  C   UNL     1      -8.997  15.728  69.295  1.00  0.00    -0.266 C  
HETATM   26  C   UNL     1     -10.044  16.843  69.304  1.00  0.00    -0.227 C  
HETATM   27  C   UNL     1      -9.297  17.733  68.299  1.00  0.00    -0.288 C  
HETATM   28  C   UNL     1      -8.680  16.936  67.406  1.00  0.00    -0.213 C  
ENDBRANCH  14  22
ENDBRANCH   2   7
TORSDOF 2
ENDMDL
MODEL        7
REMARK 921   NORMALIZED FREE ENERGY PREDICTED BY IDOCK:   -6.90 KCAL/MOL
REMARK 922        TOTAL FREE ENERGY PREDICTED BY IDOCK:   -7.78 KCAL/MOL
REMARK 923 INTER-LIGAND FREE ENERGY PREDICTED BY IDOCK:   -7.35 KCAL/MOL
REMARK 924 INTRA-LIGAND FREE ENERGY PREDICTED BY IDOCK:   -0.43 KCAL/MOL
REMARK 927      BINDING AFFINITY PREDICTED BY RF-SCORE:    0.00 PKD
ROOT
HETATM    1  N   UNL     1     -11.833   8.789  70.098  1.00  0.00    -0.439 N  
HETATM    2  S   UNL     1     -12.592   9.903  71.104  1.00  0.00    -0.380 S  
HETATM    3  H1  UNL     1     -10.837   8.957  70.230  1.00  0.00     0.000 HD 
HETATM    4  H2  UNL     1     -12.274   8.098  69.490  1.00  0.00     0.000 HD 
HETATM    5  O   UNL     1     -14.005   9.665  70.916  1.00  0.00    -0.111 OA 
HETATM    6  O   UNL     1     -11.965   9.805  72.399  1.00  0.00     0.124 OA 
ENDROOT
BRANCH   2   7
HETATM    7  C   UNL     1     -12.176  11.451  70.372  1.00  0.00    -0.362 A  
HETATM    8  C   UNL     1     -12.626  12.649  70.933  1.00  0.00    -0.249 A  
HETATM    9  C   UNL     1     -12.250  13.860  70.351  1.00  0.00    -0.438 A  
HETATM   10 CL   UNL     1     -13.646  12.752  72.327  1.00  0.00    -0.636 Cl 
HETATM   11  C   UNL     1     -11.420  13.911  69.223  1.00  0.00    -0.297 A  
HETATM   12  N   UNL     1     -11.115  15.148  68.697  1.00  0.00    -0.257 NA 
HETATM   13  H   UNL     1     -11.504  15.967  69.165  1.00  0.00     0.000 HD 
HETATM   14  C   UNL     1     -10.286  15.374  67.532  1.00  0.00    -0.244 C  
HETATM   15  C   UNL     1     -11.400  11.476  69.199  1.00  0.00    -0.351 A  
HETATM   16  N   UNL     1     -10.565  14.354  66.536  1.00  0.00    -0.292 N  
HETATM   17  O   UNL     1      -8.744  12.840  67.452  1.00  0.00    -0.176 OA 
HETATM   18  S   UNL     1     -10.153  12.811  67.123  1.00  0.00    -0.237 S  
HETATM   19  H   UNL     1     -10.954  14.538  65.612  1.00  0.00     0.000 HD 
HETATM   20  C   UNL     1     -11.054  12.711  68.631  1.00  0.00    -0.266 A  
HETATM   21  O   UNL     1     -10.698  11.850  66.191  1.00  0.00    -0.258 OA 
BRANCH  14  22
HETATM   22  C   UNL     1     -10.459  16.837  66.991  1.00  0.00    -0.285 C  
HETATM   23  C   UNL     1      -9.099  17.277  66.356  1.00  0.00    -0.281 C  
HETATM   24  C   UNL     1      -8.606  18.369  67.337  1.00  0.00    -0.261 C  
HETATM   25  C   UNL     1      -9.349  18.172  68.662  1.00  0.00    -0.309 C  
HETATM   26  C   UNL     1     -10.710  18.024  67.979  1.00  0.00    -0.301 C  
HETATM   27  C   UNL     1     -10.639  19.375  67.251  1.00  0.00    -0.599 C  
HETATM   28  C   UNL     1      -9.358  19.603  66.906  1.00  0.00    -0.445 C  
ENDBRANCH  14  22
ENDBRANCH   2   7
TORSDOF 2
ENDMDL
MODEL        8
REMARK 921   NORMALIZED FREE ENERGY PREDICTED BY IDOCK:   -6.90 KCAL/MOL
REMARK 922        TOTAL FREE ENERGY PREDICTED BY IDOCK:   -7.77 KCAL/MOL
REMARK 923 INTER-LIGAND FREE ENERGY PREDICTED BY IDOCK:   -7.81 KCAL/MOL
REMARK 924 INTRA-LIGAND FREE ENERGY PREDICTED BY IDOCK:    0.04 KCAL/MOL
REMARK 927      BINDING AFFINITY PREDICTED BY RF-SCORE:    0.00 PKD
ROOT
HETATM    1  N   UNL     1     -14.045  15.462  71.181  1.00  0.00    -0.788 N  
HETATM    2  S   UNL     1     -13.253  14.182  71.932  1.00  0.00    -0.419 S  
HETATM    3  H1  UNL     1     -14.827  15.030  70.689  1.00  0.00     0.000 HD 
HETATM    4  H2  UNL     1     -13.797  16.451  71.210  1.00  0.00     0.000 HD 
HETATM    5  O   UNL     1     -12.145  14.794  72.628  1.00  0.00    -0.285 OA 
HETATM    6  O   UNL     1     -14.255  13.406  72.620  1.00  0.00    -0.747 OA 
ENDROOT
BRANCH   2   7
HETATM    7  C   UNL     1     -12.625  13.248  70.575  1.00  0.00    -0.189 A  
HETATM    8  C   UNL     1     -12.524  11.857  70.653  1.00  0.00    -0.257 A  
HETATM    9  C   UNL     1     -12.056  11.143  69.550  1.00  0.00    -0.396 A  
HETATM   10 CL   UNL     1     -12.939  10.925  72.051  1.00  0.00    -0.519 Cl 
HETATM   11  C   UNL     1     -11.695  11.782  68.356  1.00  0.00    -0.325 A  
HETATM   12  N   UNL     1     -11.221  11.004  67.322  1.00  0.00    -0.385 NA 
HETATM   13  H   UNL     1     -11.167   9.997  67.477  1.00  0.00     0.000 HD 
HETATM   14  C   UNL     1     -10.795  11.506  66.033  1.00  0.00    -0.276 C  
HETATM   15  C   UNL     1     -12.202  13.917  69.412  1.00  0.00    -0.338 A  
HETATM   16  N   UNL     1     -10.080  12.757  66.215  1.00  0.00    -0.254 N  
HETATM   17  O   UNL     1     -12.212  14.112  65.958  1.00  0.00    -0.419 OA 
HETATM   18  S   UNL     1     -11.104  13.945  66.875  1.00  0.00    -0.308 S  
HETATM   19  H   UNL     1      -9.098  12.904  65.980  1.00  0.00     0.000 HD 
HETATM   20  C   UNL     1     -11.721  13.169  68.328  1.00  0.00    -0.349 A  
HETATM   21  O   UNL     1     -10.262  15.055  67.262  1.00  0.00    -0.239 OA 
BRANCH  14  22
HETATM   22  C   UNL     1      -9.968  10.425  65.251  1.00  0.00    -0.376 C  
HETATM   23  C   UNL     1     -10.025   9.094  66.071  1.00  0.00    -0.293 C  
HETATM   24  C   UNL     1      -8.566   8.941  66.569  1.00  0.00    -0.133 C  
HETATM   25  C   UNL     1      -7.902  10.319  66.487  1.00  0.00    -0.116 C  
HETATM   26  C   UNL     1      -8.421  10.585  65.074  1.00  0.00    -0.166 C  
HETATM   27  C   UNL     1      -7.800   9.318  64.466  1.00  0.00    -0.118 C  
HETATM   28  C   UNL     1      -7.846   8.339  65.389  1.00  0.00    -0.113 C  
ENDBRANCH  14  22
ENDBRANCH   2   7
TORSDOF 2
ENDMDL
MODEL        9
REMARK 921   NORMALIZED FREE ENERGY PREDICTED BY IDOCK:   -6.84 KCAL/MOL
REMARK 922        TOTAL FREE ENERGY PREDICTED BY IDOCK:   -7.71 KCAL/MOL
REMARK 923 INTER-LIGAND FREE ENERGY PREDICTED BY IDOCK:   -7.52 KCAL/MOL
REMARK 924 INTRA-LIGAND FREE ENERGY PREDICTED BY IDOCK:   -0.19 KCAL/MOL
REMARK 927      BINDING AFFINITY PREDICTED BY RF-SCORE:    0.00 PKD
ROOT
HETATM    1  N   UNL     1     -13.193  10.800  72.531  1.00  0.00    -0.306 N  
HETATM    2  S   UNL     1     -12.532  10.113  71.146  1.00  0.00    -0.422 S  
HETATM    3  H1  UNL     1     -14.025  11.292  72.205  1.00  0.00     0.000 HD 
HETATM    4  H2  UNL     1     -12.840  10.738  73.486  1.00  0.00     0.000 HD 
HETATM    5  O   UNL     1     -11.353   9.416  71.608  1.00  0.00    -0.372 OA 
HETATM    6  O   UNL     1     -13.600   9.434  70.455  1.00  0.00     0.166 OA 
ENDROOT
BRANCH   2   7
HETATM    7  C   UNL     1     -12.029  11.516  70.204  1.00  0.00    -0.369 A  
HETATM    8  C   UNL     1     -11.433  11.357  68.951  1.00  0.00    -0.298 A  
HETATM    9  C   UNL     1     -11.078  12.487  68.214  1.00  0.00    -0.294 A  
HETATM   10 CL   UNL     1     -11.083   9.826  68.223  1.00  0.00    -0.211 Cl 
HETATM   11  C   UNL     1     -11.316  13.783  68.691  1.00  0.00    -0.287 A  
HETATM   12  N   UNL     1     -10.914  14.845  67.910  1.00  0.00    -0.277 NA 
HETATM   13  H   UNL     1     -10.471  14.631  67.016  1.00  0.00     0.000 HD 
HETATM   14  C   UNL     1     -11.073  16.241  68.260  1.00  0.00    -0.346 C  
HETATM   15  C   UNL     1     -12.213  12.806  70.733  1.00  0.00    -0.338 A  
HETATM   16  N   UNL     1     -10.817  16.413  69.680  1.00  0.00    -0.338 N  
HETATM   17  O   UNL     1     -13.267  16.065  70.250  1.00  0.00    -0.063 OA 
HETATM   18  S   UNL     1     -11.959  15.556  70.605  1.00  0.00    -0.414 S  
HETATM   19  H   UNL     1     -10.058  16.972  70.069  1.00  0.00     0.000 HD 
HETATM   20  C   UNL     1     -11.830  13.920  69.972  1.00  0.00    -0.315 A  
HETATM   21  O   UNL     1     -11.484  15.566  71.970  1.00  0.00    -0.423 OA 
BRANCH  14  22
HETATM   22  C   UNL     1     -10.178  17.157  67.351  1.00  0.00    -0.321 C  
HETATM   23  C   UNL     1      -8.871  17.486  68.144  1.00  0.00    -0.263 C  
HETATM   24  C   UNL     1      -9.025  18.999  68.436  1.00  0.00    -0.378 C  
HETATM   25  C   UNL     1     -10.509  19.350  68.294  1.00  0.00    -0.424 C  
HETATM   26  C   UNL     1     -10.651  18.599  66.969  1.00  0.00    -0.448 C  
HETATM   27  C   UNL     1      -9.534  19.377  66.257  1.00  0.00    -0.422 C  
HETATM   28  C   UNL     1      -8.574  19.658  67.158  1.00  0.00    -0.357 C  
ENDBRANCH  14  22
ENDBRANCH   2   7
TORSDOF 2
ENDMDL
MODEL       10
REMARK 921   NORMALIZED FREE ENERGY PREDICTED BY IDOCK:   -6.81 KCAL/MOL
REMARK 922        TOTAL FREE ENERGY PREDICTED BY IDOCK:   -7.67 KCAL/MOL
REMARK 923 INTER-LIGAND FREE ENERGY PREDICTED BY IDOCK:   -7.23 KCAL/MOL
REMARK 924 INTRA-LIGAND FREE ENERGY PREDICTED BY IDOCK:   -0.44 KCAL/MOL
REMARK 927      BINDING AFFINITY PREDICTED BY RF-SCORE:    0.00 PKD
ROOT
HETATM    1  N   UNL     1     -10.941  12.866  63.903  1.00  0.00    -0.454 N  
HETATM    2  S   UNL     1     -11.566  13.732  65.202  1.00  0.00    -0.347 S  
HETATM    3  H1  UNL     1     -11.579  12.079  63.785  1.00  0.00     0.000 HD 
HETATM    4  H2  UNL     1     -10.108  13.080  63.354  1.00  0.00     0.000 HD 
HETATM    5  O   UNL     1     -10.662  14.847  65.369  1.00  0.00    -0.325 OA 
HETATM    6  O   UNL     1     -12.974  13.919  64.952  1.00  0.00    -0.711 OA 
ENDROOT
BRANCH   2   7
HETATM    7  C   UNL     1     -11.358  12.626  66.558  1.00  0.00    -0.326 A  
HETATM    8  C   UNL     1     -11.733  13.002  67.850  1.00  0.00    -0.357 A  
HETATM    9  C   UNL     1     -11.589  12.092  68.897  1.00  0.00    -0.377 A  
HETATM   10 CL   UNL     1     -12.375  14.555  68.266  1.00  0.00    -0.112 Cl 
HETATM   11  C   UNL     1     -11.088  10.800  68.687  1.00  0.00    -0.259 A  
HETATM   12  N   UNL     1     -10.957   9.971  69.780  1.00  0.00    -0.260 NA 
HETATM   13  H   UNL     1     -11.241  10.339  70.688  1.00  0.00     0.000 HD 
HETATM   14  C   UNL     1     -10.446   8.616  69.738  1.00  0.00    -0.220 C  
HETATM   15  C   UNL     1     -10.787  11.359  66.337  1.00  0.00    -0.323 A  
HETATM   16  N   UNL     1      -9.339   8.548  68.800  1.00  0.00    -0.143 N  
HETATM   17  O   UNL     1     -10.892   7.945  66.883  1.00  0.00    -0.288 OA 
HETATM   18  S   UNL     1      -9.865   8.908  67.222  1.00  0.00    -0.218 S  
HETATM   19  H   UNL     1      -8.379   8.315  69.052  1.00  0.00     0.000 HD 
HETATM   20  C   UNL     1     -10.642  10.475  67.415  1.00  0.00    -0.263 A  
HETATM   21  O   UNL     1      -8.679   9.073  66.413  1.00  0.00    -0.124 OA 
BRANCH  14  22
HETATM   22  C   UNL     1     -10.074   8.109  71.177  1.00  0.00    -0.222 C  
HETATM   23  C   UNL     1      -9.551   6.641  71.045  1.00  0.00    -0.178 C  
HETATM   24  C   UNL     1     -10.673   5.819  71.728  1.00  0.00    -0.305 C  
HETATM   25  C   UNL     1     -11.934   6.688  71.751  1.00  0.00    -0.391 C  
HETATM   26  C   UNL     1     -11.186   7.919  72.263  1.00  0.00    -0.389 C  
HETATM   27  C   UNL     1     -10.625   7.222  73.512  1.00  0.00    -0.408 C  
HETATM   28  C   UNL     1     -10.361   5.940  73.198  1.00  0.00    -0.230 C  
ENDBRANCH  14  22
ENDBRANCH   2   7
TORSDOF 2
ENDMDL
MODEL       11
REMARK 921   NORMALIZED FREE ENERGY PREDICTED BY IDOCK:   -6.78 KCAL/MOL
REMARK 922        TOTAL FREE ENERGY PREDICTED BY IDOCK:   -7.64 KCAL/MOL
REMARK 923 INTER-LIGAND FREE ENERGY PREDICTED BY IDOCK:   -7.76 KCAL/MOL
REMARK 924 INTRA-LIGAND FREE ENERGY PREDICTED BY IDOCK:    0.12 KCAL/MOL
REMARK 927      BINDING AFFINITY PREDICTED BY RF-SCORE:    0.00 PKD
ROOT
HETATM    1  N   UNL     1     -12.039  14.850  74.358  1.00  0.00    -0.557 N  
HETATM    2  S   UNL     1     -12.534  16.029  73.265  1.00  0.00    -0.580 S  
HETATM    3  H1  UNL     1     -11.028  14.796  74.241  1.00  0.00     0.000 HD 
HETATM    4  H2  UNL     1     -12.622  14.310  74.997  1.00  0.00     0.000 HD 
HETATM    5  O   UNL     1     -13.967  16.105  73.431  1.00  0.00    -0.488 OA 
HETATM    6  O   UNL     1     -11.680  17.174  73.457  1.00  0.00    -0.117 OA 
ENDROOT
BRANCH   2   7
HETATM    7  C   UNL     1     -12.182  15.297  71.701  1.00  0.00    -0.365 A  
HETATM    8  C   UNL     1     -12.751  14.072  71.343  1.00  0.00    -0.364 A  
HETATM    9  C   UNL     1     -12.482  13.534  70.084  1.00  0.00    -0.276 A  
HETATM   10 CL   UNL     1     -13.785  13.138  72.370  1.00  0.00    -0.683 Cl 
HETATM   11  C   UNL     1     -11.664  14.198  69.159  1.00  0.00    -0.327 A  
HETATM   12  N   UNL     1     -11.431  13.587  67.945  1.00  0.00    -0.298 NA 
HETATM   13  H   UNL     1     -11.876  12.684  67.780  1.00  0.00     0.000 HD 
HETATM   14  C   UNL     1     -10.604  14.129  66.888  1.00  0.00    -0.280 C  
HETATM   15  C   UNL     1     -11.303  15.946  70.815  1.00  0.00    -0.424 A  
HETATM   16  N   UNL     1      -9.436  14.768  67.469  1.00  0.00    -0.196 N  
HETATM   17  O   UNL     1     -10.620  17.011  67.595  1.00  0.00    -0.339 OA 
HETATM   18  S   UNL     1      -9.893  16.088  68.441  1.00  0.00    -0.217 S  
HETATM   19  H   UNL     1      -8.474  14.467  67.315  1.00  0.00     0.000 HD 
HETATM   20  C   UNL     1     -11.042  15.369  69.564  1.00  0.00    -0.284 A  
HETATM   21  O   UNL     1      -8.717  16.494  69.176  1.00  0.00    -0.232 OA 
BRANCH  14  22
HETATM   22  C   UNL     1     -10.248  13.027  65.828  1.00  0.00    -0.297 C  
HETATM   23  C   UNL     1     -11.465  12.049  65.728  1.00  0.00    -0.377 C  
HETATM   24  C   UNL     1     -10.902  10.745  66.347  1.00  0.00    -0.172 C  
HETATM   25  C   UNL     1      -9.682  11.122  67.192  1.00  0.00    -0.199 C  
HETATM   26  C   UNL     1      -9.088  12.012  66.099  1.00  0.00    -0.129 C  
HETATM   27  C   UNL     1      -9.059  10.907  65.032  1.00  0.00    -0.209 C  
HETATM   28  C   UNL     1     -10.132  10.115  65.214  1.00  0.00    -0.344 C  
ENDBRANCH  14  22
ENDBRANCH   2   7
TORSDOF 2
ENDMDL
MODEL       12
REMARK 921   NORMALIZED FREE ENERGY PREDICTED BY IDOCK:   -6.68 KCAL/MOL
REMARK 922        TOTAL FREE ENERGY PREDICTED BY IDOCK:   -7.54 KCAL/MOL
REMARK 923 INTER-LIGAND FREE ENERGY PREDICTED BY IDOCK:   -7.43 KCAL/MOL
REMARK 924 INTRA-LIGAND FREE ENERGY PREDICTED BY IDOCK:   -0.10 KCAL/MOL
REMARK 927      BINDING AFFINITY PREDICTED BY RF-SCORE:    0.00 PKD
ROOT
HETATM    1  N   UNL     1      -8.377  20.199  65.845  1.00  0.00    -0.541 N  
HETATM    2  S   UNL     1      -9.763  19.583  66.573  1.00  0.00    -0.418 S  
HETATM    3  H1  UNL     1      -8.450  19.916  64.868  1.00  0.00     0.000 HD 
HETATM    4  H2  UNL     1      -7.630  20.737  66.284  1.00  0.00     0.000 HD 
HETATM    5  O   UNL     1      -9.661  19.984  67.957  1.00  0.00    -0.356 OA 
HETATM    6  O   UNL     1     -10.883  19.962  65.747  1.00  0.00    -0.427 OA 
ENDROOT
BRANCH   2   7
HETATM    7  C   UNL     1      -9.528  17.839  66.469  1.00  0.00    -0.290 A  
HETATM    8  C   UNL     1      -8.346  17.250  66.925  1.00  0.00    -0.227 A  
HETATM    9  C   UNL     1      -8.204  15.864  66.862  1.00  0.00    -0.283 A  
HETATM   10 CL   UNL     1      -7.004  18.130  67.574  1.00  0.00    -0.199 Cl 
HETATM   11  C   UNL     1      -9.222  15.040  66.365  1.00  0.00    -0.295 A  
HETATM   12  N   UNL     1      -8.992  13.682  66.316  1.00  0.00    -0.464 NA 
HETATM   13  H   UNL     1      -8.091  13.345  66.656  1.00  0.00     0.000 HD 
HETATM   14  C   UNL     1      -9.931  12.697  65.821  1.00  0.00    -0.256 C  
HETATM   15  C   UNL     1     -10.535  17.037  65.900  1.00  0.00    -0.282 A  
HETATM   16  N   UNL     1     -10.616  13.228  64.655  1.00  0.00    -0.383 N  
HETATM   17  O   UNL     1     -12.484  14.186  66.084  1.00  0.00    -0.466 OA 
HETATM   18  S   UNL     1     -11.536  14.598  65.070  1.00  0.00    -0.391 S  
HETATM   19  H   UNL     1     -10.554  12.834  63.716  1.00  0.00     0.000 HD 
HETATM   20  C   UNL     1     -10.352  15.649  65.838  1.00  0.00    -0.350 A  
HETATM   21  O   UNL     1     -11.964  15.206  63.831  1.00  0.00    -0.415 OA 
BRANCH  14  22
HETATM   22  C   UNL     1      -9.219  11.324  65.552  1.00  0.00    -0.220 C  
HETATM   23  C   UNL     1     -10.329  10.253  65.290  1.00  0.00    -0.218 C  
HETATM   24  C   UNL     1     -10.226   9.346  66.542  1.00  0.00    -0.308 C  
HETATM   25  C   UNL     1      -9.507  10.144  67.634  1.00  0.00    -0.166 C  
HETATM   26  C   UNL     1      -8.404  10.618  66.687  1.00  0.00    -0.136 C  
HETATM   27  C   UNL     1      -7.978   9.203  66.264  1.00  0.00    -0.103 C  
HETATM   28  C   UNL     1      -9.077   8.426  66.223  1.00  0.00    -0.241 C  
ENDBRANCH  14  22
ENDBRANCH   2   7
TORSDOF 2
ENDMDL
MODEL       13
REMARK 921   NORMALIZED FREE ENERGY PREDICTED BY IDOCK:   -6.67 KCAL/MOL
REMARK 922        TOTAL FREE ENERGY PREDICTED BY IDOCK:   -7.53 KCAL/MOL
REMARK 923 INTER-LIGAND FREE ENERGY PREDICTED BY IDOCK:   -7.07 KCAL/MOL
REMARK 924 INTRA-LIGAND FREE ENERGY PREDICTED BY IDOCK:   -0.45 KCAL/MOL
REMARK 927      BINDING AFFINITY PREDICTED BY RF-SCORE:    0.00 PKD
ROOT
HETATM    1  N   UNL     1     -12.326  14.696  67.864  1.00  0.00    -0.588 N  
HETATM    2  S   UNL     1     -11.851  14.103  66.364  1.00  0.00    -0.436 S  
HETATM    3  H1  UNL     1     -11.471  14.710  68.420  1.00  0.00     0.000 HD 
HETATM    4  H2  UNL     1     -13.262  14.980  68.153  1.00  0.00     0.000 HD 
HETATM    5  O   UNL     1     -13.062  14.083  65.576  1.00  0.00    -0.713 OA 
HETATM    6  O   UNL     1     -10.687  14.851  65.958  1.00  0.00    -0.303 OA 
ENDROOT
BRANCH   2   7
HETATM    7  C   UNL     1     -11.380  12.442  66.721  1.00  0.00    -0.335 A  
HETATM    8  C   UNL     1     -10.878  11.612  65.716  1.00  0.00    -0.281 A  
HETATM    9  C   UNL     1     -10.481  10.313  66.037  1.00  0.00    -0.181 A  
HETATM   10 CL   UNL     1     -10.713  12.076  64.057  1.00  0.00    -0.380 Cl 
HETATM   11  C   UNL     1     -10.559   9.821  67.347  1.00  0.00    -0.267 A  
HETATM   12  N   UNL     1     -10.167   8.519  67.574  1.00  0.00    -0.224 NA 
HETATM   13  H   UNL     1      -9.830   7.983  66.775  1.00  0.00     0.000 HD 
HETATM   14  C   UNL     1     -10.196   7.856  68.861  1.00  0.00    -0.205 C  
HETATM   15  C   UNL     1     -11.533  11.946  68.029  1.00  0.00    -0.389 A  
HETATM   16  N   UNL     1     -11.394   8.253  69.580  1.00  0.00    -0.437 N  
HETATM   17  O   UNL     1     -10.187  10.192  70.689  1.00  0.00    -0.132 OA 
HETATM   18  S   UNL     1     -11.374   9.923  69.906  1.00  0.00    -0.190 S  
HETATM   19  H   UNL     1     -12.144   7.617  69.854  1.00  0.00     0.000 HD 
HETATM   20  C   UNL     1     -11.139  10.631  68.312  1.00  0.00    -0.279 A  
HETATM   21  O   UNL     1     -12.694  10.272  70.379  1.00  0.00    -0.273 OA 
BRANCH  14  22
HETATM   22  C   UNL     1     -10.056   6.300  68.697  1.00  0.00    -0.185 C  
HETATM   23  C   UNL     1     -10.870   5.623  69.848  1.00  0.00    -0.370 C  
HETATM   24  C   UNL     1      -9.757   4.999  70.727  1.00  0.00    -0.263 C  
HETATM   25  C   UNL     1      -8.446   5.717  70.393  1.00  0.00    -0.127 C  
HETATM   26  C   UNL     1      -8.666   5.606  68.884  1.00  0.00    -0.107 C  
HETATM   27  C   UNL     1      -8.807   4.076  68.884  1.00  0.00    -0.149 C  
HETATM   28  C   UNL     1      -9.425   3.709  70.023  1.00  0.00    -0.260 C  
ENDBRANCH  14  22
ENDBRANCH   2   7
TORSDOF 2
ENDMDL
MODEL       14
REMARK 921   NORMALIZED FREE ENERGY PREDICTED BY IDOCK:   -6.66 KCAL/MOL
REMARK 922        TOTAL FREE ENERGY PREDICTED BY IDOCK:   -7.51 KCAL/MOL
REMARK 923 INTER-LIGAND FREE ENERGY PREDICTED BY IDOCK:   -7.56 KCAL/MOL
REMARK 924 INTRA-LIGAND FREE ENERGY PREDICTED BY IDOCK:    0.05 KCAL/MOL
REMARK 927      BINDING AFFINITY PREDICTED BY RF-SCORE:    0.00 PKD
ROOT
HETATM    1  N   UNL     1      -7.413  10.802  64.918  1.00  0.00    -0.355 N  
HETATM    2  S   UNL     1      -8.804   9.941  65.311  1.00  0.00    -0.197 S  
HETATM    3  H1  UNL     1      -6.864  10.813  65.777  1.00  0.00     0.000 HD 
HETATM    4  H2  UNL     1      -7.173  11.220  64.019  1.00  0.00     0.000 HD 
HETATM    5  O   UNL     1      -9.583   9.926  64.094  1.00  0.00    -0.264 OA 
HETATM    6  O   UNL     1      -8.383   8.727  65.965  1.00  0.00    -0.116 OA 
ENDROOT
BRANCH   2   7
HETATM    7  C   UNL     1      -9.604  10.986  66.484  1.00  0.00    -0.195 A  
HETATM    8  C   UNL     1     -10.477  10.453  67.434  1.00  0.00    -0.249 A  
HETATM    9  C   UNL     1     -11.068  11.300  68.372  1.00  0.00    -0.296 A  
HETATM   10 CL   UNL     1     -10.903   8.778  67.539  1.00  0.00    -0.200 Cl 
HETATM   11  C   UNL     1     -10.798  12.675  68.396  1.00  0.00    -0.245 A  
HETATM   12  N   UNL     1     -11.441  13.446  69.341  1.00  0.00    -0.336 NA 
HETATM   13  H   UNL     1     -12.076  12.971  69.983  1.00  0.00     0.000 HD 
HETATM   14  C   UNL     1     -11.284  14.877  69.492  1.00  0.00    -0.277 C  
HETATM   15  C   UNL     1      -9.373  12.373  66.445  1.00  0.00    -0.219 A  
HETATM   16  N   UNL     1     -11.195  15.493  68.180  1.00  0.00    -0.330 N  
HETATM   17  O   UNL     1      -8.664  15.290  68.163  1.00  0.00    -0.157 OA 
HETATM   18  S   UNL     1      -9.813  14.947  67.352  1.00  0.00    -0.222 S  
HETATM   19  H   UNL     1     -11.868  16.163  67.806  1.00  0.00     0.000 HD 
HETATM   20  C   UNL     1      -9.996  13.198  67.392  1.00  0.00    -0.229 A  
HETATM   21  O   UNL     1      -9.940  15.397  65.984  1.00  0.00    -0.278 OA 
BRANCH  14  22
HETATM   22  C   UNL     1     -12.427  15.479  70.386  1.00  0.00    -0.443 C  
HETATM   23  C   UNL     1     -11.755  16.175  71.615  1.00  0.00    -0.558 C  
HETATM   24  C   UNL     1     -12.176  15.260  72.793  1.00  0.00    -0.513 C  
HETATM   25  C   UNL     1     -12.582  13.906  72.205  1.00  0.00    -0.247 C  
HETATM   26  C   UNL     1     -13.445  14.537  71.112  1.00  0.00    -0.396 C  
HETATM   27  C   UNL     1     -14.332  15.328  72.086  1.00  0.00    -0.651 C  
HETATM   28  C   UNL     1     -13.571  15.723  73.124  1.00  0.00    -0.588 C  
ENDBRANCH  14  22
ENDBRANCH   2   7
TORSDOF 2
ENDMDL
MODEL       15
REMARK 921   NORMALIZED FREE ENERGY PREDICTED BY IDOCK:   -6.64 KCAL/MOL
REMARK 922        TOTAL FREE ENERGY PREDICTED BY IDOCK:   -7.48 KCAL/MOL
REMARK 923 INTER-LIGAND FREE ENERGY PREDICTED BY IDOCK:   -7.26 KCAL/MOL
REMARK 924 INTRA-LIGAND FREE ENERGY PREDICTED BY IDOCK:   -0.22 KCAL/MOL
REMARK 927      BINDING AFFINITY PREDICTED BY RF-SCORE:    0.00 PKD
ROOT
HETATM    1  N   UNL     1     -11.343   7.388  73.085  1.00  0.00    -0.601 N  
HETATM    2  S   UNL     1     -11.890   7.210  71.504  1.00  0.00    -0.334 S  
HETATM    3  H1  UNL     1     -12.037   7.985  73.534  1.00  0.00     0.000 HD 
HETATM    4  H2  UNL     1     -10.503   6.986  73.502  1.00  0.00     0.000 HD 
HETATM    5  O   UNL     1     -10.906   6.364  70.868  1.00  0.00    -0.237 OA 
HETATM    6  O   UNL     1     -13.283   6.845  71.573  1.00  0.00    -0.345 OA 
ENDROOT
BRANCH   2   7
HETATM    7  C   UNL     1     -11.747   8.839  70.846  1.00  0.00    -0.258 A  
HETATM    8  C   UNL     1     -12.546   9.877  71.332  1.00  0.00    -0.398 A  
HETATM    9  C   UNL     1     -12.385  11.163  70.815  1.00  0.00    -0.504 A  
HETATM   10 CL   UNL     1     -13.759   9.686  72.551  1.00  0.00    -0.387 Cl 
HETATM   11  C   UNL     1     -11.432  11.447  69.829  1.00  0.00    -0.300 A  
HETATM   12  N   UNL     1     -11.353  12.740  69.357  1.00  0.00    -0.410 NA 
HETATM   13  H   UNL     1     -11.990  13.428  69.760  1.00  0.00     0.000 HD 
HETATM   14  C   UNL     1     -10.435  13.197  68.334  1.00  0.00    -0.253 C  
HETATM   15  C   UNL     1     -10.832   9.088  69.806  1.00  0.00    -0.215 A  
HETATM   16  N   UNL     1     -10.314  12.178  67.306  1.00  0.00    -0.211 N  
HETATM   17  O   UNL     1      -8.344  11.098  68.491  1.00  0.00    -0.141 OA 
HETATM   18  S   UNL     1      -9.641  10.753  67.949  1.00  0.00    -0.163 S  
HETATM   19  H   UNL     1     -10.592  12.299  66.333  1.00  0.00     0.000 HD 
HETATM   20  C   UNL     1     -10.708  10.389  69.300  1.00  0.00    -0.237 A  
HETATM   21  O   UNL     1      -9.797   9.726  66.943  1.00  0.00    -0.181 OA 
BRANCH  14  22
HETATM   22  C   UNL     1     -10.867  14.598  67.773  1.00  0.00    -0.268 C  
HETATM   23  C   UNL     1     -10.876  14.506  66.212  1.00  0.00    -0.317 C  
HETATM   24  C   UNL     1      -9.686  15.413  65.812  1.00  0.00    -0.385 C  
HETATM   25  C   UNL     1      -8.782  15.558  67.040  1.00  0.00    -0.258 C  
HETATM   26  C   UNL     1      -9.952  15.851  67.979  1.00  0.00    -0.220 C  
HETATM   27  C   UNL     1     -10.470  17.052  67.173  1.00  0.00    -0.291 C  
HETATM   28  C   UNL     1     -10.264  16.804  65.866  1.00  0.00    -0.345 C  
ENDBRANCH  14  22
ENDBRANCH   2   7
TORSDOF 2
ENDMDL
MODEL       16
REMARK 921   NORMALIZED FREE ENERGY PREDICTED BY IDOCK:   -6.63 KCAL/MOL
REMARK 922        TOTAL FREE ENERGY PREDICTED BY IDOCK:   -7.48 KCAL/MOL
REMARK 923 INTER-LIGAND FREE ENERGY PREDICTED BY IDOCK:   -7.13 KCAL/MOL
REMARK 924 INTRA-LIGAND FREE ENERGY PREDICTED BY IDOCK:   -0.35 KCAL/MOL
REMARK 927      BINDING AFFINITY PREDICTED BY RF-SCORE:    0.00 PKD
ROOT
HETATM    1  N   UNL     1     -12.440  16.205  69.214  1.00  0.00    -0.357 N  
HETATM    2  S   UNL     1     -12.847  15.446  70.658  1.00  0.00    -0.375 S  
HETATM    3  H1  UNL     1     -13.070  15.801  68.522  1.00  0.00     0.000 HD 
HETATM    4  H2  UNL     1     -11.720  16.913  69.063  1.00  0.00     0.000 HD 
HETATM    5  O   UNL     1     -11.953  16.018  71.639  1.00  0.00    -0.441 OA 
HETATM    6  O   UNL     1     -14.280  15.525  70.792  1.00  0.00    -0.334 OA 
ENDROOT
BRANCH   2   7
HETATM    7  C   UNL     1     -12.381  13.770  70.375  1.00  0.00    -0.353 A  
HETATM    8  C   UNL     1     -12.813  12.755  71.233  1.00  0.00    -0.262 A  
HETATM    9  C   UNL     1     -12.456  11.434  70.963  1.00  0.00    -0.486 A  
HETATM   10 CL   UNL     1     -13.775  13.016  72.647  1.00  0.00    -0.508 Cl 
HETATM   11  C   UNL     1     -11.685  11.092  69.844  1.00  0.00    -0.346 A  
HETATM   12  N   UNL     1     -11.359   9.765  69.662  1.00  0.00    -0.405 NA 
HETATM   13  H   UNL     1     -11.705   9.097  70.351  1.00  0.00     0.000 HD 
HETATM   14  C   UNL     1     -10.562   9.248  68.570  1.00  0.00    -0.183 C  
HETATM   15  C   UNL     1     -11.547  13.458  69.285  1.00  0.00    -0.365 A  
HETATM   16  N   UNL     1      -9.481  10.174  68.281  1.00  0.00    -0.139 N  
HETATM   17  O   UNL     1     -10.888  11.417  66.572  1.00  0.00    -0.271 OA 
HETATM   18  S   UNL     1     -10.095  11.671  67.756  1.00  0.00    -0.191 S  
HETATM   19  H   UNL     1      -8.489   9.956  68.379  1.00  0.00     0.000 HD 
HETATM   20  C   UNL     1     -11.196  12.121  69.053  1.00  0.00    -0.260 A  
HETATM   21  O   UNL     1      -8.986  12.598  67.745  1.00  0.00    -0.171 OA 
BRANCH  14  22
HETATM   22  C   UNL     1     -10.068   7.789  68.873  1.00  0.00    -0.201 C  
HETATM   23  C   UNL     1      -8.869   7.482  67.917  1.00  0.00    -0.126 C  
HETATM   24  C   UNL     1      -9.460   6.411  66.966  1.00  0.00    -0.159 C  
HETATM   25  C   UNL     1     -10.986   6.511  67.047  1.00  0.00    -0.466 C  
HETATM   26  C   UNL     1     -10.991   6.561  68.576  1.00  0.00    -0.360 C  
HETATM   27  C   UNL     1     -10.228   5.239  68.752  1.00  0.00    -0.231 C  
HETATM   28  C   UNL     1      -9.335   5.129  67.750  1.00  0.00    -0.138 C  
ENDBRANCH  14  22
ENDBRANCH   2   7
TORSDOF 2
ENDMDL
MODEL       17
REMARK 921   NORMALIZED FREE ENERGY PREDICTED BY IDOCK:   -6.62 KCAL/MOL
REMARK 922        TOTAL FREE ENERGY PREDICTED BY IDOCK:   -7.46 KCAL/MOL
REMARK 923 INTER-LIGAND FREE ENERGY PREDICTED BY IDOCK:   -7.11 KCAL/MOL
REMARK 924 INTRA-LIGAND FREE ENERGY PREDICTED BY IDOCK:   -0.35 KCAL/MOL
REMARK 927      BINDING AFFINITY PREDICTED BY RF-SCORE:    0.00 PKD
ROOT
HETATM    1  N   UNL     1      -9.617   6.426  71.573  1.00  0.00    -0.159 N  
HETATM    2  S   UNL     1     -10.932   7.232  72.241  1.00  0.00    -0.265 S  
HETATM    3  H1  UNL     1      -8.853   7.101  71.608  1.00  0.00     0.000 HD 
HETATM    4  H2  UNL     1      -9.588   5.472  71.212  1.00  0.00     0.000 HD 
HETATM    5  O   UNL     1     -12.014   6.275  72.191  1.00  0.00    -0.329 OA 
HETATM    6  O   UNL     1     -10.488   7.820  73.480  1.00  0.00    -0.311 OA 
ENDROOT
BRANCH   2   7
HETATM    7  C   UNL     1     -11.253   8.512  71.072  1.00  0.00    -0.268 A  
HETATM    8  C   UNL     1     -12.345   9.368  71.234  1.00  0.00    -0.341 A  
HETATM    9  C   UNL     1     -12.553  10.393  70.311  1.00  0.00    -0.262 A  
HETATM   10 CL   UNL     1     -13.497   9.248  72.520  1.00  0.00    -0.510 Cl 
HETATM   11  C   UNL     1     -11.686  10.599  69.230  1.00  0.00    -0.264 A  
HETATM   12  N   UNL     1     -11.976  11.621  68.352  1.00  0.00    -0.533 NA 
HETATM   13  H   UNL     1     -12.805  12.184  68.541  1.00  0.00     0.000 HD 
HETATM   14  C   UNL     1     -11.193  11.958  67.181  1.00  0.00    -0.319 C  
HETATM   15  C   UNL     1     -10.410   8.656  69.955  1.00  0.00    -0.213 A  
HETATM   16  N   UNL     1     -10.729  10.737  66.544  1.00  0.00    -0.218 N  
HETATM   17  O   UNL     1      -8.580  10.748  67.897  1.00  0.00    -0.122 OA 
HETATM   18  S   UNL     1      -9.691   9.875  67.581  1.00  0.00    -0.160 S  
HETATM   19  H   UNL     1     -10.989  10.438  65.604  1.00  0.00     0.000 HD 
HETATM   20  C   UNL     1     -10.657   9.688  69.038  1.00  0.00    -0.218 A  
HETATM   21  O   UNL     1      -9.490   8.574  66.984  1.00  0.00    -0.153 OA 
BRANCH  14  22
HETATM   22  C   UNL     1     -11.998  12.897  66.214  1.00  0.00    -0.472 C  
HETATM   23  C   UNL     1     -12.282  12.099  64.899  1.00  0.00    -0.306 C  
HETATM   24  C   UNL     1     -11.398  12.833  63.861  1.00  0.00    -0.498 C  
HETATM   25  C   UNL     1     -10.327  13.611  64.631  1.00  0.00    -0.407 C  
HETATM   26  C   UNL     1     -11.334  14.187  65.627  1.00  0.00    -0.319 C  
HETATM   27  C   UNL     1     -12.227  14.829  64.554  1.00  0.00    -0.443 C  
HETATM   28  C   UNL     1     -12.226  14.031  63.470  1.00  0.00    -0.021 C  
ENDBRANCH  14  22
ENDBRANCH   2   7
TORSDOF 2
ENDMDL
MODEL       18
REMARK 921   NORMALIZED FREE ENERGY PREDICTED BY IDOCK:   -6.61 KCAL/MOL
REMARK 922        TOTAL FREE ENERGY PREDICTED BY IDOCK:   -7.45 KCAL/MOL
REMARK 923 INTER-LIGAND FREE ENERGY PREDICTED BY IDOCK:   -7.22 KCAL/MOL
REMARK 924 INTRA-LIGAND FREE ENERGY PREDICTED BY IDOCK:   -0.23 KCAL/MOL
REMARK 927      BINDING AFFINITY PREDICTED BY RF-SCORE:    0.00 PKD
ROOT
HETATM    1  N   UNL     1      -7.071  10.536  64.354  1.00  0.00    -0.350 N  
HETATM    2  S   UNL     1      -8.743  10.441  64.197  1.00  0.00    -0.194 S  
HETATM    3  H1  UNL     1      -6.842   9.871  65.092  1.00  0.00     0.000 HD 
HETATM    4  H2  UNL     1      -6.429  11.127  63.826  1.00  0.00     0.000 HD 
HETATM    5  O   UNL     1      -9.068  11.383  63.150  1.00  0.00    -0.230 OA 
HETATM    6  O   UNL     1      -9.084   9.043  64.101  1.00  0.00    -0.038 OA 
ENDROOT
BRANCH   2   7
HETATM    7  C   UNL     1      -9.326  11.078  65.733  1.00  0.00    -0.211 A  
HETATM    8  C   UNL     1      -9.008  10.442  66.935  1.00  0.00    -0.139 A  
HETATM    9  C   UNL     1      -9.455  10.990  68.138  1.00  0.00    -0.172 A  
HETATM   10 CL   UNL     1      -8.085   8.982  67.054  1.00  0.00    -0.105 Cl 
HETATM   11  C   UNL     1     -10.205  12.173  68.176  1.00  0.00    -0.203 A  
HETATM   12  N   UNL     1     -10.626  12.634  69.405  1.00  0.00    -0.414 NA 
HETATM   13  H   UNL     1     -10.360  12.093  70.227  1.00  0.00     0.000 HD 
HETATM   14  C   UNL     1     -11.416  13.829  69.617  1.00  0.00    -0.237 C  
HETATM   15  C   UNL     1     -10.137  12.228  65.743  1.00  0.00    -0.274 A  
HETATM   16  N   UNL     1     -12.410  13.942  68.564  1.00  0.00    -0.458 N  
HETATM   17  O   UNL     1     -10.844  15.322  67.118  1.00  0.00    -0.311 OA 
HETATM   18  S   UNL     1     -11.662  14.129  67.047  1.00  0.00    -0.422 S  
HETATM   19  H   UNL     1     -13.419  13.914  68.713  1.00  0.00     0.000 HD 
HETATM   20  C   UNL     1     -10.582  12.742  66.969  1.00  0.00    -0.240 A  
HETATM   21  O   UNL     1     -12.694  13.972  66.049  1.00  0.00    -0.475 OA 
BRANCH  14  22
HETATM   22  C   UNL     1     -12.034  13.848  71.060  1.00  0.00    -0.262 C  
HETATM   23  C   UNL     1     -13.532  14.277  70.934  1.00  0.00    -0.191 C  
HETATM   24  C   UNL     1     -13.540  15.679  71.592  1.00  0.00    -0.491 C  
HETATM   25  C   UNL     1     -12.099  16.197  71.594  1.00  0.00    -0.479 C  
HETATM   26  C   UNL     1     -11.530  14.880  72.124  1.00  0.00    -0.194 C  
HETATM   27  C   UNL     1     -12.413  14.853  73.381  1.00  0.00    -0.565 C  
HETATM   28  C   UNL     1     -13.612  15.380  73.068  1.00  0.00    -0.563 C  
ENDBRANCH  14  22
ENDBRANCH   2   7
TORSDOF 2
ENDMDL
MODEL       19
REMARK 921   NORMALIZED FREE ENERGY PREDICTED BY IDOCK:   -6.53 KCAL/MOL
REMARK 922        TOTAL FREE ENERGY PREDICTED BY IDOCK:   -7.37 KCAL/MOL
REMARK 923 INTER-LIGAND FREE ENERGY PREDICTED BY IDOCK:   -6.92 KCAL/MOL
REMARK 924 INTRA-LIGAND FREE ENERGY PREDICTED BY IDOCK:   -0.45 KCAL/MOL
REMARK 927      BINDING AFFINITY PREDICTED BY RF-SCORE:    0.00 PKD
ROOT
HETATM    1  N   UNL     1      -9.628   6.187  71.680  1.00  0.00    -0.152 N  
HETATM    2  S   UNL     1     -10.945   7.078  72.228  1.00  0.00    -0.256 S  
HETATM    3  H1  UNL     1      -8.842   6.836  71.718  1.00  0.00     0.000 HD 
HETATM    4  H2  UNL     1      -9.617   5.213  71.377  1.00  0.00     0.000 HD 
HETATM    5  O   UNL     1     -12.058   6.158  72.175  1.00  0.00    -0.327 OA 
HETATM    6  O   UNL     1     -10.544   7.722  73.454  1.00  0.00    -0.348 OA 
ENDROOT
BRANCH   2   7
HETATM    7  C   UNL     1     -11.156   8.296  70.972  1.00  0.00    -0.251 A  
HETATM    8  C   UNL     1     -12.133   9.286  71.096  1.00  0.00    -0.316 A  
HETATM    9  C   UNL     1     -12.252  10.258  70.102  1.00  0.00    -0.251 A  
HETATM   10 CL   UNL     1     -13.243   9.403  72.419  1.00  0.00    -0.507 Cl 
HETATM   11  C   UNL     1     -11.407  10.277  68.984  1.00  0.00    -0.180 A  
HETATM   12  N   UNL     1     -11.607  11.258  68.037  1.00  0.00    -0.490 NA 
HETATM   13  H   UNL     1     -12.357  11.929  68.205  1.00  0.00     0.000 HD 
HETATM   14  C   UNL     1     -10.833  11.410  66.823  1.00  0.00    -0.286 C  
HETATM   15  C   UNL     1     -10.343   8.254  69.824  1.00  0.00    -0.216 A  
HETATM   16  N   UNL     1     -10.540  10.098  66.271  1.00  0.00    -0.109 N  
HETATM   17  O   UNL     1      -8.356   9.952  67.558  1.00  0.00    -0.114 OA 
HETATM   18  S   UNL     1      -9.573   9.197  67.343  1.00  0.00    -0.159 S  
HETATM   19  H   UNL     1     -10.868   9.763  65.365  1.00  0.00     0.000 HD 
HETATM   20  C   UNL     1     -10.501   9.237  68.837  1.00  0.00    -0.215 A  
HETATM   21  O   UNL     1      -9.549   7.841  66.845  1.00  0.00    -0.170 OA 
BRANCH  14  22
HETATM   22  C   UNL     1     -11.557  12.364  65.807  1.00  0.00    -0.449 C  
HETATM   23  C   UNL     1     -10.477  12.925  64.825  1.00  0.00    -0.371 C  
HETATM   24  C   UNL     1     -10.410  14.422  65.216  1.00  0.00    -0.427 C  
HETATM   25  C   UNL     1     -10.993  14.559  66.626  1.00  0.00    -0.321 C  
HETATM   26  C   UNL     1     -12.213  13.696  66.302  1.00  0.00    -0.484 C  
HETATM   27  C   UNL     1     -12.673  14.559  65.116  1.00  0.00    -0.177 C  
HETATM   28  C   UNL     1     -11.580  15.035  64.491  1.00  0.00    -0.346 C  
ENDBRANCH  14  22
ENDBRANCH   2   7
TORSDOF 2
ENDMDL
MODEL       20
REMARK 921   NORMALIZED FREE ENERGY PREDICTED BY IDOCK:   -6.52 KCAL/MOL
REMARK 922        TOTAL FREE ENERGY PREDICTED BY IDOCK:   -7.35 KCAL/MOL
REMARK 923 INTER-LIGAND FREE ENERGY PREDICTED BY IDOCK:   -7.31 KCAL/MOL
REMARK 924 INTRA-LIGAND FREE ENERGY PREDICTED BY IDOCK:   -0.04 KCAL/MOL
REMARK 927      BINDING AFFINITY PREDICTED BY RF-SCORE:    0.00 PKD
ROOT
HETATM    1  N   UNL     1     -10.832  18.892  67.260  1.00  0.00    -0.443 N  
HETATM    2  S   UNL     1     -10.085  18.061  66.004  1.00  0.00    -0.197 S  
HETATM    3  H1  UNL     1     -10.230  18.736  68.068  1.00  0.00     0.000 HD 
HETATM    4  H2  UNL     1     -11.696  19.433  67.223  1.00  0.00     0.000 HD 
HETATM    5  O   UNL     1     -10.939  18.282  64.858  1.00  0.00    -0.660 OA 
HETATM    6  O   UNL     1      -8.695  18.444  66.006  1.00  0.00    -0.499 OA 
ENDROOT
BRANCH   2   7
HETATM    7  C   UNL     1     -10.226  16.375  66.499  1.00  0.00    -0.304 A  
HETATM    8  C   UNL     1      -9.775  15.961  67.754  1.00  0.00    -0.220 A  
HETATM    9  C   UNL     1      -9.932  14.627  68.132  1.00  0.00    -0.224 A  
HETATM   10 CL   UNL     1      -9.008  16.999  68.908  1.00  0.00    -0.248 Cl 
HETATM   11  C   UNL     1     -10.544  13.690  67.290  1.00  0.00    -0.267 A  
HETATM   12  N   UNL     1     -10.640  12.388  67.730  1.00  0.00    -0.213 NA 
HETATM   13  H   UNL     1     -10.266  12.175  68.656  1.00  0.00     0.000 HD 
HETATM   14  C   UNL     1     -11.230  11.298  66.981  1.00  0.00    -0.255 C  
HETATM   15  C   UNL     1     -10.780  15.436  65.610  1.00  0.00    -0.381 A  
HETATM   16  N   UNL     1     -10.874  11.429  65.579  1.00  0.00    -0.253 N  
HETATM   17  O   UNL     1     -12.956  12.799  65.091  1.00  0.00    -0.768 OA 
HETATM   18  S   UNL     1     -11.519  12.862  64.926  1.00  0.00    -0.331 S  
HETATM   19  H   UNL     1     -10.315  10.755  65.057  1.00  0.00     0.000 HD 
HETATM   20  C   UNL     1     -10.908  14.101  66.016  1.00  0.00    -0.297 A  
HETATM   21  O   UNL     1     -10.910  13.042  63.628  1.00  0.00    -0.327 OA 
BRANCH  14  22
HETATM   22  C   UNL     1     -10.833   9.909  67.596  1.00  0.00    -0.318 C  
HETATM   23  C   UNL     1      -9.911  10.179  68.831  1.00  0.00    -0.207 C  
HETATM   24  C   UNL     1      -8.537   9.651  68.349  1.00  0.00    -0.119 C  
HETATM   25  C   UNL     1      -8.574   9.594  66.819  1.00  0.00    -0.140 C  
HETATM   26  C   UNL     1      -9.941   8.909  66.787  1.00  0.00    -0.338 C  
HETATM   27  C   UNL     1      -9.512   7.720  67.660  1.00  0.00    -0.168 C  
HETATM   28  C   UNL     1      -8.627   8.163  68.573  1.00  0.00    -0.130 C  
ENDBRANCH  14  22
ENDBRANCH   2   7
TORSDOF 2
ENDMDL
MODEL       21
REMARK 921   NORMALIZED FREE ENERGY PREDICTED BY IDOCK:   -6.49 KCAL/MOL
REMARK 922        TOTAL FREE ENERGY PREDICTED BY IDOCK:   -7.32 KCAL/MOL
REMARK 923 INTER-LIGAND FREE ENERGY PREDICTED BY IDOCK:   -6.86 KCAL/MOL
REMARK 924 INTRA-LIGAND FREE ENERGY PREDICTED BY IDOCK:   -0.46 KCAL/MOL
REMARK 927      BINDING AFFINITY PREDICTED BY RF-SCORE:    0.00 PKD
ROOT
HETATM    1  N   UNL     1     -11.234   9.232  69.123  1.00  0.00    -0.442 N  
HETATM    2  S   UNL     1      -9.565   9.382  68.981  1.00  0.00    -0.169 S  
HETATM    3  H1  UNL     1     -11.593   9.437  68.191  1.00  0.00     0.000 HD 
HETATM    4  H2  UNL     1     -11.768   8.988  69.957  1.00  0.00     0.000 HD 
HETATM    5  O   UNL     1      -9.056   9.091  70.302  1.00  0.00    -0.169 OA 
HETATM    6  O   UNL     1      -9.165   8.622  67.823  1.00  0.00    -0.134 OA 
ENDROOT
BRANCH   2   7
HETATM    7  C   UNL     1      -9.344  11.100  68.654  1.00  0.00    -0.184 A  
HETATM    8  C   UNL     1      -8.064  11.637  68.498  1.00  0.00    -0.145 A  
HETATM    9  C   UNL     1      -7.923  12.994  68.205  1.00  0.00    -0.154 A  
HETATM   10 CL   UNL     1      -6.599  10.729  68.650  1.00  0.00    -0.055 Cl 
HETATM   11  C   UNL     1      -9.034  13.834  68.049  1.00  0.00    -0.187 A  
HETATM   12  N   UNL     1      -8.806  15.167  67.782  1.00  0.00    -0.167 NA 
HETATM   13  H   UNL     1      -7.835  15.472  67.702  1.00  0.00     0.000 HD 
HETATM   14  C   UNL     1      -9.838  16.167  67.606  1.00  0.00    -0.236 C  
HETATM   15  C   UNL     1     -10.470  11.939  68.572  1.00  0.00    -0.240 A  
HETATM   16  N   UNL     1     -10.912  15.923  68.554  1.00  0.00    -0.306 N  
HETATM   17  O   UNL     1     -12.154  14.454  66.896  1.00  0.00    -0.425 OA 
HETATM   18  S   UNL     1     -11.649  14.419  68.253  1.00  0.00    -0.343 S  
HETATM   19  H   UNL     1     -11.187  16.565  69.297  1.00  0.00     0.000 HD 
HETATM   20  C   UNL     1     -10.291  13.301  68.292  1.00  0.00    -0.249 A  
HETATM   21  O   UNL     1     -12.512  14.143  69.379  1.00  0.00    -0.277 OA 
BRANCH  14  22
HETATM   22  C   UNL     1      -9.242  17.617  67.702  1.00  0.00    -0.245 C  
HETATM   23  C   UNL     1     -10.276  18.510  68.462  1.00  0.00    -0.389 C  
HETATM   24  C   UNL     1     -10.777  19.467  67.352  1.00  0.00    -0.594 C  
HETATM   25  C   UNL     1     -10.455  18.819  66.002  1.00  0.00    -0.483 C  
HETATM   26  C   UNL     1      -9.023  18.471  66.409  1.00  0.00    -0.276 C  
HETATM   27  C   UNL     1      -8.632  19.915  66.759  1.00  0.00    -0.394 C  
HETATM   28  C   UNL     1      -9.709  20.528  67.286  1.00  0.00    -0.600 C  
ENDBRANCH  14  22
ENDBRANCH   2   7
TORSDOF 2
ENDMDL
MODEL       22
REMARK 921   NORMALIZED FREE ENERGY PREDICTED BY IDOCK:   -6.48 KCAL/MOL
REMARK 922        TOTAL FREE ENERGY PREDICTED BY IDOCK:   -7.31 KCAL/MOL
REMARK 923 INTER-LIGAND FREE ENERGY PREDICTED BY IDOCK:   -7.52 KCAL/MOL
REMARK 924 INTRA-LIGAND FREE ENERGY PREDICTED BY IDOCK:    0.21 KCAL/MOL
REMARK 927      BINDING AFFINITY PREDICTED BY RF-SCORE:    0.00 PKD
ROOT
HETATM    1  N   UNL     1     -10.667  14.980  70.582  1.00  0.00    -0.528 N  
HETATM    2  S   UNL     1     -11.997  14.625  69.616  1.00  0.00    -0.324 S  
HETATM    3  H1  UNL     1      -9.867  14.923  69.953  1.00  0.00     0.000 HD 
HETATM    4  H2  UNL     1     -10.662  15.203  71.578  1.00  0.00     0.000 HD 
HETATM    5  O   UNL     1     -13.131  14.706  70.508  1.00  0.00    -0.334 OA 
HETATM    6  O   UNL     1     -11.895  15.443  68.433  1.00  0.00    -0.347 OA 
ENDROOT
BRANCH   2   7
HETATM    7  C   UNL     1     -11.737  12.937  69.181  1.00  0.00    -0.324 A  
HETATM    8  C   UNL     1     -11.622  12.556  67.842  1.00  0.00    -0.347 A  
HETATM    9  C   UNL     1     -11.381  11.217  67.531  1.00  0.00    -0.360 A  
HETATM   10 CL   UNL     1     -11.768  13.641  66.502  1.00  0.00    -0.387 Cl 
HETATM   11  C   UNL     1     -11.236  10.243  68.527  1.00  0.00    -0.214 A  
HETATM   12  N   UNL     1     -11.022   8.939  68.133  1.00  0.00    -0.473 NA 
HETATM   13  H   UNL     1     -10.970   8.753  67.131  1.00  0.00     0.000 HD 
HETATM   14  C   UNL     1     -10.864   7.815  69.032  1.00  0.00    -0.021 C  
HETATM   15  C   UNL     1     -11.665  11.964  70.195  1.00  0.00    -0.337 A  
HETATM   16  N   UNL     1     -11.783   7.958  70.148  1.00  0.00    -0.466 N  
HETATM   17  O   UNL     1     -10.051   9.208  71.523  1.00  0.00    -0.319 OA 
HETATM   18  S   UNL     1     -11.414   9.349  71.056  1.00  0.00    -0.363 S  
HETATM   19  H   UNL     1     -12.544   7.312  70.359  1.00  0.00     0.000 HD 
HETATM   20  C   UNL     1     -11.437  10.626  69.845  1.00  0.00    -0.317 A  
HETATM   21  O   UNL     1     -12.514   9.556  71.970  1.00  0.00    -0.371 OA 
BRANCH  14  22
HETATM   22  C   UNL     1     -11.023   6.454  68.266  1.00  0.00    -0.396 C  
HETATM   23  C   UNL     1     -10.331   5.341  69.120  1.00  0.00    -0.264 C  
HETATM   24  C   UNL     1      -9.103   4.964  68.253  1.00  0.00    -0.138 C  
HETATM   25  C   UNL     1      -8.847   6.123  67.285  1.00  0.00    -0.107 C  
HETATM   26  C   UNL     1     -10.319   6.234  66.886  1.00  0.00    -0.306 C  
HETATM   27  C   UNL     1     -10.441   4.772  66.429  1.00  0.00    -0.283 C  
HETATM   28  C   UNL     1      -9.667   4.013  67.229  1.00  0.00    -0.199 C  
ENDBRANCH  14  22
ENDBRANCH   2   7
TORSDOF 2
ENDMDL
MODEL       23
REMARK 921   NORMALIZED FREE ENERGY PREDICTED BY IDOCK:   -6.47 KCAL/MOL
REMARK 922        TOTAL FREE ENERGY PREDICTED BY IDOCK:   -7.29 KCAL/MOL
REMARK 923 INTER-LIGAND FREE ENERGY PREDICTED BY IDOCK:   -7.13 KCAL/MOL
REMARK 924 INTRA-LIGAND FREE ENERGY PREDICTED BY IDOCK:   -0.16 KCAL/MOL
REMARK 927      BINDING AFFINITY PREDICTED BY RF-SCORE:    0.00 PKD
ROOT
HETATM    1  N   UNL     1     -11.561  12.737  63.167  1.00  0.00    -0.817 N  
HETATM    2  S   UNL     1     -11.651  12.586  64.839  1.00  0.00    -0.357 S  
HETATM    3  H1  UNL     1     -10.584  12.549  62.942  1.00  0.00     0.000 HD 
HETATM    4  H2  UNL     1     -12.316  12.965  62.520  1.00  0.00     0.000 HD 
HETATM    5  O   UNL     1     -13.035  12.852  65.158  1.00  0.00    -0.758 OA 
HETATM    6  O   UNL     1     -11.010  11.343  65.191  1.00  0.00    -0.267 OA 
ENDROOT
BRANCH   2   7
HETATM    7  C   UNL     1     -10.668  13.931  65.416  1.00  0.00    -0.325 A  
HETATM    8  C   UNL     1     -10.974  15.245  65.052  1.00  0.00    -0.437 A  
HETATM    9  C   UNL     1     -10.199  16.291  65.553  1.00  0.00    -0.326 A  
HETATM   10 CL   UNL     1     -12.269  15.689  63.993  1.00  0.00    -0.088 Cl 
HETATM   11  C   UNL     1      -9.126  16.062  66.425  1.00  0.00    -0.319 A  
HETATM   12  N   UNL     1      -8.398  17.150  66.856  1.00  0.00    -0.210 NA 
HETATM   13  H   UNL     1      -8.684  18.070  66.523  1.00  0.00     0.000 HD 
HETATM   14  C   UNL     1      -7.256  17.086  67.745  1.00  0.00    -0.152 C  
HETATM   15  C   UNL     1      -9.553  13.673  66.234  1.00  0.00    -0.254 A  
HETATM   16  N   UNL     1      -6.453  15.922  67.415  1.00  0.00    -0.175 N  
HETATM   17  O   UNL     1      -7.727  14.469  69.062  1.00  0.00    -0.130 OA 
HETATM   18  S   UNL     1      -7.336  14.489  67.668  1.00  0.00    -0.190 S  
HETATM   19  H   UNL     1      -5.491  15.958  67.078  1.00  0.00     0.000 HD 
HETATM   20  C   UNL     1      -8.786  14.747  66.707  1.00  0.00    -0.252 A  
HETATM   21  O   UNL     1      -6.570  13.416  67.077  1.00  0.00    -0.082 OA 
BRANCH  14  22
HETATM   22  C   UNL     1      -6.445  18.430  67.720  1.00  0.00    -0.205 C  
HETATM   23  C   UNL     1      -5.458  18.415  68.933  1.00  0.00    -0.198 C  
HETATM   24  C   UNL     1      -6.040  19.514  69.856  1.00  0.00    -0.329 C  
HETATM   25  C   UNL     1      -7.500  19.736  69.449  1.00  0.00    -0.139 C  
HETATM   26  C   UNL     1      -7.168  19.797  67.957  1.00  0.00    -0.321 C  
HETATM   27  C   UNL     1      -6.154  20.943  68.096  1.00  0.00    -0.395 C  
HETATM   28  C   UNL     1      -5.506  20.795  69.267  1.00  0.00    -0.408 C  
ENDBRANCH  14  22
ENDBRANCH   2   7
TORSDOF 2
ENDMDL
MODEL       24
REMARK 921   NORMALIZED FREE ENERGY PREDICTED BY IDOCK:   -6.43 KCAL/MOL
REMARK 922        TOTAL FREE ENERGY PREDICTED BY IDOCK:   -7.25 KCAL/MOL
REMARK 923 INTER-LIGAND FREE ENERGY PREDICTED BY IDOCK:   -7.05 KCAL/MOL
REMARK 924 INTRA-LIGAND FREE ENERGY PREDICTED BY IDOCK:   -0.19 KCAL/MOL
REMARK 927      BINDING AFFINITY PREDICTED BY RF-SCORE:    0.00 PKD
ROOT
HETATM    1  N   UNL     1     -10.687  18.370  67.372  1.00  0.00    -0.407 N  
HETATM    2  S   UNL     1      -9.979  17.788  65.962  1.00  0.00    -0.146 S  
HETATM    3  H1  UNL     1      -9.964  18.273  68.084  1.00  0.00     0.000 HD 
HETATM    4  H2  UNL     1     -11.630  18.740  67.488  1.00  0.00     0.000 HD 
HETATM    5  O   UNL     1     -11.004  17.926  64.952  1.00  0.00    -0.827 OA 
HETATM    6  O   UNL     1      -8.691  18.424  65.836  1.00  0.00    -0.497 OA 
ENDROOT
BRANCH   2   7
HETATM    7  C   UNL     1      -9.751  16.074  66.307  1.00  0.00    -0.306 A  
HETATM    8  C   UNL     1      -8.841  15.659  67.282  1.00  0.00    -0.198 A  
HETATM    9  C   UNL     1      -8.707  14.298  67.558  1.00  0.00    -0.204 A  
HETATM   10 CL   UNL     1      -7.831  16.728  68.195  1.00  0.00    -0.176 Cl 
HETATM   11  C   UNL     1      -9.474  13.332  66.891  1.00  0.00    -0.249 A  
HETATM   12  N   UNL     1      -9.264  12.007  67.208  1.00  0.00    -0.177 NA 
HETATM   13  H   UNL     1      -8.565  11.798  67.921  1.00  0.00     0.000 HD 
HETATM   14  C   UNL     1      -9.960  10.889  66.605  1.00  0.00    -0.208 C  
HETATM   15  C   UNL     1     -10.479  15.118  65.577  1.00  0.00    -0.400 A  
HETATM   16  N   UNL     1     -10.142  11.143  65.187  1.00  0.00    -0.264 N  
HETATM   17  O   UNL     1     -12.398  12.240  65.586  1.00  0.00    -0.619 OA 
HETATM   18  S   UNL     1     -11.129  12.507  64.941  1.00  0.00    -0.312 S  
HETATM   19  H   UNL     1      -9.735  10.580  64.440  1.00  0.00     0.000 HD 
HETATM   20  C   UNL     1     -10.309  13.757  65.869  1.00  0.00    -0.309 A  
HETATM   21  O   UNL     1     -11.044  12.838  63.537  1.00  0.00    -0.433 OA 
BRANCH  14  22
HETATM   22  C   UNL     1      -9.222   9.536  66.906  1.00  0.00    -0.174 C  
HETATM   23  C   UNL     1     -10.305   8.413  67.006  1.00  0.00    -0.385 C  
HETATM   24  C   UNL     1     -10.269   8.041  68.509  1.00  0.00    -0.231 C  
HETATM   25  C   UNL     1      -9.622   9.208  69.260  1.00  0.00    -0.159 C  
HETATM   26  C   UNL     1      -8.469   9.328  68.262  1.00  0.00    -0.120 C  
HETATM   27  C   UNL     1      -8.007   7.872  68.420  1.00  0.00    -0.122 C  
HETATM   28  C   UNL     1      -9.095   7.102  68.617  1.00  0.00    -0.133 C  
ENDBRANCH  14  22
ENDBRANCH   2   7
TORSDOF 2
ENDMDL
MODEL       25
REMARK 921   NORMALIZED FREE ENERGY PREDICTED BY IDOCK:   -6.41 KCAL/MOL
REMARK 922        TOTAL FREE ENERGY PREDICTED BY IDOCK:   -7.23 KCAL/MOL
REMARK 923 INTER-LIGAND FREE ENERGY PREDICTED BY IDOCK:   -6.99 KCAL/MOL
REMARK 924 INTRA-LIGAND FREE ENERGY PREDICTED BY IDOCK:   -0.24 KCAL/MOL
REMARK 927      BINDING AFFINITY PREDICTED BY RF-SCORE:    0.00 PKD
ROOT
HETATM    1  N   UNL     1     -12.670  14.431  69.611  1.00  0.00    -0.505 N  
HETATM    2  S   UNL     1     -11.560  14.205  68.368  1.00  0.00    -0.338 S  
HETATM    3  H1  UNL     1     -12.162  14.186  70.460  1.00  0.00     0.000 HD 
HETATM    4  H2  UNL     1     -13.638  14.743  69.531  1.00  0.00     0.000 HD 
HETATM    5  O   UNL     1     -12.280  14.552  67.164  1.00  0.00    -0.355 OA 
HETATM    6  O   UNL     1     -10.345  14.881  68.754  1.00  0.00    -0.230 OA 
ENDROOT
BRANCH   2   7
HETATM    7  C   UNL     1     -11.288  12.464  68.385  1.00  0.00    -0.285 A  
HETATM    8  C   UNL     1     -10.820  11.804  67.246  1.00  0.00    -0.253 A  
HETATM    9  C   UNL     1     -10.581  10.431  67.301  1.00  0.00    -0.322 A  
HETATM   10 CL   UNL     1     -10.513  12.576  65.728  1.00  0.00    -0.287 Cl 
HETATM   11  C   UNL     1     -10.785   9.693  68.475  1.00  0.00    -0.200 A  
HETATM   12  N   UNL     1     -10.546   8.336  68.437  1.00  0.00    -0.381 NA 
HETATM   13  H   UNL     1     -10.222   7.939  67.555  1.00  0.00     0.000 HD 
HETATM   14  C   UNL     1     -10.718   7.431  69.554  1.00  0.00    -0.224 C  
HETATM   15  C   UNL     1     -11.566  11.731  69.554  1.00  0.00    -0.398 A  
HETATM   16  N   UNL     1     -11.906   7.808  70.301  1.00  0.00    -0.479 N  
HETATM   17  O   UNL     1     -10.566   9.328  71.831  1.00  0.00    -0.324 OA 
HETATM   18  S   UNL     1     -11.729   9.363  70.969  1.00  0.00    -0.345 S  
HETATM   19  H   UNL     1     -12.733   7.221  70.410  1.00  0.00     0.000 HD 
HETATM   20  C   UNL     1     -11.329  10.350  69.569  1.00  0.00    -0.265 A  
HETATM   21  O   UNL     1     -13.029   9.758  71.461  1.00  0.00    -0.350 OA 
BRANCH  14  22
HETATM   22  C   UNL     1     -10.734   5.937  69.073  1.00  0.00    -0.379 C  
HETATM   23  C   UNL     1     -10.328   5.039  70.288  1.00  0.00    -0.299 C  
HETATM   24  C   UNL     1      -8.938   4.504  69.864  1.00  0.00    -0.145 C  
HETATM   25  C   UNL     1      -8.395   5.436  68.776  1.00  0.00    -0.097 C  
HETATM   26  C   UNL     1      -9.711   5.440  67.997  1.00  0.00    -0.169 C  
HETATM   27  C   UNL     1      -9.774   3.913  67.839  1.00  0.00    -0.133 C  
HETATM   28  C   UNL     1      -9.262   3.351  68.950  1.00  0.00    -0.229 C  
ENDBRANCH  14  22
ENDBRANCH   2   7
TORSDOF 2
ENDMDL
MODEL       26
REMARK 921   NORMALIZED FREE ENERGY PREDICTED BY IDOCK:   -6.40 KCAL/MOL
REMARK 922        TOTAL FREE ENERGY PREDICTED BY IDOCK:   -7.22 KCAL/MOL
REMARK 923 INTER-LIGAND FREE ENERGY PREDICTED BY IDOCK:   -6.78 KCAL/MOL
REMARK 924 INTRA-LIGAND FREE ENERGY PREDICTED BY IDOCK:   -0.44 KCAL/MOL
REMARK 927      BINDING AFFINITY PREDICTED BY RF-SCORE:    0.00 PKD
ROOT
HETATM    1  N   UNL     1     -13.539  14.110  72.761  1.00  0.00    -0.496 N  
HETATM    2  S   UNL     1     -12.969  14.913  71.397  1.00  0.00    -0.388 S  
HETATM    3  H1  UNL     1     -12.700  13.769  73.230  1.00  0.00     0.000 HD 
HETATM    4  H2  UNL     1     -14.509  13.991  73.054  1.00  0.00     0.000 HD 
HETATM    5  O   UNL     1     -14.158  15.396  70.732  1.00  0.00    -0.338 OA 
HETATM    6  O   UNL     1     -11.921  15.802  71.832  1.00  0.00    -0.375 OA 
ENDROOT
BRANCH   2   7
HETATM    7  C   UNL     1     -12.268  13.615  70.432  1.00  0.00    -0.363 A  
HETATM    8  C   UNL     1     -11.761  13.870  69.156  1.00  0.00    -0.338 A  
HETATM    9  C   UNL     1     -11.180  12.829  68.431  1.00  0.00    -0.313 A  
HETATM   10 CL   UNL     1     -11.804  15.415  68.378  1.00  0.00    -0.330 Cl 
HETATM   11  C   UNL     1     -11.078  11.533  68.954  1.00  0.00    -0.232 A  
HETATM   12  N   UNL     1     -10.510  10.557  68.163  1.00  0.00    -0.174 NA 
HETATM   13  H   UNL     1     -10.183  10.833  67.236  1.00  0.00     0.000 HD 
HETATM   14  C   UNL     1     -10.342   9.171  68.545  1.00  0.00    -0.207 C  
HETATM   15  C   UNL     1     -12.240  12.306  70.949  1.00  0.00    -0.296 A  
HETATM   16  N   UNL     1     -11.509   8.731  69.290  1.00  0.00    -0.189 N  
HETATM   17  O   UNL     1     -10.455   9.396  71.502  1.00  0.00    -0.337 OA 
HETATM   18  S   UNL     1     -11.666   9.611  70.738  1.00  0.00    -0.322 S  
HETATM   19  H   UNL     1     -12.148   7.996  68.986  1.00  0.00     0.000 HD 
HETATM   20  C   UNL     1     -11.663  11.281  70.186  1.00  0.00    -0.343 A  
HETATM   21  O   UNL     1     -12.970   9.301  71.277  1.00  0.00    -0.323 OA 
BRANCH  14  22
HETATM   22  C   UNL     1     -10.027   8.274  67.296  1.00  0.00    -0.289 C  
HETATM   23  C   UNL     1     -11.009   7.057  67.321  1.00  0.00    -0.372 C  
HETATM   24  C   UNL     1     -10.065   5.868  67.626  1.00  0.00    -0.194 C  
HETATM   25  C   UNL     1      -8.784   6.439  68.241  1.00  0.00    -0.116 C  
HETATM   26  C   UNL     1      -8.654   7.532  67.178  1.00  0.00    -0.121 C  
HETATM   27  C   UNL     1      -8.652   6.558  65.989  1.00  0.00    -0.150 C  
HETATM   28  C   UNL     1      -9.469   5.530  66.283  1.00  0.00    -0.171 C  
ENDBRANCH  14  22
ENDBRANCH   2   7
TORSDOF 2
ENDMDL
MODEL       27
REMARK 921   NORMALIZED FREE ENERGY PREDICTED BY IDOCK:   -6.37 KCAL/MOL
REMARK 922        TOTAL FREE ENERGY PREDICTED BY IDOCK:   -7.18 KCAL/MOL
REMARK 923 INTER-LIGAND FREE ENERGY PREDICTED BY IDOCK:   -6.99 KCAL/MOL
REMARK 924 INTRA-LIGAND FREE ENERGY PREDICTED BY IDOCK:   -0.19 KCAL/MOL
REMARK 927      BINDING AFFINITY PREDICTED BY RF-SCORE:    0.00 PKD
ROOT
HETATM    1  N   UNL     1      -8.301  20.173  65.905  1.00  0.00    -0.541 N  
HETATM    2  S   UNL     1      -9.825  19.808  66.517  1.00  0.00    -0.471 S  
HETATM    3  H1  UNL     1      -8.213  19.598  65.068  1.00  0.00     0.000 HD 
HETATM    4  H2  UNL     1      -7.617  20.826  66.287  1.00  0.00     0.000 HD 
HETATM    5  O   UNL     1      -9.950  20.624  67.703  1.00  0.00    -0.402 OA 
HETATM    6  O   UNL     1     -10.758  19.904  65.422  1.00  0.00    -0.421 OA 
ENDROOT
BRANCH   2   7
HETATM    7  C   UNL     1      -9.668  18.121  67.002  1.00  0.00    -0.307 A  
HETATM    8  C   UNL     1      -8.791  17.752  68.025  1.00  0.00    -0.259 A  
HETATM    9  C   UNL     1      -8.715  16.414  68.411  1.00  0.00    -0.213 A  
HETATM   10 CL   UNL     1      -7.756  18.854  68.869  1.00  0.00    -0.350 Cl 
HETATM   11  C   UNL     1      -9.506  15.426  67.809  1.00  0.00    -0.204 A  
HETATM   12  N   UNL     1      -9.353  14.124  68.234  1.00  0.00    -0.199 NA 
HETATM   13  H   UNL     1      -8.675  13.948  68.975  1.00  0.00     0.000 HD 
HETATM   14  C   UNL     1     -10.081  12.988  67.710  1.00  0.00    -0.229 C  
HETATM   15  C   UNL     1     -10.421  17.136  66.336  1.00  0.00    -0.255 A  
HETATM   16  N   UNL     1     -10.230  13.133  66.272  1.00  0.00    -0.287 N  
HETATM   17  O   UNL     1     -12.448  14.341  66.538  1.00  0.00    -0.428 OA 
HETATM   18  S   UNL     1     -11.160  14.509  65.899  1.00  0.00    -0.334 S  
HETATM   19  H   UNL     1      -9.833  12.497  65.581  1.00  0.00     0.000 HD 
HETATM   20  C   UNL     1     -10.308  15.798  66.740  1.00  0.00    -0.293 A  
HETATM   21  O   UNL     1     -11.039  14.722  64.475  1.00  0.00    -0.336 OA 
BRANCH  14  22
HETATM   22  C   UNL     1      -9.401  11.637  68.132  1.00  0.00    -0.188 C  
HETATM   23  C   UNL     1      -9.659  10.596  66.994  1.00  0.00    -0.196 C  
HETATM   24  C   UNL     1     -10.627   9.592  67.667  1.00  0.00    -0.329 C  
HETATM   25  C   UNL     1     -11.262  10.296  68.870  1.00  0.00    -0.259 C  
HETATM   26  C   UNL     1      -9.924  10.840  69.372  1.00  0.00    -0.137 C  
HETATM   27  C   UNL     1      -9.251   9.462  69.468  1.00  0.00    -0.182 C  
HETATM   28  C   UNL     1      -9.714   8.695  68.463  1.00  0.00    -0.174 C  
ENDBRANCH  14  22
ENDBRANCH   2   7
TORSDOF 2
ENDMDL
MODEL       28
REMARK 921   NORMALIZED FREE ENERGY PREDICTED BY IDOCK:   -6.34 KCAL/MOL
REMARK 922        TOTAL FREE ENERGY PREDICTED BY IDOCK:   -7.15 KCAL/MOL
REMARK 923 INTER-LIGAND FREE ENERGY PREDICTED BY IDOCK:   -6.98 KCAL/MOL
REMARK 924 INTRA-LIGAND FREE ENERGY PREDICTED BY IDOCK:   -0.17 KCAL/MOL
REMARK 927      BINDING AFFINITY PREDICTED BY RF-SCORE:    0.00 PKD
ROOT
HETATM    1  N   UNL     1     -10.751  14.825  64.696  1.00  0.00    -0.606 N  
HETATM    2  S   UNL     1     -11.801  13.513  64.640  1.00  0.00    -0.415 S  
HETATM    3  H1  UNL     1      -9.824  14.421  64.565  1.00  0.00     0.000 HD 
HETATM    4  H2  UNL     1     -10.988  15.808  64.832  1.00  0.00     0.000 HD 
HETATM    5  O   UNL     1     -13.115  14.086  64.826  1.00  0.00    -0.632 OA 
HETATM    6  O   UNL     1     -11.461  12.745  63.468  1.00  0.00    -0.463 OA 
ENDROOT
BRANCH   2   7
HETATM    7  C   UNL     1     -11.373  12.596  66.083  1.00  0.00    -0.330 A  
HETATM    8  C   UNL     1     -11.489  13.168  67.352  1.00  0.00    -0.332 A  
HETATM    9  C   UNL     1     -11.176  12.404  68.477  1.00  0.00    -0.321 A  
HETATM   10 CL   UNL     1     -11.995  14.796  67.646  1.00  0.00    -0.324 Cl 
HETATM   11  C   UNL     1     -10.761  11.070  68.371  1.00  0.00    -0.203 A  
HETATM   12  N   UNL     1     -10.450  10.394  69.531  1.00  0.00    -0.236 NA 
HETATM   13  H   UNL     1     -10.548  10.900  70.411  1.00  0.00     0.000 HD 
HETATM   14  C   UNL     1      -9.996   9.021  69.595  1.00  0.00    -0.192 C  
HETATM   15  C   UNL     1     -10.891  11.281  65.949  1.00  0.00    -0.264 A  
HETATM   16  N   UNL     1      -9.088   8.761  68.492  1.00  0.00    -0.138 N  
HETATM   17  O   UNL     1     -10.990   7.986  66.998  1.00  0.00    -0.191 OA 
HETATM   18  S   UNL     1      -9.890   8.928  67.000  1.00  0.00    -0.238 S  
HETATM   19  H   UNL     1      -8.104   8.512  68.596  1.00  0.00     0.000 HD 
HETATM   20  C   UNL     1     -10.571  10.547  67.100  1.00  0.00    -0.264 A  
HETATM   21  O   UNL     1      -8.874   8.913  65.974  1.00  0.00    -0.150 OA 
BRANCH  14  22
HETATM   22  C   UNL     1      -9.375   8.697  71.001  1.00  0.00    -0.254 C  
HETATM   23  C   UNL     1      -8.577   7.358  70.874  1.00  0.00    -0.135 C  
HETATM   24  C   UNL     1      -9.425   6.377  71.721  1.00  0.00    -0.159 C  
HETATM   25  C   UNL     1     -10.828   6.975  71.855  1.00  0.00    -0.253 C  
HETATM   26  C   UNL     1     -10.300   8.363  72.218  1.00  0.00    -0.403 C  
HETATM   27  C   UNL     1      -9.477   7.879  73.422  1.00  0.00    -0.341 C  
HETATM   28  C   UNL     1      -8.988   6.658  73.136  1.00  0.00    -0.140 C  
ENDBRANCH  14  22
ENDBRANCH   2   7
TORSDOF 2
ENDMDL
MODEL       29
REMARK 921   NORMALIZED FREE ENERGY PREDICTED BY IDOCK:   -6.33 KCAL/MOL
REMARK 922        TOTAL FREE ENERGY PREDICTED BY IDOCK:   -7.14 KCAL/MOL
REMARK 923 INTER-LIGAND FREE ENERGY PREDICTED BY IDOCK:   -6.96 KCAL/MOL
REMARK 924 INTRA-LIGAND FREE ENERGY PREDICTED BY IDOCK:   -0.18 KCAL/MOL
REMARK 927      BINDING AFFINITY PREDICTED BY RF-SCORE:    0.00 PKD
ROOT
HETATM    1  N   UNL     1     -11.584  16.516  70.253  1.00  0.00    -0.375 N  
HETATM    2  S   UNL     1     -12.382  15.321  71.127  1.00  0.00    -0.402 S  
HETATM    3  H1  UNL     1     -12.081  16.564  69.364  1.00  0.00     0.000 HD 
HETATM    4  H2  UNL     1     -10.780  17.071  70.548  1.00  0.00     0.000 HD 
HETATM    5  O   UNL     1     -11.677  15.254  72.386  1.00  0.00    -0.414 OA 
HETATM    6  O   UNL     1     -13.793  15.611  71.055  1.00  0.00    -0.567 OA 
ENDROOT
BRANCH   2   7
HETATM    7  C   UNL     1     -12.041  13.857  70.206  1.00  0.00    -0.353 A  
HETATM    8  C   UNL     1     -12.442  12.607  70.682  1.00  0.00    -0.239 A  
HETATM    9  C   UNL     1     -12.189  11.469  69.914  1.00  0.00    -0.328 A  
HETATM   10 CL   UNL     1     -13.243  12.348  72.194  1.00  0.00    -0.572 Cl 
HETATM   11  C   UNL     1     -11.553  11.548  68.668  1.00  0.00    -0.313 A  
HETATM   12  N   UNL     1     -11.321  10.374  67.984  1.00  0.00    -0.542 NA 
HETATM   13  H   UNL     1     -11.635   9.506  68.419  1.00  0.00     0.000 HD 
HETATM   14  C   UNL     1     -10.667  10.279  66.696  1.00  0.00    -0.113 C  
HETATM   15  C   UNL     1     -11.339  13.952  68.991  1.00  0.00    -0.324 A  
HETATM   16  N   UNL     1      -9.570  11.229  66.641  1.00  0.00    -0.192 N  
HETATM   17  O   UNL     1     -11.068  13.033  65.667  1.00  0.00    -0.274 OA 
HETATM   18  S   UNL     1     -10.148  12.824  66.765  1.00  0.00    -0.240 S  
HETATM   19  H   UNL     1      -8.587  10.975  66.541  1.00  0.00     0.000 HD 
HETATM   20  C   UNL     1     -11.088  12.787  68.252  1.00  0.00    -0.257 A  
HETATM   21  O   UNL     1      -8.996  13.673  66.964  1.00  0.00    -0.227 OA 
BRANCH  14  22
HETATM   22  C   UNL     1     -10.228   8.802  66.393  1.00  0.00    -0.256 C  
HETATM   23  C   UNL     1     -10.309   7.996  67.731  1.00  0.00    -0.294 C  
HETATM   24  C   UNL     1      -8.819   7.710  68.044  1.00  0.00    -0.127 C  
HETATM   25  C   UNL     1      -7.978   8.716  67.252  1.00  0.00    -0.101 C  
HETATM   26  C   UNL     1      -8.758   8.486  65.957  1.00  0.00    -0.188 C  
HETATM   27  C   UNL     1      -8.506   6.971  65.920  1.00  0.00    -0.151 C  
HETATM   28  C   UNL     1      -8.496   6.513  67.187  1.00  0.00    -0.112 C  
ENDBRANCH  14  22
ENDBRANCH   2   7
TORSDOF 2
ENDMDL
MODEL       30
REMARK 921   NORMALIZED FREE ENERGY PREDICTED BY IDOCK:   -6.32 KCAL/MOL
REMARK 922        TOTAL FREE ENERGY PREDICTED BY IDOCK:   -7.13 KCAL/MOL
REMARK 923 INTER-LIGAND FREE ENERGY PREDICTED BY IDOCK:   -7.14 KCAL/MOL
REMARK 924 INTRA-LIGAND FREE ENERGY PREDICTED BY IDOCK:    0.01 KCAL/MOL
REMARK 927      BINDING AFFINITY PREDICTED BY RF-SCORE:    0.00 PKD
ROOT
HETATM    1  N   UNL     1     -10.854  14.797  64.418  1.00  0.00    -0.592 N  
HETATM    2  S   UNL     1     -12.128  13.704  64.523  1.00  0.00    -0.419 S  
HETATM    3  H1  UNL     1     -10.200  14.372  63.762  1.00  0.00     0.000 HD 
HETATM    4  H2  UNL     1     -10.758  15.689  64.904  1.00  0.00     0.000 HD 
HETATM    5  O   UNL     1     -13.055  14.307  65.453  1.00  0.00    -0.685 OA 
HETATM    6  O   UNL     1     -12.510  13.364  63.175  1.00  0.00    -0.710 OA 
ENDROOT
BRANCH   2   7
HETATM    7  C   UNL     1     -11.388  12.300  65.290  1.00  0.00    -0.338 A  
HETATM    8  C   UNL     1     -10.575  11.432  64.556  1.00  0.00    -0.328 A  
HETATM    9  C   UNL     1      -9.975  10.350  65.199  1.00  0.00    -0.390 A  
HETATM   10 CL   UNL     1     -10.251  11.595  62.864  1.00  0.00    -0.257 Cl 
HETATM   11  C   UNL     1     -10.154  10.114  66.569  1.00  0.00    -0.234 A  
HETATM   12  N   UNL     1      -9.543   9.009  67.122  1.00  0.00    -0.158 NA 
HETATM   13  H   UNL     1      -8.982   8.422  66.504  1.00  0.00     0.000 HD 
HETATM   14  C   UNL     1      -9.637   8.617  68.513  1.00  0.00    -0.154 C  
HETATM   15  C   UNL     1     -11.638  12.042  66.650  1.00  0.00    -0.389 A  
HETATM   16  N   UNL     1     -10.988   8.853  68.990  1.00  0.00    -0.432 N  
HETATM   17  O   UNL     1     -10.394  11.198  69.765  1.00  0.00     0.002 OA 
HETATM   18  S   UNL     1     -11.363  10.512  68.936  1.00  0.00    -0.230 S  
HETATM   19  H   UNL     1     -11.625   8.125  69.314  1.00  0.00     0.000 HD 
HETATM   20  C   UNL     1     -11.031  10.936  67.261  1.00  0.00    -0.294 A  
HETATM   21  O   UNL     1     -12.784  10.628  69.172  1.00  0.00    -0.160 OA 
BRANCH  14  22
HETATM   22  C   UNL     1      -9.156   7.136  68.715  1.00  0.00    -0.134 C  
HETATM   23  C   UNL     1      -8.402   6.696  67.417  1.00  0.00    -0.121 C  
HETATM   24  C   UNL     1      -9.359   5.639  66.812  1.00  0.00    -0.139 C  
HETATM   25  C   UNL     1     -10.745   5.865  67.423  1.00  0.00    -0.370 C  
HETATM   26  C   UNL     1     -10.198   5.975  68.847  1.00  0.00    -0.246 C  
HETATM   27  C   UNL     1      -9.504   4.604  68.827  1.00  0.00    -0.214 C  
HETATM   28  C   UNL     1      -9.039   4.384  67.583  1.00  0.00    -0.145 C  
ENDBRANCH  14  22
ENDBRANCH   2   7
TORSDOF 2
ENDMDL
MODEL       31
REMARK 921   NORMALIZED FREE ENERGY PREDICTED BY IDOCK:   -6.28 KCAL/MOL
REMARK 922        TOTAL FREE ENERGY PREDICTED BY IDOCK:   -7.09 KCAL/MOL
REMARK 923 INTER-LIGAND FREE ENERGY PREDICTED BY IDOCK:   -7.16 KCAL/MOL
REMARK 924 INTRA-LIGAND FREE ENERGY PREDICTED BY IDOCK:    0.07 KCAL/MOL
REMARK 927      BINDING AFFINITY PREDICTED BY RF-SCORE:    0.00 PKD
ROOT
HETATM    1  N   UNL     1     -10.784  11.707  64.586  1.00  0.00    -0.299 N  
HETATM    2  S   UNL     1     -11.884  12.345  65.688  1.00  0.00    -0.360 S  
HETATM    3  H1  UNL     1      -9.937  11.544  65.130  1.00  0.00     0.000 HD 
HETATM    4  H2  UNL     1     -10.933  11.524  63.594  1.00  0.00     0.000 HD 
HETATM    5  O   UNL     1     -13.084  12.577  64.918  1.00  0.00    -0.833 OA 
HETATM    6  O   UNL     1     -11.872  11.487  66.847  1.00  0.00    -0.542 OA 
ENDROOT
BRANCH   2   7
HETATM    7  C   UNL     1     -11.171  13.902  66.109  1.00  0.00    -0.303 A  
HETATM    8  C   UNL     1     -11.318  15.005  65.265  1.00  0.00    -0.349 A  
HETATM    9  C   UNL     1     -10.773  16.232  65.642  1.00  0.00    -0.297 A  
HETATM   10 CL   UNL     1     -12.140  14.966  63.742  1.00  0.00     0.033 Cl 
HETATM   11  C   UNL     1     -10.090  16.394  66.855  1.00  0.00    -0.281 A  
HETATM   12  N   UNL     1      -9.563  17.635  67.141  1.00  0.00    -0.271 NA 
HETATM   13  H   UNL     1      -9.706  18.377  66.456  1.00  0.00     0.000 HD 
HETATM   14  C   UNL     1      -8.822  17.966  68.340  1.00  0.00    -0.289 C  
HETATM   15  C   UNL     1     -10.429  14.024  67.298  1.00  0.00    -0.268 A  
HETATM   16  N   UNL     1      -7.958  16.854  68.695  1.00  0.00    -0.246 N  
HETATM   17  O   UNL     1      -9.748  15.824  70.172  1.00  0.00    -0.106 OA 
HETATM   18  S   UNL     1      -8.878  15.472  69.070  1.00  0.00    -0.258 S  
HETATM   19  H   UNL     1      -6.939  16.895  68.718  1.00  0.00     0.000 HD 
HETATM   20  C   UNL     1      -9.881  15.269  67.639  1.00  0.00    -0.217 A  
HETATM   21  O   UNL     1      -7.955  14.364  69.152  1.00  0.00    -0.103 OA 
BRANCH  14  22
HETATM   22  C   UNL     1      -8.051  19.323  68.171  1.00  0.00    -0.349 C  
HETATM   23  C   UNL     1      -8.584  20.017  66.875  1.00  0.00    -0.402 C  
HETATM   24  C   UNL     1      -7.367  19.931  65.920  1.00  0.00    -0.335 C  
HETATM   25  C   UNL     1      -6.445  18.826  66.445  1.00  0.00    -0.223 C  
HETATM   26  C   UNL     1      -6.512  19.331  67.887  1.00  0.00    -0.254 C  
HETATM   27  C   UNL     1      -6.018  20.747  67.553  1.00  0.00    -0.305 C  
HETATM   28  C   UNL     1      -6.498  21.088  66.342  1.00  0.00    -0.303 C  
ENDBRANCH  14  22
ENDBRANCH   2   7
TORSDOF 2
ENDMDL
MODEL       32
REMARK 921   NORMALIZED FREE ENERGY PREDICTED BY IDOCK:   -6.28 KCAL/MOL
REMARK 922        TOTAL FREE ENERGY PREDICTED BY IDOCK:   -7.08 KCAL/MOL
REMARK 923 INTER-LIGAND FREE ENERGY PREDICTED BY IDOCK:   -6.69 KCAL/MOL
REMARK 924 INTRA-LIGAND FREE ENERGY PREDICTED BY IDOCK:   -0.40 KCAL/MOL
REMARK 927      BINDING AFFINITY PREDICTED BY RF-SCORE:    0.00 PKD
ROOT
HETATM    1  N   UNL     1     -11.375   6.532  66.897  1.00  0.00    -0.817 N  
HETATM    2  S   UNL     1      -9.697   6.636  66.940  1.00  0.00    -0.171 S  
HETATM    3  H1  UNL     1     -11.633   6.885  65.976  1.00  0.00     0.000 HD 
HETATM    4  H2  UNL     1     -11.997   6.191  67.630  1.00  0.00     0.000 HD 
HETATM    5  O   UNL     1      -9.331   6.136  68.246  1.00  0.00    -0.118 OA 
HETATM    6  O   UNL     1      -9.201   6.039  65.726  1.00  0.00    -0.120 OA 
ENDROOT
BRANCH   2   7
HETATM    7  C   UNL     1      -9.403   8.374  66.897  1.00  0.00    -0.174 A  
HETATM    8  C   UNL     1      -8.113   8.874  66.700  1.00  0.00    -0.107 A  
HETATM    9  C   UNL     1      -7.917  10.253  66.635  1.00  0.00    -0.116 A  
HETATM   10 CL   UNL     1      -6.699   7.890  66.534  1.00  0.00    -0.057 Cl 
HETATM   11  C   UNL     1      -8.983  11.156  66.748  1.00  0.00    -0.165 A  
HETATM   12  N   UNL     1      -8.700  12.504  66.695  1.00  0.00    -0.378 NA 
HETATM   13  H   UNL     1      -7.725  12.775  66.566  1.00  0.00     0.000 HD 
HETATM   14  C   UNL     1      -9.680  13.564  66.808  1.00  0.00    -0.271 C  
HETATM   15  C   UNL     1     -10.477   9.263  67.083  1.00  0.00    -0.319 A  
HETATM   16  N   UNL     1     -10.670  13.200  67.807  1.00  0.00    -0.236 N  
HETATM   17  O   UNL     1     -12.156  12.109  66.061  1.00  0.00    -0.612 OA 
HETATM   18  S   UNL     1     -11.525  11.809  67.329  1.00  0.00    -0.273 S  
HETATM   19  H   UNL     1     -10.831  13.710  68.676  1.00  0.00     0.000 HD 
HETATM   20  C   UNL     1     -10.242  10.644  67.027  1.00  0.00    -0.220 A  
HETATM   21  O   UNL     1     -12.289  11.373  68.475  1.00  0.00    -0.504 OA 
BRANCH  14  22
HETATM   22  C   UNL     1      -8.988  14.945  67.090  1.00  0.00    -0.230 C  
HETATM   23  C   UNL     1      -9.819  15.679  68.193  1.00  0.00    -0.212 C  
HETATM   24  C   UNL     1     -10.444  16.863  67.414  1.00  0.00    -0.310 C  
HETATM   25  C   UNL     1     -10.400  16.511  65.924  1.00  0.00    -0.365 C  
HETATM   26  C   UNL     1      -8.943  16.050  65.983  1.00  0.00    -0.345 C  
HETATM   27  C   UNL     1      -8.410  17.376  66.547  1.00  0.00    -0.308 C  
HETATM   28  C   UNL     1      -9.340  17.888  67.375  1.00  0.00    -0.257 C  
ENDBRANCH  14  22
ENDBRANCH   2   7
TORSDOF 2
ENDMDL
MODEL       33
REMARK 921   NORMALIZED FREE ENERGY PREDICTED BY IDOCK:   -6.26 KCAL/MOL
REMARK 922        TOTAL FREE ENERGY PREDICTED BY IDOCK:   -7.06 KCAL/MOL
REMARK 923 INTER-LIGAND FREE ENERGY PREDICTED BY IDOCK:   -7.48 KCAL/MOL
REMARK 924 INTRA-LIGAND FREE ENERGY PREDICTED BY IDOCK:    0.42 KCAL/MOL
REMARK 927      BINDING AFFINITY PREDICTED BY RF-SCORE:    0.00 PKD
ROOT
HETATM    1  N   UNL     1     -12.032  11.748  63.085  1.00  0.00    -0.890 N  
HETATM    2  S   UNL     1     -10.478  11.936  63.700  1.00  0.00    -0.485 S  
HETATM    3  H1  UNL     1     -12.636  12.223  63.755  1.00  0.00     0.000 HD 
HETATM    4  H2  UNL     1     -12.309  11.266  62.229  1.00  0.00     0.000 HD 
HETATM    5  O   UNL     1      -9.623  11.263  62.749  1.00  0.00    -0.342 OA 
HETATM    6  O   UNL     1     -10.313  13.331  64.023  1.00  0.00    -0.354 OA 
ENDROOT
BRANCH   2   7
HETATM    7  C   UNL     1     -10.521  10.994  65.189  1.00  0.00    -0.262 A  
HETATM    8  C   UNL     1     -11.209  11.465  66.310  1.00  0.00    -0.161 A  
HETATM    9  C   UNL     1     -11.255  10.681  67.464  1.00  0.00    -0.326 A  
HETATM   10 CL   UNL     1     -12.024  12.989  66.387  1.00  0.00    -0.463 Cl 
HETATM   11  C   UNL     1     -10.639   9.423  67.525  1.00  0.00    -0.267 A  
HETATM   12  N   UNL     1     -10.713   8.723  68.710  1.00  0.00    -0.402 NA 
HETATM   13  H   UNL     1     -11.223   9.155  69.481  1.00  0.00     0.000 HD 
HETATM   14  C   UNL     1     -10.123   7.421  68.944  1.00  0.00    -0.186 C  
HETATM   15  C   UNL     1      -9.837   9.766  65.252  1.00  0.00    -0.335 A  
HETATM   16  N   UNL     1      -8.827   7.355  68.291  1.00  0.00    -0.128 N  
HETATM   17  O   UNL     1      -9.853   6.429  66.161  1.00  0.00    -0.052 OA 
HETATM   18  S   UNL     1      -8.995   7.507  66.604  1.00  0.00    -0.160 S  
HETATM   19  H   UNL     1      -7.939   7.234  68.777  1.00  0.00     0.000 HD 
HETATM   20  C   UNL     1      -9.891   9.012  66.432  1.00  0.00    -0.286 A  
HETATM   21  O   UNL     1      -7.666   7.693  66.067  1.00  0.00    -0.085 OA 
BRANCH  14  22
HETATM   22  C   UNL     1     -10.064   7.096  70.479  1.00  0.00    -0.202 C  
HETATM   23  C   UNL     1     -11.503   6.692  70.937  1.00  0.00    -0.401 C  
HETATM   24  C   UNL     1     -11.914   7.878  71.845  1.00  0.00    -0.347 C  
HETATM   25  C   UNL     1     -11.015   9.065  71.491  1.00  0.00    -0.418 C  
HETATM   26  C   UNL     1      -9.739   8.222  71.516  1.00  0.00    -0.251 C  
HETATM   27  C   UNL     1      -9.941   7.722  72.955  1.00  0.00    -0.356 C  
HETATM   28  C   UNL     1     -11.261   7.561  73.166  1.00  0.00    -0.318 C  
ENDBRANCH  14  22
ENDBRANCH   2   7
TORSDOF 2
ENDMDL
MODEL       34
REMARK 921   NORMALIZED FREE ENERGY PREDICTED BY IDOCK:   -6.24 KCAL/MOL
REMARK 922        TOTAL FREE ENERGY PREDICTED BY IDOCK:   -7.04 KCAL/MOL
REMARK 923 INTER-LIGAND FREE ENERGY PREDICTED BY IDOCK:   -6.62 KCAL/MOL
REMARK 924 INTRA-LIGAND FREE ENERGY PREDICTED BY IDOCK:   -0.42 KCAL/MOL
REMARK 927      BINDING AFFINITY PREDICTED BY RF-SCORE:    0.00 PKD
ROOT
HETATM    1  N   UNL     1     -13.480  14.004  72.781  1.00  0.00    -0.534 N  
HETATM    2  S   UNL     1     -12.922  15.077  71.612  1.00  0.00    -0.389 S  
HETATM    3  H1  UNL     1     -12.637  13.582  73.170  1.00  0.00     0.000 HD 
HETATM    4  H2  UNL     1     -14.448  13.818  73.044  1.00  0.00     0.000 HD 
HETATM    5  O   UNL     1     -14.117  15.675  71.062  1.00  0.00    -0.499 OA 
HETATM    6  O   UNL     1     -11.882  15.868  72.221  1.00  0.00    -0.433 OA 
ENDROOT
BRANCH   2   7
HETATM    7  C   UNL     1     -12.211  14.013  70.400  1.00  0.00    -0.363 A  
HETATM    8  C   UNL     1     -11.756  14.524  69.182  1.00  0.00    -0.314 A  
HETATM    9  C   UNL     1     -11.165  13.663  68.257  1.00  0.00    -0.302 A  
HETATM   10 CL   UNL     1     -11.877  16.186  68.714  1.00  0.00    -0.260 Cl 
HETATM   11  C   UNL     1     -11.002  12.297  68.521  1.00  0.00    -0.240 A  
HETATM   12  N   UNL     1     -10.429  11.512  67.544  1.00  0.00    -0.193 NA 
HETATM   13  H   UNL     1     -10.143  11.971  66.679  1.00  0.00     0.000 HD 
HETATM   14  C   UNL     1     -10.201  10.086  67.652  1.00  0.00    -0.204 C  
HETATM   15  C   UNL     1     -12.121  12.633  70.657  1.00  0.00    -0.315 A  
HETATM   16  N   UNL     1     -11.328   9.468  68.330  1.00  0.00    -0.457 N  
HETATM   17  O   UNL     1     -10.221   9.743  70.599  1.00  0.00    -0.279 OA 
HETATM   18  S   UNL     1     -11.464  10.050  69.923  1.00  0.00    -0.181 S  
HETATM   19  H   UNL     1     -11.951   8.779  67.909  1.00  0.00     0.000 HD 
HETATM   20  C   UNL     1     -11.536  11.794  69.698  1.00  0.00    -0.323 A  
HETATM   21  O   UNL     1     -12.739   9.593  70.428  1.00  0.00    -0.001 OA 
BRANCH  14  22
HETATM   22  C   UNL     1      -9.899   9.455  66.246  1.00  0.00    -0.351 C  
HETATM   23  C   UNL     1      -9.352   8.008  66.479  1.00  0.00    -0.261 C  
HETATM   24  C   UNL     1      -7.871   8.132  66.043  1.00  0.00    -0.093 C  
HETATM   25  C   UNL     1      -7.500   9.618  66.080  1.00  0.00    -0.099 C  
HETATM   26  C   UNL     1      -8.768  10.045  65.339  1.00  0.00    -0.176 C  
HETATM   27  C   UNL     1      -8.514   9.147  64.118  1.00  0.00    -0.198 C  
HETATM   28  C   UNL     1      -7.928   8.012  64.542  1.00  0.00    -0.151 C  
ENDBRANCH  14  22
ENDBRANCH   2   7
TORSDOF 2
ENDMDL
MODEL       35
REMARK 921   NORMALIZED FREE ENERGY PREDICTED BY IDOCK:   -6.21 KCAL/MOL
REMARK 922        TOTAL FREE ENERGY PREDICTED BY IDOCK:   -7.01 KCAL/MOL
REMARK 923 INTER-LIGAND FREE ENERGY PREDICTED BY IDOCK:   -6.72 KCAL/MOL
REMARK 924 INTRA-LIGAND FREE ENERGY PREDICTED BY IDOCK:   -0.29 KCAL/MOL
REMARK 927      BINDING AFFINITY PREDICTED BY RF-SCORE:    0.00 PKD
ROOT
HETATM    1  N   UNL     1     -10.819   8.226  66.851  1.00  0.00    -0.321 N  
HETATM    2  S   UNL     1      -9.661   8.697  67.977  1.00  0.00    -0.164 S  
HETATM    3  H1  UNL     1     -10.370   8.360  65.946  1.00  0.00     0.000 HD 
HETATM    4  H2  UNL     1     -11.762   7.883  67.034  1.00  0.00     0.000 HD 
HETATM    5  O   UNL     1     -10.298   8.507  69.260  1.00  0.00    -0.214 OA 
HETATM    6  O   UNL     1      -8.431   8.031  67.627  1.00  0.00    -0.129 OA 
ENDROOT
BRANCH   2   7
HETATM    7  C   UNL     1      -9.492  10.426  67.678  1.00  0.00    -0.148 A  
HETATM    8  C   UNL     1      -8.583  11.191  68.413  1.00  0.00    -0.152 A  
HETATM    9  C   UNL     1      -8.447  12.550  68.129  1.00  0.00    -0.180 A  
HETATM   10 CL   UNL     1      -7.591  10.570  69.688  1.00  0.00    -0.153 Cl 
HETATM   11  C   UNL     1      -9.189  13.170  67.115  1.00  0.00    -0.227 A  
HETATM   12  N   UNL     1      -9.010  14.522  66.915  1.00  0.00    -0.239 NA 
HETATM   13  H   UNL     1      -8.336  15.001  67.512  1.00  0.00     0.000 HD 
HETATM   14  C   UNL     1      -9.704  15.313  65.921  1.00  0.00    -0.355 C  
HETATM   15  C   UNL     1     -10.298  11.042  66.703  1.00  0.00    -0.288 A  
HETATM   16  N   UNL     1     -11.087  14.875  65.836  1.00  0.00    -0.335 N  
HETATM   17  O   UNL     1     -10.532  13.200  64.010  1.00  0.00    -0.405 OA 
HETATM   18  S   UNL     1     -11.174  13.261  65.306  1.00  0.00    -0.302 S  
HETATM   19  H   UNL     1     -11.894  15.456  66.063  1.00  0.00     0.000 HD 
HETATM   20  C   UNL     1     -10.146  12.413  66.455  1.00  0.00    -0.236 A  
HETATM   21  O   UNL     1     -12.541  12.830  65.499  1.00  0.00    -0.611 OA 
BRANCH  14  22
HETATM   22  C   UNL     1      -9.555  16.848  66.217  1.00  0.00    -0.300 C  
HETATM   23  C   UNL     1      -8.317  17.036  67.153  1.00  0.00    -0.213 C  
HETATM   24  C   UNL     1      -8.965  17.482  68.487  1.00  0.00    -0.279 C  
HETATM   25  C   UNL     1     -10.438  17.061  68.450  1.00  0.00    -0.370 C  
HETATM   26  C   UNL     1     -10.651  17.608  67.037  1.00  0.00    -0.254 C  
HETATM   27  C   UNL     1     -10.196  19.035  67.379  1.00  0.00    -0.473 C  
HETATM   28  C   UNL     1      -9.209  18.957  68.291  1.00  0.00    -0.373 C  
ENDBRANCH  14  22
ENDBRANCH   2   7
TORSDOF 2
ENDMDL
MODEL       36
REMARK 921   NORMALIZED FREE ENERGY PREDICTED BY IDOCK:   -6.19 KCAL/MOL
REMARK 922        TOTAL FREE ENERGY PREDICTED BY IDOCK:   -6.98 KCAL/MOL
REMARK 923 INTER-LIGAND FREE ENERGY PREDICTED BY IDOCK:   -6.82 KCAL/MOL
REMARK 924 INTRA-LIGAND FREE ENERGY PREDICTED BY IDOCK:   -0.17 KCAL/MOL
REMARK 927      BINDING AFFINITY PREDICTED BY RF-SCORE:    0.00 PKD
ROOT
HETATM    1  N   UNL     1     -10.069  18.405  67.420  1.00  0.00    -0.335 N  
HETATM    2  S   UNL     1      -9.568  17.448  66.130  1.00  0.00    -0.139 S  
HETATM    3  H1  UNL     1      -9.291  18.382  68.078  1.00  0.00     0.000 HD 
HETATM    4  H2  UNL     1     -10.956  18.899  67.520  1.00  0.00     0.000 HD 
HETATM    5  O   UNL     1     -10.671  17.481  65.197  1.00  0.00    -0.673 OA 
HETATM    6  O   UNL     1      -8.243  17.886  65.764  1.00  0.00    -0.530 OA 
ENDROOT
BRANCH   2   7
HETATM    7  C   UNL     1      -9.473  15.837  66.840  1.00  0.00    -0.228 A  
HETATM    8  C   UNL     1      -8.740  15.615  68.008  1.00  0.00    -0.167 A  
HETATM    9  C   UNL     1      -8.713  14.337  68.566  1.00  0.00    -0.175 A  
HETATM   10 CL   UNL     1      -7.831  16.832  68.837  1.00  0.00    -0.250 Cl 
HETATM   11  C   UNL     1      -9.414  13.267  67.992  1.00  0.00    -0.219 A  
HETATM   12  N   UNL     1      -9.317  12.031  68.594  1.00  0.00    -0.382 NA 
HETATM   13  H   UNL     1      -8.743  11.961  69.435  1.00  0.00     0.000 HD 
HETATM   14  C   UNL     1      -9.965  10.825  68.124  1.00  0.00    -0.160 C  
HETATM   15  C   UNL     1     -10.127  14.764  66.209  1.00  0.00    -0.299 A  
HETATM   16  N   UNL     1      -9.920  10.788  66.673  1.00  0.00    -0.199 N  
HETATM   17  O   UNL     1     -12.156  11.976  66.488  1.00  0.00    -0.617 OA 
HETATM   18  S   UNL     1     -10.794  12.088  66.010  1.00  0.00    -0.300 S  
HETATM   19  H   UNL     1      -9.432  10.079  66.125  1.00  0.00     0.000 HD 
HETATM   20  C   UNL     1     -10.066  13.488  66.788  1.00  0.00    -0.268 A  
HETATM   21  O   UNL     1     -10.484  12.126  64.599  1.00  0.00    -0.275 OA 
BRANCH  14  22
HETATM   22  C   UNL     1      -9.344   9.550  68.799  1.00  0.00    -0.146 C  
HETATM   23  C   UNL     1     -10.375   8.383  68.654  1.00  0.00    -0.222 C  
HETATM   24  C   UNL     1     -10.839   8.159  70.115  1.00  0.00    -0.241 C  
HETATM   25  C   UNL     1     -10.507   9.428  70.906  1.00  0.00    -0.381 C  
HETATM   26  C   UNL     1      -9.088   9.516  70.342  1.00  0.00    -0.296 C  
HETATM   27  C   UNL     1      -8.677   8.109  70.803  1.00  0.00    -0.145 C  
HETATM   28  C   UNL     1      -9.751   7.302  70.709  1.00  0.00    -0.171 C  
ENDBRANCH  14  22
ENDBRANCH   2   7
TORSDOF 2
ENDMDL
MODEL       37
REMARK 921   NORMALIZED FREE ENERGY PREDICTED BY IDOCK:   -6.18 KCAL/MOL
REMARK 922        TOTAL FREE ENERGY PREDICTED BY IDOCK:   -6.98 KCAL/MOL
REMARK 923 INTER-LIGAND FREE ENERGY PREDICTED BY IDOCK:   -6.54 KCAL/MOL
REMARK 924 INTRA-LIGAND FREE ENERGY PREDICTED BY IDOCK:   -0.43 KCAL/MOL
REMARK 927      BINDING AFFINITY PREDICTED BY RF-SCORE:    0.00 PKD
ROOT
HETATM    1  N   UNL     1     -10.902   6.774  73.885  1.00  0.00    -0.474 N  
HETATM    2  S   UNL     1      -9.365   6.849  73.208  1.00  0.00    -0.155 S  
HETATM    3  H1  UNL     1     -11.502   6.440  73.132  1.00  0.00     0.000 HD 
HETATM    4  H2  UNL     1     -11.174   7.010  74.840  1.00  0.00     0.000 HD 
HETATM    5  O   UNL     1      -8.515   7.322  74.277  1.00  0.00    -0.164 OA 
HETATM    6  O   UNL     1      -9.130   5.591  72.544  1.00  0.00    -0.136 OA 
ENDROOT
BRANCH   2   7
HETATM    7  C   UNL     1      -9.521   8.124  72.001  1.00  0.00    -0.215 A  
HETATM    8  C   UNL     1      -8.454   8.442  71.158  1.00  0.00    -0.149 A  
HETATM    9  C   UNL     1      -8.619   9.431  70.188  1.00  0.00    -0.233 A  
HETATM   10 CL   UNL     1      -6.896   7.690  71.227  1.00  0.00    -0.049 Cl 
HETATM   11  C   UNL     1      -9.835  10.109  70.027  1.00  0.00    -0.128 A  
HETATM   12  N   UNL     1      -9.907  11.089  69.060  1.00  0.00    -0.327 NA 
HETATM   13  H   UNL     1      -9.070  11.264  68.503  1.00  0.00     0.000 HD 
HETATM   14  C   UNL     1     -11.080  11.889  68.774  1.00  0.00    -0.245 C  
HETATM   15  C   UNL     1     -10.728   8.840  71.903  1.00  0.00    -0.429 A  
HETATM   16  N   UNL     1     -11.747  12.228  70.018  1.00  0.00    -0.503 N  
HETATM   17  O   UNL     1     -13.215  10.159  69.893  1.00  0.00     0.134 OA 
HETATM   18  S   UNL     1     -12.306  10.825  70.803  1.00  0.00    -0.415 S  
HETATM   19  H   UNL     1     -11.865  13.177  70.373  1.00  0.00     0.000 HD 
HETATM   20  C   UNL     1     -10.854   9.840  70.928  1.00  0.00    -0.328 A  
HETATM   21  O   UNL     1     -12.714  11.223  72.131  1.00  0.00    -0.169 OA 
BRANCH  14  22
HETATM   22  C   UNL     1     -10.710  13.143  67.904  1.00  0.00    -0.249 C  
HETATM   23  C   UNL     1     -12.009  13.991  67.711  1.00  0.00    -0.392 C  
HETATM   24  C   UNL     1     -12.306  13.815  66.201  1.00  0.00    -0.496 C  
HETATM   25  C   UNL     1     -11.560  12.565  65.725  1.00  0.00    -0.439 C  
HETATM   26  C   UNL     1     -10.257  12.970  66.416  1.00  0.00    -0.283 C  
HETATM   27  C   UNL     1     -10.151  14.330  65.709  1.00  0.00    -0.356 C  
HETATM   28  C   UNL     1     -11.395  14.816  65.538  1.00  0.00    -0.343 C  
ENDBRANCH  14  22
ENDBRANCH   2   7
TORSDOF 2
ENDMDL
MODEL       38
REMARK 921   NORMALIZED FREE ENERGY PREDICTED BY IDOCK:   -6.08 KCAL/MOL
REMARK 922        TOTAL FREE ENERGY PREDICTED BY IDOCK:   -6.86 KCAL/MOL
REMARK 923 INTER-LIGAND FREE ENERGY PREDICTED BY IDOCK:   -7.02 KCAL/MOL
REMARK 924 INTRA-LIGAND FREE ENERGY PREDICTED BY IDOCK:    0.16 KCAL/MOL
REMARK 927      BINDING AFFINITY PREDICTED BY RF-SCORE:    0.00 PKD
ROOT
HETATM    1  N   UNL     1     -12.412  10.084  70.068  1.00  0.00    -0.506 N  
HETATM    2  S   UNL     1     -10.975  10.172  69.199  1.00  0.00    -0.221 S  
HETATM    3  H1  UNL     1     -13.143  10.250  69.378  1.00  0.00     0.000 HD 
HETATM    4  H2  UNL     1     -12.526   9.903  71.066  1.00  0.00     0.000 HD 
HETATM    5  O   UNL     1      -9.938   9.936  70.178  1.00  0.00    -0.249 OA 
HETATM    6  O   UNL     1     -11.130   9.338  68.033  1.00  0.00    -0.082 OA 
ENDROOT
BRANCH   2   7
HETATM    7  C   UNL     1     -10.911  11.862  68.702  1.00  0.00    -0.235 A  
HETATM    8  C   UNL     1     -10.449  12.214  67.431  1.00  0.00    -0.213 A  
HETATM    9  C   UNL     1     -10.444  13.557  67.054  1.00  0.00    -0.265 A  
HETATM   10 CL   UNL     1      -9.861  11.086  66.259  1.00  0.00    -0.245 Cl 
HETATM   11  C   UNL     1     -10.902  14.566  67.912  1.00  0.00    -0.256 A  
HETATM   12  N   UNL     1     -10.842  15.870  67.469  1.00  0.00    -0.318 NA 
HETATM   13  H   UNL     1     -10.473  16.033  66.532  1.00  0.00     0.000 HD 
HETATM   14  C   UNL     1     -11.261  17.027  68.233  1.00  0.00    -0.038 C  
HETATM   15  C   UNL     1     -11.310  12.864  69.605  1.00  0.00    -0.166 A  
HETATM   16  N   UNL     1     -10.881  16.850  69.624  1.00  0.00    -0.381 N  
HETATM   17  O   UNL     1     -13.107  15.763  70.182  1.00  0.00    -0.225 OA 
HETATM   18  S   UNL     1     -11.686  15.513  70.302  1.00  0.00    -0.379 S  
HETATM   19  H   UNL     1     -10.222  17.446  70.125  1.00  0.00     0.000 HD 
HETATM   20  C   UNL     1     -11.276  14.206  69.198  1.00  0.00    -0.272 A  
HETATM   21  O   UNL     1     -11.064  15.254  71.581  1.00  0.00    -0.356 OA 
BRANCH  14  22
HETATM   22  C   UNL     1     -10.707  18.353  67.600  1.00  0.00    -0.390 C  
HETATM   23  C   UNL     1      -9.796  17.961  66.391  1.00  0.00    -0.339 C  
HETATM   24  C   UNL     1      -8.383  18.349  66.891  1.00  0.00    -0.261 C  
HETATM   25  C   UNL     1      -8.442  18.441  68.419  1.00  0.00    -0.345 C  
HETATM   26  C   UNL     1      -9.728  19.268  68.409  1.00  0.00    -0.474 C  
HETATM   27  C   UNL     1      -9.158  20.387  67.523  1.00  0.00    -0.447 C  
HETATM   28  C   UNL     1      -8.309  19.833  66.637  1.00  0.00    -0.360 C  
ENDBRANCH  14  22
ENDBRANCH   2   7
TORSDOF 2
ENDMDL
MODEL       39
REMARK 921   NORMALIZED FREE ENERGY PREDICTED BY IDOCK:   -6.08 KCAL/MOL
REMARK 922        TOTAL FREE ENERGY PREDICTED BY IDOCK:   -6.86 KCAL/MOL
REMARK 923 INTER-LIGAND FREE ENERGY PREDICTED BY IDOCK:   -6.75 KCAL/MOL
REMARK 924 INTRA-LIGAND FREE ENERGY PREDICTED BY IDOCK:   -0.10 KCAL/MOL
REMARK 927      BINDING AFFINITY PREDICTED BY RF-SCORE:    0.00 PKD
ROOT
HETATM    1  N   UNL     1     -12.330  14.396  67.568  1.00  0.00    -0.600 N  
HETATM    2  S   UNL     1     -10.770  13.987  68.043  1.00  0.00    -0.251 S  
HETATM    3  H1  UNL     1     -12.856  14.469  68.439  1.00  0.00     0.000 HD 
HETATM    4  H2  UNL     1     -12.675  14.540  66.619  1.00  0.00     0.000 HD 
HETATM    5  O   UNL     1     -10.025  13.884  66.809  1.00  0.00    -0.256 OA 
HETATM    6  O   UNL     1     -10.389  14.901  69.091  1.00  0.00    -0.235 OA 
ENDROOT
BRANCH   2   7
HETATM    7  C   UNL     1     -10.968  12.372  68.722  1.00  0.00    -0.246 A  
HETATM    8  C   UNL     1     -11.701  12.177  69.895  1.00  0.00    -0.287 A  
HETATM    9  C   UNL     1     -11.870  10.883  70.388  1.00  0.00    -0.449 A  
HETATM   10 CL   UNL     1     -12.429  13.450  70.814  1.00  0.00    -0.431 Cl 
HETATM   11  C   UNL     1     -11.335   9.767  69.730  1.00  0.00    -0.158 A  
HETATM   12  N   UNL     1     -11.530   8.526  70.297  1.00  0.00    -0.445 NA 
HETATM   13  H   UNL     1     -12.064   8.483  71.165  1.00  0.00     0.000 HD 
HETATM   14  C   UNL     1     -11.034   7.279  69.754  1.00  0.00    -0.216 C  
HETATM   15  C   UNL     1     -10.363  11.274  68.083  1.00  0.00    -0.205 A  
HETATM   16  N   UNL     1      -9.703   7.485  69.210  1.00  0.00    -0.162 N  
HETATM   17  O   UNL     1     -10.636   8.031  66.912  1.00  0.00    -0.338 OA 
HETATM   18  S   UNL     1      -9.748   8.585  67.912  1.00  0.00    -0.169 S  
HETATM   19  H   UNL     1      -8.858   7.031  69.557  1.00  0.00     0.000 HD 
HETATM   20  C   UNL     1     -10.540   9.989  68.615  1.00  0.00    -0.212 A  
HETATM   21  O   UNL     1      -8.377   8.928  67.607  1.00  0.00    -0.109 OA 
BRANCH  14  22
HETATM   22  C   UNL     1     -11.098   6.132  70.825  1.00  0.00    -0.375 C  
HETATM   23  C   UNL     1     -11.898   6.672  72.056  1.00  0.00    -0.365 C  
HETATM   24  C   UNL     1     -10.807   6.776  73.150  1.00  0.00    -0.315 C  
HETATM   25  C   UNL     1      -9.447   6.808  72.446  1.00  0.00    -0.153 C  
HETATM   26  C   UNL     1      -9.792   5.633  71.531  1.00  0.00    -0.213 C  
HETATM   27  C   UNL     1     -10.120   4.665  72.678  1.00  0.00    -0.224 C  
HETATM   28  C   UNL     1     -10.690   5.368  73.675  1.00  0.00    -0.337 C  
ENDBRANCH  14  22
ENDBRANCH   2   7
TORSDOF 2
ENDMDL
MODEL       40
REMARK 921   NORMALIZED FREE ENERGY PREDICTED BY IDOCK:   -6.05 KCAL/MOL
REMARK 922        TOTAL FREE ENERGY PREDICTED BY IDOCK:   -6.83 KCAL/MOL
REMARK 923 INTER-LIGAND FREE ENERGY PREDICTED BY IDOCK:   -6.52 KCAL/MOL
REMARK 924 INTRA-LIGAND FREE ENERGY PREDICTED BY IDOCK:   -0.31 KCAL/MOL
REMARK 927      BINDING AFFINITY PREDICTED BY RF-SCORE:    0.00 PKD
ROOT
HETATM    1  N   UNL     1      -9.468  20.354  66.235  1.00  0.00    -0.644 N  
HETATM    2  S   UNL     1      -7.857  19.914  66.439  1.00  0.00    -0.314 S  
HETATM    3  H1  UNL     1      -9.917  20.110  67.117  1.00  0.00     0.000 HD 
HETATM    4  H2  UNL     1      -9.899  20.772  65.410  1.00  0.00     0.000 HD 
HETATM    5  O   UNL     1      -7.220  20.259  65.189  1.00  0.00    -0.269 OA 
HETATM    6  O   UNL     1      -7.421  20.466  67.698  1.00  0.00    -0.298 OA 
ENDROOT
BRANCH   2   7
HETATM    7  C   UNL     1      -7.936  18.157  66.570  1.00  0.00    -0.262 A  
HETATM    8  C   UNL     1      -6.862  17.433  67.092  1.00  0.00    -0.175 A  
HETATM    9  C   UNL     1      -6.968  16.047  67.216  1.00  0.00    -0.240 A  
HETATM   10 CL   UNL     1      -5.366  18.136  67.604  1.00  0.00    -0.145 Cl 
HETATM   11  C   UNL     1      -8.131  15.360  66.842  1.00  0.00    -0.224 A  
HETATM   12  N   UNL     1      -8.144  13.988  66.976  1.00  0.00    -0.380 NA 
HETATM   13  H   UNL     1      -7.306  13.543  67.351  1.00  0.00     0.000 HD 
HETATM   14  C   UNL     1      -9.257  13.131  66.626  1.00  0.00    -0.215 C  
HETATM   15  C   UNL     1      -9.086  17.481  66.123  1.00  0.00    -0.157 A  
HETATM   16  N   UNL     1      -9.875  13.617  65.405  1.00  0.00    -0.526 N  
HETATM   17  O   UNL     1     -11.499  15.072  66.706  1.00  0.00    -0.330 OA 
HETATM   18  S   UNL     1     -10.526  15.172  65.639  1.00  0.00    -0.391 S  
HETATM   19  H   UNL     1      -9.914  13.099  64.527  1.00  0.00     0.000 HD 
HETATM   20  C   UNL     1      -9.152  16.086  66.248  1.00  0.00    -0.344 A  
HETATM   21  O   UNL     1     -10.880  15.679  64.332  1.00  0.00    -0.334 OA 
BRANCH  14  22
HETATM   22  C   UNL     1      -8.807  11.629  66.539  1.00  0.00    -0.188 C  
HETATM   23  C   UNL     1     -10.088  10.757  66.334  1.00  0.00    -0.278 C  
HETATM   24  C   UNL     1     -10.196   9.993  67.677  1.00  0.00    -0.249 C  
HETATM   25  C   UNL     1      -9.375  10.763  68.715  1.00  0.00    -0.186 C  
HETATM   26  C   UNL     1      -8.173  10.918  67.782  1.00  0.00    -0.116 C  
HETATM   27  C   UNL     1      -8.007   9.411  67.531  1.00  0.00    -0.102 C  
HETATM   28  C   UNL     1      -9.230   8.848  67.516  1.00  0.00    -0.153 C  
ENDBRANCH  14  22
ENDBRANCH   2   7
TORSDOF 2
ENDMDL
MODEL       41
REMARK 921   NORMALIZED FREE ENERGY PREDICTED BY IDOCK:   -6.04 KCAL/MOL
REMARK 922        TOTAL FREE ENERGY PREDICTED BY IDOCK:   -6.82 KCAL/MOL
REMARK 923 INTER-LIGAND FREE ENERGY PREDICTED BY IDOCK:   -6.53 KCAL/MOL
REMARK 924 INTRA-LIGAND FREE ENERGY PREDICTED BY IDOCK:   -0.29 KCAL/MOL
REMARK 927      BINDING AFFINITY PREDICTED BY RF-SCORE:    0.00 PKD
ROOT
HETATM    1  N   UNL     1     -10.808  19.595  68.580  1.00  0.00    -0.223 N  
HETATM    2  S   UNL     1      -9.458  18.848  67.912  1.00  0.00    -0.316 S  
HETATM    3  H1  UNL     1     -10.738  19.412  69.580  1.00  0.00     0.000 HD 
HETATM    4  H2  UNL     1     -11.536  20.117  68.092  1.00  0.00     0.000 HD 
HETATM    5  O   UNL     1      -9.558  19.107  66.493  1.00  0.00    -0.325 OA 
HETATM    6  O   UNL     1      -8.314  19.262  68.686  1.00  0.00    -0.357 OA 
ENDROOT
BRANCH   2   7
HETATM    7  C   UNL     1      -9.766  17.136  68.198  1.00  0.00    -0.276 A  
HETATM    8  C   UNL     1      -9.091  16.158  67.463  1.00  0.00    -0.203 A  
HETATM    9  C   UNL     1      -9.330  14.810  67.737  1.00  0.00    -0.199 A  
HETATM   10 CL   UNL     1      -7.957  16.494  66.200  1.00  0.00    -0.301 Cl 
HETATM   11  C   UNL     1     -10.221  14.409  68.741  1.00  0.00    -0.239 A  
HETATM   12  N   UNL     1     -10.416  13.058  68.932  1.00  0.00    -0.415 NA 
HETATM   13  H   UNL     1      -9.892  12.417  68.336  1.00  0.00     0.000 HD 
HETATM   14  C   UNL     1     -11.308  12.478  69.915  1.00  0.00     0.023 C  
HETATM   15  C   UNL     1     -10.717  16.755  69.162  1.00  0.00    -0.329 A  
HETATM   16  N   UNL     1     -12.521  13.274  69.993  1.00  0.00    -0.168 N  
HETATM   17  O   UNL     1     -11.550  14.726  71.837  1.00  0.00    -0.315 OA 
HETATM   18  S   UNL     1     -12.173  14.849  70.536  1.00  0.00    -0.357 S  
HETATM   19  H   UNL     1     -13.453  12.935  69.757  1.00  0.00     0.000 HD 
HETATM   20  C   UNL     1     -10.943  15.392  69.401  1.00  0.00    -0.276 A  
HETATM   21  O   UNL     1     -13.370  15.634  70.336  1.00  0.00    -0.338 OA 
BRANCH  14  22
HETATM   22  C   UNL     1     -11.577  10.962  69.608  1.00  0.00    -0.394 C  
HETATM   23  C   UNL     1     -11.921  10.254  70.960  1.00  0.00    -0.483 C  
HETATM   24  C   UNL     1     -10.690   9.342  71.186  1.00  0.00    -0.417 C  
HETATM   25  C   UNL     1      -9.544   9.890  70.331  1.00  0.00    -0.117 C  
HETATM   26  C   UNL     1     -10.423  10.041  69.089  1.00  0.00    -0.238 C  
HETATM   27  C   UNL     1     -10.861   8.569  69.059  1.00  0.00    -0.026 C  
HETATM   28  C   UNL     1     -10.976   8.136  70.329  1.00  0.00    -0.240 C  
ENDBRANCH  14  22
ENDBRANCH   2   7
TORSDOF 2
ENDMDL
MODEL       42
REMARK 921   NORMALIZED FREE ENERGY PREDICTED BY IDOCK:   -5.98 KCAL/MOL
REMARK 922        TOTAL FREE ENERGY PREDICTED BY IDOCK:   -6.74 KCAL/MOL
REMARK 923 INTER-LIGAND FREE ENERGY PREDICTED BY IDOCK:   -6.51 KCAL/MOL
REMARK 924 INTRA-LIGAND FREE ENERGY PREDICTED BY IDOCK:   -0.23 KCAL/MOL
REMARK 927      BINDING AFFINITY PREDICTED BY RF-SCORE:    0.00 PKD
ROOT
HETATM    1  N   UNL     1     -12.324  14.511  67.404  1.00  0.00    -0.575 N  
HETATM    2  S   UNL     1     -11.859  13.973  65.880  1.00  0.00    -0.401 S  
HETATM    3  H1  UNL     1     -11.450  14.650  67.909  1.00  0.00     0.000 HD 
HETATM    4  H2  UNL     1     -13.273  14.664  67.747  1.00  0.00     0.000 HD 
HETATM    5  O   UNL     1     -13.099  13.775  65.165  1.00  0.00    -0.762 OA 
HETATM    6  O   UNL     1     -10.837  14.872  65.405  1.00  0.00    -0.323 OA 
ENDROOT
BRANCH   2   7
HETATM    7  C   UNL     1     -11.140  12.398  66.214  1.00  0.00    -0.303 A  
HETATM    8  C   UNL     1     -10.550  11.653  65.191  1.00  0.00    -0.290 A  
HETATM    9  C   UNL     1      -9.957  10.426  65.493  1.00  0.00    -0.348 A  
HETATM   10 CL   UNL     1     -10.501  12.140  63.531  1.00  0.00    -0.478 Cl 
HETATM   11  C   UNL     1      -9.925   9.925  66.801  1.00  0.00    -0.214 A  
HETATM   12  N   UNL     1      -9.340   8.694  67.010  1.00  0.00    -0.152 NA 
HETATM   13  H   UNL     1      -8.951   8.215  66.198  1.00  0.00     0.000 HD 
HETATM   14  C   UNL     1      -9.236   8.031  68.293  1.00  0.00    -0.134 C  
HETATM   15  C   UNL     1     -11.181  11.882  67.523  1.00  0.00    -0.359 A  
HETATM   16  N   UNL     1     -10.458   8.246  69.047  1.00  0.00    -0.266 N  
HETATM   17  O   UNL     1      -9.518  10.340  70.134  1.00  0.00    -0.059 OA 
HETATM   18  S   UNL     1     -10.675   9.901  69.382  1.00  0.00    -0.243 S  
HETATM   19  H   UNL     1     -11.099   7.508  69.337  1.00  0.00     0.000 HD 
HETATM   20  C   UNL     1     -10.590  10.639  67.787  1.00  0.00    -0.236 A  
HETATM   21  O   UNL     1     -12.018  10.052  69.894  1.00  0.00    -0.148 OA 
BRANCH  14  22
HETATM   22  C   UNL     1      -8.874   6.513  68.116  1.00  0.00    -0.115 C  
HETATM   23  C   UNL     1      -8.119   6.358  66.754  1.00  0.00    -0.109 C  
HETATM   24  C   UNL     1      -9.136   5.568  65.893  1.00  0.00    -0.163 C  
HETATM   25  C   UNL     1     -10.517   5.742  66.531  1.00  0.00    -0.280 C  
HETATM   26  C   UNL     1     -10.003   5.444  67.940  1.00  0.00    -0.202 C  
HETATM   27  C   UNL     1      -9.413   4.072  67.577  1.00  0.00    -0.231 C  
HETATM   28  C   UNL     1      -8.932   4.137  66.321  1.00  0.00    -0.123 C  
ENDBRANCH  14  22
ENDBRANCH   2   7
TORSDOF 2
ENDMDL
MODEL       43
REMARK 921   NORMALIZED FREE ENERGY PREDICTED BY IDOCK:   -5.96 KCAL/MOL
REMARK 922        TOTAL FREE ENERGY PREDICTED BY IDOCK:   -6.73 KCAL/MOL
REMARK 923 INTER-LIGAND FREE ENERGY PREDICTED BY IDOCK:   -6.68 KCAL/MOL
REMARK 924 INTRA-LIGAND FREE ENERGY PREDICTED BY IDOCK:   -0.05 KCAL/MOL
REMARK 927      BINDING AFFINITY PREDICTED BY RF-SCORE:    0.00 PKD
ROOT
HETATM    1  N   UNL     1     -12.638  16.060  69.862  1.00  0.00    -0.550 N  
HETATM    2  S   UNL     1     -12.442  14.640  70.742  1.00  0.00    -0.366 S  
HETATM    3  H1  UNL     1     -13.386  15.854  69.200  1.00  0.00     0.000 HD 
HETATM    4  H2  UNL     1     -12.123  16.934  69.968  1.00  0.00     0.000 HD 
HETATM    5  O   UNL     1     -11.383  14.932  71.680  1.00  0.00    -0.315 OA 
HETATM    6  O   UNL     1     -13.753  14.221  71.174  1.00  0.00    -0.315 OA 
ENDROOT
BRANCH   2   7
HETATM    7  C   UNL     1     -11.836  13.504  69.538  1.00  0.00    -0.334 A  
HETATM    8  C   UNL     1     -11.901  12.127  69.761  1.00  0.00    -0.327 A  
HETATM    9  C   UNL     1     -11.446  11.252  68.774  1.00  0.00    -0.359 A  
HETATM   10 CL   UNL     1     -12.512  11.400  71.207  1.00  0.00    -0.455 Cl 
HETATM   11  C   UNL     1     -10.935  11.717  67.555  1.00  0.00    -0.259 A  
HETATM   12  N   UNL     1     -10.486  10.786  66.643  1.00  0.00    -0.245 NA 
HETATM   13  H   UNL     1     -10.557   9.802  66.901  1.00  0.00     0.000 HD 
HETATM   14  C   UNL     1      -9.920  11.099  65.347  1.00  0.00    -0.259 C  
HETATM   15  C   UNL     1     -11.262  13.995  68.350  1.00  0.00    -0.292 A  
HETATM   16  N   UNL     1      -9.079  12.278  65.460  1.00  0.00    -0.410 N  
HETATM   17  O   UNL     1     -11.020  13.818  64.904  1.00  0.00    -0.335 OA 
HETATM   18  S   UNL     1     -10.002  13.633  65.917  1.00  0.00    -0.263 S  
HETATM   19  H   UNL     1      -8.074  12.292  65.289  1.00  0.00     0.000 HD 
HETATM   20  C   UNL     1     -10.800  13.087  67.387  1.00  0.00    -0.251 A  
HETATM   21  O   UNL     1      -9.067  14.681  66.257  1.00  0.00    -0.251 OA 
BRANCH  14  22
HETATM   22  C   UNL     1      -9.172   9.857  64.744  1.00  0.00    -0.309 C  
HETATM   23  C   UNL     1      -7.642  10.047  65.006  1.00  0.00    -0.139 C  
HETATM   24  C   UNL     1      -7.082  10.285  63.582  1.00  0.00    -0.067 C  
HETATM   25  C   UNL     1      -8.249  10.721  62.692  1.00  0.00    -0.184 C  
HETATM   26  C   UNL     1      -9.168   9.608  63.198  1.00  0.00    -0.139 C  
HETATM   27  C   UNL     1      -8.209   8.467  62.825  1.00  0.00    -0.166 C  
HETATM   28  C   UNL     1      -6.947   8.896  63.012  1.00  0.00    -0.089 C  
ENDBRANCH  14  22
ENDBRANCH   2   7
TORSDOF 2
ENDMDL
MODEL       44
REMARK 921   NORMALIZED FREE ENERGY PREDICTED BY IDOCK:   -5.95 KCAL/MOL
REMARK 922        TOTAL FREE ENERGY PREDICTED BY IDOCK:   -6.71 KCAL/MOL
REMARK 923 INTER-LIGAND FREE ENERGY PREDICTED BY IDOCK:   -6.70 KCAL/MOL
REMARK 924 INTRA-LIGAND FREE ENERGY PREDICTED BY IDOCK:   -0.01 KCAL/MOL
REMARK 927      BINDING AFFINITY PREDICTED BY RF-SCORE:    0.00 PKD
ROOT
HETATM    1  N   UNL     1     -10.865  14.939  64.482  1.00  0.00    -0.628 N  
HETATM    2  S   UNL     1     -12.151  13.854  64.464  1.00  0.00    -0.440 S  
HETATM    3  H1  UNL     1     -10.158  14.513  63.883  1.00  0.00     0.000 HD 
HETATM    4  H2  UNL     1     -10.806  15.826  64.981  1.00  0.00     0.000 HD 
HETATM    5  O   UNL     1     -13.153  14.458  65.312  1.00  0.00    -0.629 OA 
HETATM    6  O   UNL     1     -12.413  13.527  63.084  1.00  0.00    -0.759 OA 
ENDROOT
BRANCH   2   7
HETATM    7  C   UNL     1     -11.492  12.439  65.282  1.00  0.00    -0.344 A  
HETATM    8  C   UNL     1     -10.761  11.482  64.575  1.00  0.00    -0.329 A  
HETATM    9  C   UNL     1     -10.222  10.391  65.257  1.00  0.00    -0.332 A  
HETATM   10 CL   UNL     1     -10.470  11.540  62.870  1.00  0.00    -0.205 Cl 
HETATM   11  C   UNL     1     -10.382  10.234  66.640  1.00  0.00    -0.219 A  
HETATM   12  N   UNL     1      -9.837   9.116  67.233  1.00  0.00    -0.176 NA 
HETATM   13  H   UNL     1      -9.334   8.462  66.632  1.00  0.00     0.000 HD 
HETATM   14  C   UNL     1      -9.922   8.798  68.643  1.00  0.00    -0.182 C  
HETATM   15  C   UNL     1     -11.724  12.265  66.659  1.00  0.00    -0.417 A  
HETATM   16  N   UNL     1     -11.240   9.153  69.138  1.00  0.00    -0.438 N  
HETATM   17  O   UNL     1     -10.463  11.483  69.783  1.00  0.00     0.140 OA 
HETATM   18  S   UNL     1     -11.499  10.830  69.011  1.00  0.00    -0.300 S  
HETATM   19  H   UNL     1     -11.918   8.489  69.512  1.00  0.00     0.000 HD 
HETATM   20  C   UNL     1     -11.181  11.149  67.310  1.00  0.00    -0.277 A  
HETATM   21  O   UNL     1     -12.902  11.059  69.273  1.00  0.00    -0.173 OA 
BRANCH  14  22
HETATM   22  C   UNL     1      -9.541   7.298  68.908  1.00  0.00    -0.143 C  
HETATM   23  C   UNL     1     -10.385   6.799  70.127  1.00  0.00    -0.228 C  
HETATM   24  C   UNL     1      -9.311   6.610  71.227  1.00  0.00    -0.159 C  
HETATM   25  C   UNL     1      -8.085   7.435  70.823  1.00  0.00    -0.110 C  
HETATM   26  C   UNL     1      -8.099   6.918  69.384  1.00  0.00    -0.127 C  
HETATM   27  C   UNL     1      -8.020   5.435  69.777  1.00  0.00    -0.088 C  
HETATM   28  C   UNL     1      -8.714   5.262  70.918  1.00  0.00    -0.141 C  
ENDBRANCH  14  22
ENDBRANCH   2   7
TORSDOF 2
ENDMDL
MODEL       45
REMARK 921   NORMALIZED FREE ENERGY PREDICTED BY IDOCK:   -5.94 KCAL/MOL
REMARK 922        TOTAL FREE ENERGY PREDICTED BY IDOCK:   -6.70 KCAL/MOL
REMARK 923 INTER-LIGAND FREE ENERGY PREDICTED BY IDOCK:   -6.43 KCAL/MOL
REMARK 924 INTRA-LIGAND FREE ENERGY PREDICTED BY IDOCK:   -0.28 KCAL/MOL
REMARK 927      BINDING AFFINITY PREDICTED BY RF-SCORE:    0.00 PKD
ROOT
HETATM    1  N   UNL     1      -6.956  19.928  69.888  1.00  0.00    -0.199 N  
HETATM    2  S   UNL     1      -6.509  19.877  68.267  1.00  0.00    -0.279 S  
HETATM    3  H1  UNL     1      -6.649  19.034  70.270  1.00  0.00     0.000 HD 
HETATM    4  H2  UNL     1      -7.429  20.687  70.380  1.00  0.00     0.000 HD 
HETATM    5  O   UNL     1      -6.944  21.144  67.726  1.00  0.00    -0.311 OA 
HETATM    6  O   UNL     1      -5.130  19.457  68.218  1.00  0.00    -0.175 OA 
ENDROOT
BRANCH   2   7
HETATM    7  C   UNL     1      -7.530  18.599  67.611  1.00  0.00    -0.229 A  
HETATM    8  C   UNL     1      -7.545  18.333  66.240  1.00  0.00    -0.256 A  
HETATM    9  C   UNL     1      -8.337  17.291  65.754  1.00  0.00     0.210 A  
HETATM   10 CL   UNL     1      -6.641  19.221  65.062  1.00  0.00    -0.257 Cl 
HETATM   11  C   UNL     1      -9.110  16.493  66.608  1.00  0.00    -0.255 A  
HETATM   12  N   UNL     1      -9.882  15.500  66.044  1.00  0.00    -0.308 NA 
HETATM   13  H   UNL     1      -9.842  15.390  65.031  1.00  0.00     0.000 HD 
HETATM   14  C   UNL     1     -10.744  14.599  66.780  1.00  0.00    -0.301 C  
HETATM   15  C   UNL     1      -8.352  17.856  68.478  1.00  0.00    -0.305 A  
HETATM   16  N   UNL     1     -11.399  15.328  67.853  1.00  0.00    -0.331 N  
HETATM   17  O   UNL     1      -9.537  14.767  69.486  1.00  0.00    -0.077 OA 
HETATM   18  S   UNL     1     -10.256  15.913  68.969  1.00  0.00    -0.244 S  
HETATM   19  H   UNL     1     -12.407  15.469  67.927  1.00  0.00     0.000 HD 
HETATM   20  C   UNL     1      -9.148  16.827  67.954  1.00  0.00    -0.224 A  
HETATM   21  O   UNL     1     -10.953  16.830  69.841  1.00  0.00    -0.293 OA 
BRANCH  14  22
HETATM   22  C   UNL     1     -11.748  13.868  65.820  1.00  0.00    -0.369 C  
HETATM   23  C   UNL     1     -11.683  12.337  66.136  1.00  0.00    -0.440 C  
HETATM   24  C   UNL     1     -11.021  11.757  64.861  1.00  0.00    -0.358 C  
HETATM   25  C   UNL     1     -10.303  12.907  64.148  1.00  0.00    -0.385 C  
HETATM   26  C   UNL     1     -11.499  13.852  64.275  1.00  0.00    -0.336 C  
HETATM   27  C   UNL     1     -12.485  12.911  63.566  1.00  0.00    -0.430 C  
HETATM   28  C   UNL     1     -12.163  11.643  63.885  1.00  0.00    -0.274 C  
ENDBRANCH  14  22
ENDBRANCH   2   7
TORSDOF 2
ENDMDL
MODEL       46
REMARK 921   NORMALIZED FREE ENERGY PREDICTED BY IDOCK:   -5.91 KCAL/MOL
REMARK 922        TOTAL FREE ENERGY PREDICTED BY IDOCK:   -6.67 KCAL/MOL
REMARK 923 INTER-LIGAND FREE ENERGY PREDICTED BY IDOCK:   -6.25 KCAL/MOL
REMARK 924 INTRA-LIGAND FREE ENERGY PREDICTED BY IDOCK:   -0.41 KCAL/MOL
REMARK 927      BINDING AFFINITY PREDICTED BY RF-SCORE:    0.00 PKD
ROOT
HETATM    1  N   UNL     1      -9.998  10.781  68.068  1.00  0.00    -0.161 N  
HETATM    2  S   UNL     1     -10.996  11.490  66.915  1.00  0.00    -0.305 S  
HETATM    3  H1  UNL     1     -10.093  11.373  68.893  1.00  0.00     0.000 HD 
HETATM    4  H2  UNL     1      -9.424   9.944  67.965  1.00  0.00     0.000 HD 
HETATM    5  O   UNL     1     -10.860  10.652  65.746  1.00  0.00    -0.091 OA 
HETATM    6  O   UNL     1     -12.272  11.727  67.542  1.00  0.00    -0.526 OA 
ENDROOT
BRANCH   2   7
HETATM    7  C   UNL     1     -10.207  13.035  66.598  1.00  0.00    -0.257 A  
HETATM    8  C   UNL     1     -10.662  13.871  65.576  1.00  0.00    -0.302 A  
HETATM    9  C   UNL     1     -10.040  15.103  65.373  1.00  0.00    -0.384 A  
HETATM   10 CL   UNL     1     -11.967  13.486  64.507  1.00  0.00    -0.426 Cl 
HETATM   11  C   UNL     1      -8.976  15.534  66.177  1.00  0.00    -0.294 A  
HETATM   12  N   UNL     1      -8.403  16.755  65.895  1.00  0.00    -0.441 NA 
HETATM   13  H   UNL     1      -8.791  17.289  65.117  1.00  0.00     0.000 HD 
HETATM   14  C   UNL     1      -7.292  17.338  66.617  1.00  0.00    -0.247 C  
HETATM   15  C   UNL     1      -9.095  13.416  67.372  1.00  0.00    -0.216 A  
HETATM   16  N   UNL     1      -6.339  16.296  66.959  1.00  0.00    -0.157 N  
HETATM   17  O   UNL     1      -7.475  15.872  69.190  1.00  0.00    -0.183 OA 
HETATM   18  S   UNL     1      -7.044  15.156  68.008  1.00  0.00    -0.144 S  
HETATM   19  H   UNL     1      -5.378  16.254  66.618  1.00  0.00     0.000 HD 
HETATM   20  C   UNL     1      -8.484  14.654  67.130  1.00  0.00    -0.221 A  
HETATM   21  O   UNL     1      -6.132  14.038  68.084  1.00  0.00    -0.104 OA 
BRANCH  14  22
HETATM   22  C   UNL     1      -6.654  18.524  65.811  1.00  0.00    -0.312 C  
HETATM   23  C   UNL     1      -5.355  18.968  66.560  1.00  0.00    -0.162 C  
HETATM   24  C   UNL     1      -5.737  20.369  67.100  1.00  0.00    -0.200 C  
HETATM   25  C   UNL     1      -7.266  20.459  67.110  1.00  0.00    -0.347 C  
HETATM   26  C   UNL     1      -7.399  19.896  65.695  1.00  0.00    -0.316 C  
HETATM   27  C   UNL     1      -6.501  20.960  65.045  1.00  0.00    -0.203 C  
HETATM   28  C   UNL     1      -5.525  21.278  65.916  1.00  0.00    -0.254 C  
ENDBRANCH  14  22
ENDBRANCH   2   7
TORSDOF 2
ENDMDL
MODEL       47
REMARK 921   NORMALIZED FREE ENERGY PREDICTED BY IDOCK:   -5.88 KCAL/MOL
REMARK 922        TOTAL FREE ENERGY PREDICTED BY IDOCK:   -6.64 KCAL/MOL
REMARK 923 INTER-LIGAND FREE ENERGY PREDICTED BY IDOCK:   -6.22 KCAL/MOL
REMARK 924 INTRA-LIGAND FREE ENERGY PREDICTED BY IDOCK:   -0.42 KCAL/MOL
REMARK 927      BINDING AFFINITY PREDICTED BY RF-SCORE:    0.00 PKD
ROOT
HETATM    1  N   UNL     1      -9.425   3.924  70.458  1.00  0.00    -0.166 N  
HETATM    2  S   UNL     1      -9.591   4.845  71.855  1.00  0.00    -0.159 S  
HETATM    3  H1  UNL     1      -8.591   4.292  70.002  1.00  0.00     0.000 HD 
HETATM    4  H2  UNL     1     -10.026   3.164  70.138  1.00  0.00     0.000 HD 
HETATM    5  O   UNL     1     -10.774   4.322  72.501  1.00  0.00    -0.151 OA 
HETATM    6  O   UNL     1      -8.307   4.862  72.510  1.00  0.00    -0.116 OA 
ENDROOT
BRANCH   2   7
HETATM    7  C   UNL     1      -9.950   6.455  71.233  1.00  0.00    -0.182 A  
HETATM    8  C   UNL     1     -10.291   7.494  72.101  1.00  0.00    -0.210 A  
HETATM    9  C   UNL     1     -10.535   8.766  71.582  1.00  0.00    -0.387 A  
HETATM   10 CL   UNL     1     -10.449   7.323  73.816  1.00  0.00    -0.396 Cl 
HETATM   11  C   UNL     1     -10.433   9.035  70.210  1.00  0.00    -0.215 A  
HETATM   12  N   UNL     1     -10.712  10.313  69.777  1.00  0.00    -0.268 NA 
HETATM   13  H   UNL     1     -10.970  11.004  70.483  1.00  0.00     0.000 HD 
HETATM   14  C   UNL     1     -10.666  10.752  68.398  1.00  0.00    -0.217 C  
HETATM   15  C   UNL     1      -9.910   6.685  69.846  1.00  0.00    -0.180 A  
HETATM   16  N   UNL     1     -11.192   9.704  67.541  1.00  0.00    -0.374 N  
HETATM   17  O   UNL     1      -8.885   8.691  67.221  1.00  0.00    -0.131 OA 
HETATM   18  S   UNL     1     -10.220   8.310  67.631  1.00  0.00    -0.246 S  
HETATM   19  H   UNL     1     -12.029   9.791  66.964  1.00  0.00     0.000 HD 
HETATM   20  C   UNL     1     -10.176   7.972  69.357  1.00  0.00    -0.210 A  
HETATM   21  O   UNL     1     -10.946   7.250  66.968  1.00  0.00    -0.358 OA 
BRANCH  14  22
HETATM   22  C   UNL     1     -11.400  12.129  68.219  1.00  0.00    -0.343 C  
HETATM   23  C   UNL     1     -11.715  12.308  66.698  1.00  0.00    -0.417 C  
HETATM   24  C   UNL     1     -10.775  13.470  66.292  1.00  0.00    -0.288 C  
HETATM   25  C   UNL     1      -9.668  13.560  67.347  1.00  0.00    -0.229 C  
HETATM   26  C   UNL     1     -10.651  13.471  68.515  1.00  0.00    -0.257 C  
HETATM   27  C   UNL     1     -11.489  14.681  68.074  1.00  0.00    -0.346 C  
HETATM   28  C   UNL     1     -11.522  14.704  66.728  1.00  0.00    -0.371 C  
ENDBRANCH  14  22
ENDBRANCH   2   7
TORSDOF 2
ENDMDL
MODEL       48
REMARK 921   NORMALIZED FREE ENERGY PREDICTED BY IDOCK:   -5.87 KCAL/MOL
REMARK 922        TOTAL FREE ENERGY PREDICTED BY IDOCK:   -6.62 KCAL/MOL
REMARK 923 INTER-LIGAND FREE ENERGY PREDICTED BY IDOCK:   -6.41 KCAL/MOL
REMARK 924 INTRA-LIGAND FREE ENERGY PREDICTED BY IDOCK:   -0.22 KCAL/MOL
REMARK 927      BINDING AFFINITY PREDICTED BY RF-SCORE:    0.00 PKD
ROOT
HETATM    1  N   UNL     1     -10.519   9.052  66.621  1.00  0.00    -0.216 N  
HETATM    2  S   UNL     1      -9.042   9.552  65.991  1.00  0.00    -0.192 S  
HETATM    3  H1  UNL     1     -11.210   9.360  65.938  1.00  0.00     0.000 HD 
HETATM    4  H2  UNL     1     -10.686   8.551  67.494  1.00  0.00     0.000 HD 
HETATM    5  O   UNL     1      -8.062   9.115  66.959  1.00  0.00    -0.108 OA 
HETATM    6  O   UNL     1      -8.999   9.125  64.614  1.00  0.00    -0.192 OA 
ENDROOT
BRANCH   2   7
HETATM    7  C   UNL     1      -9.155  11.310  66.052  1.00  0.00    -0.209 A  
HETATM    8  C   UNL     1     -10.078  11.993  65.257  1.00  0.00    -0.260 A  
HETATM    9  C   UNL     1     -10.169  13.382  65.353  1.00  0.00    -0.311 A  
HETATM   10 CL   UNL     1     -11.143  11.232  64.125  1.00  0.00    -0.386 Cl 
HETATM   11  C   UNL     1      -9.366  14.113  66.238  1.00  0.00    -0.189 A  
HETATM   12  N   UNL     1      -9.503  15.485  66.255  1.00  0.00    -0.296 NA 
HETATM   13  H   UNL     1     -10.192  15.897  65.626  1.00  0.00     0.000 HD 
HETATM   14  C   UNL     1      -8.744  16.385  67.098  1.00  0.00    -0.186 C  
HETATM   15  C   UNL     1      -8.290  12.030  66.896  1.00  0.00    -0.159 A  
HETATM   16  N   UNL     1      -7.370  15.921  67.184  1.00  0.00    -0.211 N  
HETATM   17  O   UNL     1      -7.879  14.533  69.248  1.00  0.00    -0.115 OA 
HETATM   18  S   UNL     1      -7.297  14.394  67.930  1.00  0.00    -0.173 S  
HETATM   19  H   UNL     1      -6.560  16.440  66.844  1.00  0.00     0.000 HD 
HETATM   20  C   UNL     1      -8.398  13.427  66.956  1.00  0.00    -0.075 A  
HETATM   21  O   UNL     1      -5.952  13.899  67.741  1.00  0.00    -0.178 OA 
BRANCH  14  22
HETATM   22  C   UNL     1      -8.869  17.868  66.597  1.00  0.00    -0.285 C  
HETATM   23  C   UNL     1      -8.219  18.794  67.676  1.00  0.00    -0.282 C  
HETATM   24  C   UNL     1      -9.441  19.548  68.256  1.00  0.00    -0.442 C  
HETATM   25  C   UNL     1     -10.693  18.735  67.912  1.00  0.00    -0.347 C  
HETATM   26  C   UNL     1     -10.276  18.540  66.454  1.00  0.00    -0.449 C  
HETATM   27  C   UNL     1     -10.143  20.041  66.154  1.00  0.00    -0.588 C  
HETATM   28  C   UNL     1      -9.683  20.654  67.261  1.00  0.00    -0.562 C  
ENDBRANCH  14  22
ENDBRANCH   2   7
TORSDOF 2
ENDMDL
MODEL       49
REMARK 921   NORMALIZED FREE ENERGY PREDICTED BY IDOCK:   -5.86 KCAL/MOL
REMARK 922        TOTAL FREE ENERGY PREDICTED BY IDOCK:   -6.62 KCAL/MOL
REMARK 923 INTER-LIGAND FREE ENERGY PREDICTED BY IDOCK:   -6.35 KCAL/MOL
REMARK 924 INTRA-LIGAND FREE ENERGY PREDICTED BY IDOCK:   -0.26 KCAL/MOL
REMARK 927      BINDING AFFINITY PREDICTED BY RF-SCORE:    0.00 PKD
ROOT
HETATM    1  N   UNL     1      -9.759   6.024  71.971  1.00  0.00    -0.156 N  
HETATM    2  S   UNL     1     -11.157   6.923  72.230  1.00  0.00    -0.259 S  
HETATM    3  H1  UNL     1      -9.010   6.587  72.374  1.00  0.00     0.000 HD 
HETATM    4  H2  UNL     1      -9.678   5.116  71.514  1.00  0.00     0.000 HD 
HETATM    5  O   UNL     1     -12.218   6.124  71.660  1.00  0.00    -0.199 OA 
HETATM    6  O   UNL     1     -11.159   7.319  73.616  1.00  0.00    -0.221 OA 
ENDROOT
BRANCH   2   7
HETATM    7  C   UNL     1     -10.911   8.345  71.218  1.00  0.00    -0.252 A  
HETATM    8  C   UNL     1     -11.752   9.454  71.331  1.00  0.00    -0.378 A  
HETATM    9  C   UNL     1     -11.511  10.579  70.542  1.00  0.00    -0.433 A  
HETATM   10 CL   UNL     1     -13.112   9.544  72.398  1.00  0.00    -0.475 Cl 
HETATM   11  C   UNL     1     -10.436  10.633  69.643  1.00  0.00    -0.179 A  
HETATM   12  N   UNL     1     -10.282  11.773  68.885  1.00  0.00    -0.378 NA 
HETATM   13  H   UNL     1     -10.956  12.526  69.024  1.00  0.00     0.000 HD 
HETATM   14  C   UNL     1      -9.237  11.984  67.905  1.00  0.00    -0.190 C  
HETATM   15  C   UNL     1      -9.869   8.350  70.272  1.00  0.00    -0.188 A  
HETATM   16  N   UNL     1      -8.999  10.748  67.180  1.00  0.00    -0.140 N  
HETATM   17  O   UNL     1      -7.209  10.025  68.830  1.00  0.00    -0.072 OA 
HETATM   18  S   UNL     1      -8.431   9.535  68.230  1.00  0.00    -0.119 S  
HETATM   19  H   UNL     1      -9.151  10.624  66.179  1.00  0.00     0.000 HD 
HETATM   20  C   UNL     1      -9.665   9.491  69.484  1.00  0.00    -0.190 A  
HETATM   21  O   UNL     1      -8.472   8.291  67.494  1.00  0.00    -0.127 OA 
BRANCH  14  22
HETATM   22  C   UNL     1      -9.577  13.198  66.969  1.00  0.00    -0.241 C  
HETATM   23  C   UNL     1     -10.847  13.905  67.546  1.00  0.00    -0.274 C  
HETATM   24  C   UNL     1     -11.923  13.590  66.478  1.00  0.00    -0.460 C  
HETATM   25  C   UNL     1     -11.436  12.383  65.671  1.00  0.00    -0.412 C  
HETATM   26  C   UNL     1     -10.030  12.957  65.491  1.00  0.00    -0.226 C  
HETATM   27  C   UNL     1     -10.506  14.265  64.839  1.00  0.00    -0.454 C  
HETATM   28  C   UNL     1     -11.675  14.619  65.405  1.00  0.00    -0.330 C  
ENDBRANCH  14  22
ENDBRANCH   2   7
TORSDOF 2
ENDMDL
MODEL       50
REMARK 921   NORMALIZED FREE ENERGY PREDICTED BY IDOCK:   -5.84 KCAL/MOL
REMARK 922        TOTAL FREE ENERGY PREDICTED BY IDOCK:   -6.59 KCAL/MOL
REMARK 923 INTER-LIGAND FREE ENERGY PREDICTED BY IDOCK:   -6.20 KCAL/MOL
REMARK 924 INTRA-LIGAND FREE ENERGY PREDICTED BY IDOCK:   -0.40 KCAL/MOL
REMARK 927      BINDING AFFINITY PREDICTED BY RF-SCORE:    0.00 PKD
ROOT
HETATM    1  N   UNL     1     -12.876   7.258  70.904  1.00  0.00    -0.599 N  
HETATM    2  S   UNL     1     -11.246   6.871  70.760  1.00  0.00    -0.313 S  
HETATM    3  H1  UNL     1     -13.195   7.401  69.946  1.00  0.00     0.000 HD 
HETATM    4  H2  UNL     1     -13.425   7.333  71.760  1.00  0.00     0.000 HD 
HETATM    5  O   UNL     1     -10.795   6.669  72.118  1.00  0.00    -0.217 OA 
HETATM    6  O   UNL     1     -11.139   5.841  69.757  1.00  0.00    -0.369 OA 
ENDROOT
BRANCH   2   7
HETATM    7  C   UNL     1     -10.534   8.361  70.142  1.00  0.00    -0.228 A  
HETATM    8  C   UNL     1      -9.163   8.443  69.887  1.00  0.00    -0.151 A  
HETATM    9  C   UNL     1      -8.635   9.624  69.365  1.00  0.00    -0.160 A  
HETATM   10 CL   UNL     1      -8.036   7.164  70.184  1.00  0.00    -0.127 Cl 
HETATM   11  C   UNL     1      -9.445  10.730  69.074  1.00  0.00    -0.166 A  
HETATM   12  N   UNL     1      -8.840  11.865  68.581  1.00  0.00    -0.352 NA 
HETATM   13  H   UNL     1      -7.829  11.839  68.444  1.00  0.00     0.000 HD 
HETATM   14  C   UNL     1      -9.528  13.093  68.243  1.00  0.00    -0.210 C  
HETATM   15  C   UNL     1     -11.356   9.482  69.924  1.00  0.00    -0.161 A  
HETATM   16  N   UNL     1     -10.568  13.349  69.225  1.00  0.00    -0.444 N  
HETATM   17  O   UNL     1     -12.292  12.088  67.852  1.00  0.00    -0.338 OA 
HETATM   18  S   UNL     1     -11.743  12.119  69.191  1.00  0.00    -0.326 S  
HETATM   19  H   UNL     1     -10.591  14.156  69.849  1.00  0.00     0.000 HD 
HETATM   20  C   UNL     1     -10.788  10.658  69.413  1.00  0.00    -0.246 A  
HETATM   21  O   UNL     1     -12.581  12.308  70.353  1.00  0.00    -0.158 OA 
BRANCH  14  22
HETATM   22  C   UNL     1      -8.516  14.283  68.085  1.00  0.00    -0.167 C  
HETATM   23  C   UNL     1      -8.865  15.356  69.168  1.00  0.00    -0.249 C  
HETATM   24  C   UNL     1      -9.409  16.531  68.318  1.00  0.00    -0.217 C  
HETATM   25  C   UNL     1      -9.822  15.965  66.956  1.00  0.00    -0.236 C  
HETATM   26  C   UNL     1      -8.527  15.168  66.794  1.00  0.00    -0.272 C  
HETATM   27  C   UNL     1      -7.604  16.386  66.949  1.00  0.00    -0.275 C  
HETATM   28  C   UNL     1      -8.163  17.230  67.836  1.00  0.00    -0.219 C  
ENDBRANCH  14  22
ENDBRANCH   2   7
TORSDOF 2
ENDMDL
MODEL       51
REMARK 921   NORMALIZED FREE ENERGY PREDICTED BY IDOCK:   -5.83 KCAL/MOL
REMARK 922        TOTAL FREE ENERGY PREDICTED BY IDOCK:   -6.58 KCAL/MOL
REMARK 923 INTER-LIGAND FREE ENERGY PREDICTED BY IDOCK:   -6.14 KCAL/MOL
REMARK 924 INTRA-LIGAND FREE ENERGY PREDICTED BY IDOCK:   -0.44 KCAL/MOL
REMARK 927      BINDING AFFINITY PREDICTED BY RF-SCORE:    0.00 PKD
ROOT
HETATM    1  N   UNL     1     -11.488   6.619  66.875  1.00  0.00    -0.767 N  
HETATM    2  S   UNL     1     -10.608   6.582  68.308  1.00  0.00    -0.277 S  
HETATM    3  H1  UNL     1     -10.795   6.804  66.150  1.00  0.00     0.000 HD 
HETATM    4  H2  UNL     1     -12.492   6.486  66.757  1.00  0.00     0.000 HD 
HETATM    5  O   UNL     1     -11.590   6.321  69.335  1.00  0.00    -0.403 OA 
HETATM    6  O   UNL     1      -9.477   5.714  68.092  1.00  0.00    -0.107 OA 
ENDROOT
BRANCH   2   7
HETATM    7  C   UNL     1     -10.043   8.244  68.473  1.00  0.00    -0.197 A  
HETATM    8  C   UNL     1      -9.174   8.601  69.507  1.00  0.00    -0.150 A  
HETATM    9  C   UNL     1      -8.716   9.917  69.591  1.00  0.00    -0.218 A  
HETATM   10 CL   UNL     1      -8.611   7.514  70.730  1.00  0.00    -0.134 Cl 
HETATM   11  C   UNL     1      -9.093  10.890  68.656  1.00  0.00    -0.175 A  
HETATM   12  N   UNL     1      -8.614  12.171  68.825  1.00  0.00    -0.367 NA 
HETATM   13  H   UNL     1      -7.998  12.342  69.620  1.00  0.00     0.000 HD 
HETATM   14  C   UNL     1      -8.916  13.292  67.959  1.00  0.00    -0.191 C  
HETATM   15  C   UNL     1     -10.490   9.221  67.565  1.00  0.00    -0.338 A  
HETATM   16  N   UNL     1     -10.309  13.225  67.553  1.00  0.00    -0.228 N  
HETATM   17  O   UNL     1      -9.728  11.875  65.482  1.00  0.00    -0.233 OA 
HETATM   18  S   UNL     1     -10.601  11.822  66.636  1.00  0.00    -0.251 S  
HETATM   19  H   UNL     1     -11.016  13.923  67.785  1.00  0.00     0.000 HD 
HETATM   20  C   UNL     1     -10.022  10.536  67.688  1.00  0.00    -0.173 A  
HETATM   21  O   UNL     1     -12.035  11.701  66.500  1.00  0.00    -0.474 OA 
BRANCH  14  22
HETATM   22  C   UNL     1      -8.532  14.652  68.643  1.00  0.00    -0.164 C  
HETATM   23  C   UNL     1      -9.679  15.675  68.350  1.00  0.00    -0.202 C  
HETATM   24  C   UNL     1      -8.997  16.684  67.394  1.00  0.00    -0.204 C  
HETATM   25  C   UNL     1      -7.768  15.995  66.793  1.00  0.00    -0.270 C  
HETATM   26  C   UNL     1      -7.291  15.466  68.146  1.00  0.00    -0.122 C  
HETATM   27  C   UNL     1      -7.233  16.849  68.814  1.00  0.00    -0.220 C  
HETATM   28  C   UNL     1      -8.238  17.598  68.321  1.00  0.00    -0.276 C  
ENDBRANCH  14  22
ENDBRANCH   2   7
TORSDOF 2
ENDMDL
MODEL       52
REMARK 921   NORMALIZED FREE ENERGY PREDICTED BY IDOCK:   -5.70 KCAL/MOL
REMARK 922        TOTAL FREE ENERGY PREDICTED BY IDOCK:   -6.44 KCAL/MOL
REMARK 923 INTER-LIGAND FREE ENERGY PREDICTED BY IDOCK:   -6.38 KCAL/MOL
REMARK 924 INTRA-LIGAND FREE ENERGY PREDICTED BY IDOCK:   -0.06 KCAL/MOL
REMARK 927      BINDING AFFINITY PREDICTED BY RF-SCORE:    0.00 PKD
ROOT
HETATM    1  N   UNL     1     -11.203   5.171  65.874  1.00  0.00    -0.790 N  
HETATM    2  S   UNL     1      -9.954   5.497  66.952  1.00  0.00    -0.201 S  
HETATM    3  H1  UNL     1     -10.830   5.426  64.960  1.00  0.00     0.000 HD 
HETATM    4  H2  UNL     1     -12.129   4.800  66.088  1.00  0.00     0.000 HD 
HETATM    5  O   UNL     1     -10.483   5.136  68.247  1.00  0.00    -0.115 OA 
HETATM    6  O   UNL     1      -8.760   4.890  66.417  1.00  0.00    -0.113 OA 
ENDROOT
BRANCH   2   7
HETATM    7  C   UNL     1      -9.802   7.251  66.870  1.00  0.00    -0.214 A  
HETATM    8  C   UNL     1      -9.093   7.857  65.830  1.00  0.00    -0.087 A  
HETATM    9  C   UNL     1      -9.020   9.249  65.773  1.00  0.00    -0.234 A  
HETATM   10 CL   UNL     1      -8.267   6.994  64.578  1.00  0.00    -0.055 Cl 
HETATM   11  C   UNL     1      -9.652  10.061  66.725  1.00  0.00    -0.181 A  
HETATM   12  N   UNL     1      -9.511  11.427  66.608  1.00  0.00    -0.185 NA 
HETATM   13  H   UNL     1      -8.960  11.778  65.825  1.00  0.00     0.000 HD 
HETATM   14  C   UNL     1     -10.087  12.401  67.511  1.00  0.00    -0.202 C  
HETATM   15  C   UNL     1     -10.385   8.044  67.875  1.00  0.00    -0.282 A  
HETATM   16  N   UNL     1      -9.999  11.907  68.874  1.00  0.00    -0.409 N  
HETATM   17  O   UNL     1     -12.284  10.810  68.713  1.00  0.00    -0.460 OA 
HETATM   18  S   UNL     1     -10.916  10.485  69.058  1.00  0.00    -0.261 S  
HETATM   19  H   UNL     1      -9.462  12.351  69.618  1.00  0.00     0.000 HD 
HETATM   20  C   UNL     1     -10.279   9.440  67.795  1.00  0.00    -0.222 A  
HETATM   21  O   UNL     1     -10.568   9.926  70.345  1.00  0.00    -0.274 OA 
BRANCH  14  22
HETATM   22  C   UNL     1      -9.425  13.812  67.317  1.00  0.00    -0.236 C  
HETATM   23  C   UNL     1     -10.036  14.778  68.384  1.00  0.00    -0.225 C  
HETATM   24  C   UNL     1     -10.876  15.750  67.518  1.00  0.00    -0.315 C  
HETATM   25  C   UNL     1     -11.136  15.065  66.173  1.00  0.00    -0.329 C  
HETATM   26  C   UNL     1      -9.678  14.633  66.009  1.00  0.00    -0.340 C  
HETATM   27  C   UNL     1      -9.106  16.054  66.129  1.00  0.00    -0.387 C  
HETATM   28  C   UNL     1      -9.862  16.741  67.007  1.00  0.00    -0.262 C  
ENDBRANCH  14  22
ENDBRANCH   2   7
TORSDOF 2
ENDMDL
MODEL       53
REMARK 921   NORMALIZED FREE ENERGY PREDICTED BY IDOCK:   -5.68 KCAL/MOL
REMARK 922        TOTAL FREE ENERGY PREDICTED BY IDOCK:   -6.41 KCAL/MOL
REMARK 923 INTER-LIGAND FREE ENERGY PREDICTED BY IDOCK:   -6.48 KCAL/MOL
REMARK 924 INTRA-LIGAND FREE ENERGY PREDICTED BY IDOCK:    0.07 KCAL/MOL
REMARK 927      BINDING AFFINITY PREDICTED BY RF-SCORE:    0.00 PKD
ROOT
HETATM    1  N   UNL     1     -10.490   4.121  65.858  1.00  0.00    -0.451 N  
HETATM    2  S   UNL     1      -9.044   4.732  66.462  1.00  0.00    -0.127 S  
HETATM    3  H1  UNL     1     -10.537   4.466  64.900  1.00  0.00     0.000 HD 
HETATM    4  H2  UNL     1     -11.170   3.535  66.343  1.00  0.00     0.000 HD 
HETATM    5  O   UNL     1      -8.978   4.243  67.820  1.00  0.00    -0.107 OA 
HETATM    6  O   UNL     1      -8.019   4.437  65.492  1.00  0.00    -0.093 OA 
ENDROOT
BRANCH   2   7
HETATM    7  C   UNL     1      -9.329   6.471  66.498  1.00  0.00    -0.159 A  
HETATM    8  C   UNL     1     -10.234   7.026  67.405  1.00  0.00    -0.215 A  
HETATM    9  C   UNL     1     -10.412   8.410  67.434  1.00  0.00    -0.354 A  
HETATM   10 CL   UNL     1     -11.185   6.108  68.522  1.00  0.00    -0.364 Cl 
HETATM   11  C   UNL     1      -9.694   9.263  66.585  1.00  0.00    -0.219 A  
HETATM   12  N   UNL     1      -9.946  10.616  66.662  1.00  0.00    -0.205 NA 
HETATM   13  H   UNL     1     -10.638  10.928  67.344  1.00  0.00     0.000 HD 
HETATM   14  C   UNL     1      -9.303  11.628  65.850  1.00  0.00    -0.218 C  
HETATM   15  C   UNL     1      -8.650   7.303  65.588  1.00  0.00    -0.123 A  
HETATM   16  N   UNL     1      -9.140  11.128  64.497  1.00  0.00    -0.367 N  
HETATM   17  O   UNL     1      -6.839  10.196  65.029  1.00  0.00    -0.127 OA 
HETATM   18  S   UNL     1      -8.109   9.775  64.476  1.00  0.00    -0.156 S  
HETATM   19  H   UNL     1      -9.582  11.533  63.671  1.00  0.00     0.000 HD 
HETATM   20  C   UNL     1      -8.864   8.687  65.635  1.00  0.00    -0.187 A  
HETATM   21  O   UNL     1      -8.209   9.192  63.157  1.00  0.00    -0.156 OA 
BRANCH  14  22
HETATM   22  C   UNL     1     -10.085  12.989  65.921  1.00  0.00    -0.291 C  
HETATM   23  C   UNL     1     -11.473  12.709  66.583  1.00  0.00    -0.409 C  
HETATM   24  C   UNL     1     -12.458  12.926  65.408  1.00  0.00    -0.511 C  
HETATM   25  C   UNL     1     -11.660  12.807  64.106  1.00  0.00    -0.456 C  
HETATM   26  C   UNL     1     -10.535  13.713  64.609  1.00  0.00    -0.442 C  
HETATM   27  C   UNL     1     -11.455  14.903  64.922  1.00  0.00    -0.407 C  
HETATM   28  C   UNL     1     -12.634  14.422  65.360  1.00  0.00    -0.339 C  
ENDBRANCH  14  22
ENDBRANCH   2   7
TORSDOF 2
ENDMDL
MODEL       54
REMARK 921   NORMALIZED FREE ENERGY PREDICTED BY IDOCK:   -5.66 KCAL/MOL
REMARK 922        TOTAL FREE ENERGY PREDICTED BY IDOCK:   -6.39 KCAL/MOL
REMARK 923 INTER-LIGAND FREE ENERGY PREDICTED BY IDOCK:   -5.99 KCAL/MOL
REMARK 924 INTRA-LIGAND FREE ENERGY PREDICTED BY IDOCK:   -0.40 KCAL/MOL
REMARK 927      BINDING AFFINITY PREDICTED BY RF-SCORE:    0.00 PKD
ROOT
HETATM    1  N   UNL     1      -6.773   4.388  66.852  1.00  0.00    -0.050 N  
HETATM    2  S   UNL     1      -8.196   4.433  67.747  1.00  0.00    -0.098 S  
HETATM    3  H1  UNL     1      -6.206   5.147  67.228  1.00  0.00     0.000 HD 
HETATM    4  H2  UNL     1      -6.531   3.743  66.099  1.00  0.00     0.000 HD 
HETATM    5  O   UNL     1      -9.000   3.357  67.214  1.00  0.00    -0.124 OA 
HETATM    6  O   UNL     1      -7.823   4.491  69.139  1.00  0.00    -0.069 OA 
ENDROOT
BRANCH   2   7
HETATM    7  C   UNL     1      -8.919   5.969  67.273  1.00  0.00    -0.109 A  
HETATM    8  C   UNL     1     -10.041   6.465  67.941  1.00  0.00    -0.148 A  
HETATM    9  C   UNL     1     -10.569   7.701  67.566  1.00  0.00    -0.323 A  
HETATM   10 CL   UNL     1     -10.856   5.641  69.226  1.00  0.00    -0.361 Cl 
HETATM   11  C   UNL     1      -9.995   8.469  66.544  1.00  0.00    -0.280 A  
HETATM   12  N   UNL     1     -10.592   9.668  66.221  1.00  0.00    -0.064 NA 
HETATM   13  H   UNL     1     -11.420   9.940  66.752  1.00  0.00     0.000 HD 
HETATM   14  C   UNL     1     -10.135  10.571  65.185  1.00  0.00    -0.314 C  
HETATM   15  C   UNL     1      -8.369   6.690  66.198  1.00  0.00    -0.130 A  
HETATM   16  N   UNL     1      -9.683   9.802  64.039  1.00  0.00    -0.449 N  
HETATM   17  O   UNL     1      -7.303   9.724  64.923  1.00  0.00    -0.116 OA 
HETATM   18  S   UNL     1      -8.345   8.835  64.454  1.00  0.00    -0.127 S  
HETATM   19  H   UNL     1     -10.108   9.836  63.113  1.00  0.00     0.000 HD 
HETATM   20  C   UNL     1      -8.934   7.921  65.837  1.00  0.00    -0.123 A  
HETATM   21  O   UNL     1      -8.129   7.925  63.353  1.00  0.00    -0.147 OA 
BRANCH  14  22
HETATM   22  C   UNL     1     -11.241  11.627  64.828  1.00  0.00    -0.300 C  
HETATM   23  C   UNL     1     -10.586  12.715  63.915  1.00  0.00    -0.460 C  
HETATM   24  C   UNL     1     -10.576  13.964  64.830  1.00  0.00    -0.444 C  
HETATM   25  C   UNL     1     -10.713  13.480  66.276  1.00  0.00    -0.288 C  
HETATM   26  C   UNL     1     -11.865  12.530  65.945  1.00  0.00    -0.489 C  
HETATM   27  C   UNL     1     -12.762  13.620  65.337  1.00  0.00    -0.500 C  
HETATM   28  C   UNL     1     -11.976  14.511  64.704  1.00  0.00    -0.478 C  
ENDBRANCH  14  22
ENDBRANCH   2   7
TORSDOF 2
ENDMDL
MODEL       55
REMARK 921   NORMALIZED FREE ENERGY PREDICTED BY IDOCK:   -5.57 KCAL/MOL
REMARK 922        TOTAL FREE ENERGY PREDICTED BY IDOCK:   -6.30 KCAL/MOL
REMARK 923 INTER-LIGAND FREE ENERGY PREDICTED BY IDOCK:   -6.24 KCAL/MOL
REMARK 924 INTRA-LIGAND FREE ENERGY PREDICTED BY IDOCK:   -0.06 KCAL/MOL
REMARK 927      BINDING AFFINITY PREDICTED BY RF-SCORE:    0.00 PKD
ROOT
HETATM    1  N   UNL     1      -7.855  19.006  67.743  1.00  0.00    -0.248 N  
HETATM    2  S   UNL     1      -8.303  18.166  66.357  1.00  0.00    -0.211 S  
HETATM    3  H1  UNL     1      -6.952  18.613  68.005  1.00  0.00     0.000 HD 
HETATM    4  H2  UNL     1      -8.374  19.745  68.218  1.00  0.00     0.000 HD 
HETATM    5  O   UNL     1      -9.583  18.723  65.986  1.00  0.00    -0.477 OA 
HETATM    6  O   UNL     1      -7.172  18.187  65.462  1.00  0.00    -0.539 OA 
ENDROOT
BRANCH   2   7
HETATM    7  C   UNL     1      -8.548  16.523  66.946  1.00  0.00    -0.207 A  
HETATM    8  C   UNL     1      -7.461  15.727  67.314  1.00  0.00    -0.217 A  
HETATM    9  C   UNL     1      -7.689  14.443  67.810  1.00  0.00    -0.172 A  
HETATM   10 CL   UNL     1      -5.806  16.219  67.192  1.00  0.00    -0.157 Cl 
HETATM   11  C   UNL     1      -8.984  13.932  67.964  1.00  0.00    -0.184 A  
HETATM   12  N   UNL     1      -9.121  12.646  68.440  1.00  0.00    -0.321 NA 
HETATM   13  H   UNL     1      -8.268  12.134  68.666  1.00  0.00     0.000 HD 
HETATM   14  C   UNL     1     -10.383  11.966  68.645  1.00  0.00    -0.203 C  
HETATM   15  C   UNL     1      -9.854  16.004  67.026  1.00  0.00    -0.240 A  
HETATM   16  N   UNL     1     -11.292  12.301  67.563  1.00  0.00    -0.303 N  
HETATM   17  O   UNL     1     -12.231  14.278  68.852  1.00  0.00    -0.306 OA 
HETATM   18  S   UNL     1     -11.642  13.967  67.567  1.00  0.00    -0.382 S  
HETATM   19  H   UNL     1     -11.670  11.631  66.893  1.00  0.00     0.000 HD 
HETATM   20  C   UNL     1     -10.046  14.704  67.514  1.00  0.00    -0.224 A  
HETATM   21  O   UNL     1     -12.328  14.253  66.327  1.00  0.00    -0.443 OA 
BRANCH  14  22
HETATM   22  C   UNL     1     -10.169  10.420  68.821  1.00  0.00    -0.201 C  
HETATM   23  C   UNL     1      -8.630  10.143  68.784  1.00  0.00    -0.133 C  
HETATM   24  C   UNL     1      -8.456   9.379  67.447  1.00  0.00    -0.125 C  
HETATM   25  C   UNL     1      -9.682   9.679  66.580  1.00  0.00    -0.272 C  
HETATM   26  C   UNL     1     -10.665   9.421  67.722  1.00  0.00    -0.290 C  
HETATM   27  C   UNL     1     -10.166   7.996  68.006  1.00  0.00    -0.260 C  
HETATM   28  C   UNL     1      -8.837   7.963  67.792  1.00  0.00    -0.122 C  
ENDBRANCH  14  22
ENDBRANCH   2   7
TORSDOF 2
ENDMDL
MODEL       56
REMARK 921   NORMALIZED FREE ENERGY PREDICTED BY IDOCK:   -5.49 KCAL/MOL
REMARK 922        TOTAL FREE ENERGY PREDICTED BY IDOCK:   -6.21 KCAL/MOL
REMARK 923 INTER-LIGAND FREE ENERGY PREDICTED BY IDOCK:   -6.13 KCAL/MOL
REMARK 924 INTRA-LIGAND FREE ENERGY PREDICTED BY IDOCK:   -0.08 KCAL/MOL
REMARK 927      BINDING AFFINITY PREDICTED BY RF-SCORE:    0.00 PKD
ROOT
HETATM    1  N   UNL     1     -10.196  10.072  66.535  1.00  0.00    -0.233 N  
HETATM    2  S   UNL     1     -10.583  10.922  67.934  1.00  0.00    -0.225 S  
HETATM    3  H1  UNL     1      -9.213   9.826  66.644  1.00  0.00     0.000 HD 
HETATM    4  H2  UNL     1     -10.811   9.851  65.751  1.00  0.00     0.000 HD 
HETATM    5  O   UNL     1     -11.977  11.270  67.780  1.00  0.00    -0.637 OA 
HETATM    6  O   UNL     1     -10.108  10.143  69.051  1.00  0.00    -0.183 OA 
ENDROOT
BRANCH   2   7
HETATM    7  C   UNL     1      -9.613  12.387  67.792  1.00  0.00    -0.202 A  
HETATM    8  C   UNL     1      -8.246  12.367  68.078  1.00  0.00    -0.168 A  
HETATM    9  C   UNL     1      -7.498  13.535  67.922  1.00  0.00    -0.153 A  
HETATM   10 CL   UNL     1      -7.384  10.973  68.632  1.00  0.00    -0.096 Cl 
HETATM   11  C   UNL     1      -8.079  14.728  67.473  1.00  0.00    -0.181 A  
HETATM   12  N   UNL     1      -7.274  15.842  67.369  1.00  0.00    -0.176 NA 
HETATM   13  H   UNL     1      -6.289  15.736  67.616  1.00  0.00     0.000 HD 
HETATM   14  C   UNL     1      -7.717  17.150  66.934  1.00  0.00    -0.221 C  
HETATM   15  C   UNL     1     -10.231  13.591  67.408  1.00  0.00    -0.237 A  
HETATM   16  N   UNL     1      -9.037  17.417  67.480  1.00  0.00    -0.231 N  
HETATM   17  O   UNL     1     -10.174  16.431  65.434  1.00  0.00    -0.546 OA 
HETATM   18  S   UNL     1     -10.174  16.303  66.876  1.00  0.00    -0.292 S  
HETATM   19  H   UNL     1      -9.253  18.169  68.134  1.00  0.00     0.000 HD 
HETATM   20  C   UNL     1      -9.452  14.750  67.277  1.00  0.00    -0.214 A  
HETATM   21  O   UNL     1     -11.379  16.471  67.655  1.00  0.00    -0.119 OA 
BRANCH  14  22
HETATM   22  C   UNL     1      -6.660  18.254  67.296  1.00  0.00    -0.199 C  
HETATM   23  C   UNL     1      -7.362  19.305  68.217  1.00  0.00    -0.329 C  
HETATM   24  C   UNL     1      -7.431  20.558  67.309  1.00  0.00    -0.384 C  
HETATM   25  C   UNL     1      -7.275  20.089  65.860  1.00  0.00    -0.327 C  
HETATM   26  C   UNL     1      -6.081  19.191  66.184  1.00  0.00    -0.196 C  
HETATM   27  C   UNL     1      -5.233  20.316  66.796  1.00  0.00    -0.169 C  
HETATM   28  C   UNL     1      -6.058  21.167  67.436  1.00  0.00    -0.407 C  
ENDBRANCH  14  22
ENDBRANCH   2   7
TORSDOF 2
ENDMDL
MODEL       57
REMARK 921   NORMALIZED FREE ENERGY PREDICTED BY IDOCK:   -5.47 KCAL/MOL
REMARK 922        TOTAL FREE ENERGY PREDICTED BY IDOCK:   -6.18 KCAL/MOL
REMARK 923 INTER-LIGAND FREE ENERGY PREDICTED BY IDOCK:   -5.84 KCAL/MOL
REMARK 924 INTRA-LIGAND FREE ENERGY PREDICTED BY IDOCK:   -0.33 KCAL/MOL
REMARK 927      BINDING AFFINITY PREDICTED BY RF-SCORE:    0.00 PKD
ROOT
HETATM    1  N   UNL     1      -8.330   4.410  70.149  1.00  0.00    -0.065 N  
HETATM    2  S   UNL     1      -8.534   4.488  68.481  1.00  0.00    -0.089 S  
HETATM    3  H1  UNL     1      -9.277   4.400  70.526  1.00  0.00     0.000 HD 
HETATM    4  H2  UNL     1      -7.453   4.380  70.668  1.00  0.00     0.000 HD 
HETATM    5  O   UNL     1      -7.192   4.503  67.947  1.00  0.00    -0.063 OA 
HETATM    6  O   UNL     1      -9.489   3.470  68.120  1.00  0.00    -0.181 OA 
ENDROOT
BRANCH   2   7
HETATM    7  C   UNL     1      -9.258   6.077  68.240  1.00  0.00    -0.117 A  
HETATM    8  C   UNL     1      -9.565   6.533  66.956  1.00  0.00    -0.144 A  
HETATM    9  C   UNL     1     -10.170   7.781  66.799  1.00  0.00    -0.346 A  
HETATM   10 CL   UNL     1      -9.237   5.653  65.502  1.00  0.00    -0.083 Cl 
HETATM   11  C   UNL     1     -10.493   8.587  67.899  1.00  0.00    -0.201 A  
HETATM   12  N   UNL     1     -11.069   9.815  67.656  1.00  0.00    -0.455 NA 
HETATM   13  H   UNL     1     -11.240  10.070  66.683  1.00  0.00     0.000 HD 
HETATM   14  C   UNL     1     -11.451  10.770  68.675  1.00  0.00    -0.295 C  
HETATM   15  C   UNL     1      -9.510   6.899  69.354  1.00  0.00    -0.148 A  
HETATM   16  N   UNL     1     -10.449  10.778  69.727  1.00  0.00    -0.436 N  
HETATM   17  O   UNL     1     -11.689   8.991  71.038  1.00  0.00    -0.280 OA 
HETATM   18  S   UNL     1     -10.373   9.263  70.498  1.00  0.00    -0.277 S  
HETATM   19  H   UNL     1      -9.870  11.582  69.971  1.00  0.00     0.000 HD 
HETATM   20  C   UNL     1     -10.104   8.154  69.159  1.00  0.00    -0.202 A  
HETATM   21  O   UNL     1      -9.195   9.277  71.334  1.00  0.00    -0.282 OA 
BRANCH  14  22
HETATM   22  C   UNL     1     -11.710  12.187  68.052  1.00  0.00    -0.409 C  
HETATM   23  C   UNL     1     -11.641  12.045  66.496  1.00  0.00    -0.384 C  
HETATM   24  C   UNL     1     -10.347  12.820  66.143  1.00  0.00    -0.283 C  
HETATM   25  C   UNL     1      -9.502  12.916  67.416  1.00  0.00    -0.198 C  
HETATM   26  C   UNL     1     -10.688  13.352  68.278  1.00  0.00    -0.273 C  
HETATM   27  C   UNL     1     -11.039  14.571  67.411  1.00  0.00    -0.320 C  
HETATM   28  C   UNL     1     -10.786  14.261  66.125  1.00  0.00    -0.310 C  
ENDBRANCH  14  22
ENDBRANCH   2   7
TORSDOF 2
ENDMDL
MODEL       58
REMARK 921   NORMALIZED FREE ENERGY PREDICTED BY IDOCK:   -5.45 KCAL/MOL
REMARK 922        TOTAL FREE ENERGY PREDICTED BY IDOCK:   -6.16 KCAL/MOL
REMARK 923 INTER-LIGAND FREE ENERGY PREDICTED BY IDOCK:   -6.50 KCAL/MOL
REMARK 924 INTRA-LIGAND FREE ENERGY PREDICTED BY IDOCK:    0.34 KCAL/MOL
REMARK 927      BINDING AFFINITY PREDICTED BY RF-SCORE:    0.00 PKD
ROOT
HETATM    1  N   UNL     1      -8.598  11.096  65.009  1.00  0.00    -0.382 N  
HETATM    2  S   UNL     1     -10.133  10.433  65.194  1.00  0.00    -0.267 S  
HETATM    3  H1  UNL     1      -8.071  10.758  65.814  1.00  0.00     0.000 HD 
HETATM    4  H2  UNL     1      -8.268  11.702  64.258  1.00  0.00     0.000 HD 
HETATM    5  O   UNL     1     -10.880  10.913  64.053  1.00  0.00    -0.297 OA 
HETATM    6  O   UNL     1      -9.961   9.027  65.459  1.00  0.00    -0.088 OA 
ENDROOT
BRANCH   2   7
HETATM    7  C   UNL     1     -10.741  11.229  66.644  1.00  0.00    -0.272 A  
HETATM    8  C   UNL     1     -10.884  12.618  66.689  1.00  0.00    -0.258 A  
HETATM    9  C   UNL     1     -11.401  13.216  67.838  1.00  0.00    -0.321 A  
HETATM   10 CL   UNL     1     -10.451  13.686  65.397  1.00  0.00    -0.316 Cl 
HETATM   11  C   UNL     1     -11.795  12.459  68.950  1.00  0.00    -0.301 A  
HETATM   12  N   UNL     1     -12.275  13.130  70.054  1.00  0.00    -0.288 NA 
HETATM   13  H   UNL     1     -12.327  14.147  70.000  1.00  0.00     0.000 HD 
HETATM   14  C   UNL     1     -12.710  12.501  71.283  1.00  0.00    -0.252 C  
HETATM   15  C   UNL     1     -11.064  10.456  67.774  1.00  0.00    -0.365 A  
HETATM   16  N   UNL     1     -11.827  11.391  71.596  1.00  0.00     0.496 N  
HETATM   17  O   UNL     1     -13.294   9.755  70.323  1.00  0.00     0.135 OA 
HETATM   18  S   UNL     1     -11.916  10.194  70.391  1.00  0.00    -0.249 S  
HETATM   19  H   UNL     1     -11.236  11.337  72.425  1.00  0.00     0.000 HD 
HETATM   20  C   UNL     1     -11.566  11.091  68.919  1.00  0.00    -0.314 A  
HETATM   21  O   UNL     1     -10.834   9.268  70.640  1.00  0.00    -0.236 OA 
BRANCH  14  22
HETATM   22  C   UNL     1     -12.825  13.552  72.445  1.00  0.00    -0.292 C  
HETATM   23  C   UNL     1     -14.287  14.109  72.443  1.00  0.00    -0.401 C  
HETATM   24  C   UNL     1     -14.090  15.574  71.982  1.00  0.00    -0.598 C  
HETATM   25  C   UNL     1     -12.730  15.661  71.283  1.00  0.00    -0.537 C  
HETATM   26  C   UNL     1     -12.011  14.887  72.389  1.00  0.00    -0.379 C  
HETATM   27  C   UNL     1     -12.437  15.842  73.515  1.00  0.00    -0.666 C  
HETATM   28  C   UNL     1     -13.676  16.292  73.241  1.00  0.00    -0.053 C  
ENDBRANCH  14  22
ENDBRANCH   2   7
TORSDOF 2
ENDMDL
MODEL       59
REMARK 921   NORMALIZED FREE ENERGY PREDICTED BY IDOCK:   -5.43 KCAL/MOL
REMARK 922        TOTAL FREE ENERGY PREDICTED BY IDOCK:   -6.14 KCAL/MOL
REMARK 923 INTER-LIGAND FREE ENERGY PREDICTED BY IDOCK:   -6.09 KCAL/MOL
REMARK 924 INTRA-LIGAND FREE ENERGY PREDICTED BY IDOCK:   -0.05 KCAL/MOL
REMARK 927      BINDING AFFINITY PREDICTED BY RF-SCORE:    0.00 PKD
ROOT
HETATM    1  N   UNL     1     -11.279   4.848  65.743  1.00  0.00    -0.893 N  
HETATM    2  S   UNL     1      -9.750   5.327  66.256  1.00  0.00    -0.173 S  
HETATM    3  H1  UNL     1     -11.497   5.468  64.964  1.00  0.00     0.000 HD 
HETATM    4  H2  UNL     1     -11.859   4.102  66.127  1.00  0.00     0.000 HD 
HETATM    5  O   UNL     1      -9.441   4.449  67.361  1.00  0.00    -0.148 OA 
HETATM    6  O   UNL     1      -8.913   5.407  65.084  1.00  0.00    -0.147 OA 
ENDROOT
BRANCH   2   7
HETATM    7  C   UNL     1     -10.029   6.951  66.883  1.00  0.00    -0.200 A  
HETATM    8  C   UNL     1     -10.569   7.139  68.158  1.00  0.00    -0.192 A  
HETATM    9  C   UNL     1     -10.745   8.436  68.641  1.00  0.00    -0.075 A  
HETATM   10 CL   UNL     1     -11.057   5.856  69.211  1.00  0.00    -0.415 Cl 
HETATM   11  C   UNL     1     -10.382   9.560  67.886  1.00  0.00    -0.227 A  
HETATM   12  N   UNL     1     -10.611  10.806  68.428  1.00  0.00    -0.184 NA 
HETATM   13  H   UNL     1     -11.025  10.846  69.359  1.00  0.00     0.000 HD 
HETATM   14  C   UNL     1     -10.307  12.063  67.777  1.00  0.00    -0.197 C  
HETATM   15  C   UNL     1      -9.723   8.065  66.081  1.00  0.00    -0.116 A  
HETATM   16  N   UNL     1     -10.619  11.962  66.362  1.00  0.00    -0.240 N  
HETATM   17  O   UNL     1      -8.263  11.189  65.812  1.00  0.00    -0.119 OA 
HETATM   18  S   UNL     1      -9.640  10.788  65.613  1.00  0.00    -0.232 S  
HETATM   19  H   UNL     1     -11.327  12.518  65.883  1.00  0.00     0.000 HD 
HETATM   20  C   UNL     1      -9.928   9.354  66.591  1.00  0.00    -0.258 A  
HETATM   21  O   UNL     1     -10.187  10.568  64.294  1.00  0.00    -0.344 OA 
BRANCH  14  22
HETATM   22  C   UNL     1     -11.034  13.259  68.491  1.00  0.00    -0.291 C  
HETATM   23  C   UNL     1     -11.870  14.022  67.412  1.00  0.00    -0.445 C  
HETATM   24  C   UNL     1     -11.118  15.371  67.294  1.00  0.00    -0.302 C  
HETATM   25  C   UNL     1      -9.706  15.165  67.849  1.00  0.00    -0.208 C  
HETATM   26  C   UNL     1     -10.207  14.440  69.099  1.00  0.00    -0.136 C  
HETATM   27  C   UNL     1     -11.128  15.583  69.554  1.00  0.00    -0.286 C  
HETATM   28  C   UNL     1     -11.640  16.174  68.458  1.00  0.00    -0.265 C  
ENDBRANCH  14  22
ENDBRANCH   2   7
TORSDOF 2
ENDMDL
MODEL       60
REMARK 921   NORMALIZED FREE ENERGY PREDICTED BY IDOCK:   -5.42 KCAL/MOL
REMARK 922        TOTAL FREE ENERGY PREDICTED BY IDOCK:   -6.13 KCAL/MOL
REMARK 923 INTER-LIGAND FREE ENERGY PREDICTED BY IDOCK:   -6.27 KCAL/MOL
REMARK 924 INTRA-LIGAND FREE ENERGY PREDICTED BY IDOCK:    0.14 KCAL/MOL
REMARK 927      BINDING AFFINITY PREDICTED BY RF-SCORE:    0.00 PKD
ROOT
HETATM    1  N   UNL     1      -9.366   5.884  69.247  1.00  0.00    -0.127 N  
HETATM    2  S   UNL     1     -10.813   6.568  68.729  1.00  0.00    -0.303 S  
HETATM    3  H1  UNL     1      -9.209   6.279  70.174  1.00  0.00     0.000 HD 
HETATM    4  H2  UNL     1      -8.775   5.221  68.744  1.00  0.00     0.000 HD 
HETATM    5  O   UNL     1     -11.034   6.008  67.416  1.00  0.00    -0.308 OA 
HETATM    6  O   UNL     1     -11.766   6.408  69.799  1.00  0.00    -0.414 OA 
ENDROOT
BRANCH   2   7
HETATM    7  C   UNL     1     -10.410   8.275  68.558  1.00  0.00    -0.199 A  
HETATM    8  C   UNL     1     -10.512   9.144  69.646  1.00  0.00    -0.223 A  
HETATM    9  C   UNL     1     -10.152  10.483  69.488  1.00  0.00    -0.208 A  
HETATM   10 CL   UNL     1     -11.072   8.681  71.217  1.00  0.00    -0.312 Cl 
HETATM   11  C   UNL     1      -9.677  10.980  68.267  1.00  0.00    -0.177 A  
HETATM   12  N   UNL     1      -9.365  12.320  68.190  1.00  0.00    -0.201 NA 
HETATM   13  H   UNL     1      -9.488  12.882  69.033  1.00  0.00     0.000 HD 
HETATM   14  C   UNL     1      -8.876  12.992  67.004  1.00  0.00    -0.212 C  
HETATM   15  C   UNL     1     -10.002   8.767  67.304  1.00  0.00    -0.281 A  
HETATM   16  N   UNL     1      -9.565  12.471  65.836  1.00  0.00    -0.383 N  
HETATM   17  O   UNL     1      -7.787  10.694  65.475  1.00  0.00    -0.154 OA 
HETATM   18  S   UNL     1      -9.222  10.818  65.623  1.00  0.00    -0.208 S  
HETATM   19  H   UNL     1     -10.170  13.021  65.227  1.00  0.00     0.000 HD 
HETATM   20  C   UNL     1      -9.664  10.122  67.177  1.00  0.00    -0.173 A  
HETATM   21  O   UNL     1     -10.136  10.328  64.617  1.00  0.00    -0.345 OA 
BRANCH  14  22
HETATM   22  C   UNL     1      -8.991  14.551  67.151  1.00  0.00    -0.244 C  
HETATM   23  C   UNL     1      -9.513  14.859  68.593  1.00  0.00    -0.208 C  
HETATM   24  C   UNL     1     -10.936  15.408  68.328  1.00  0.00    -0.288 C  
HETATM   25  C   UNL     1     -11.358  14.946  66.930  1.00  0.00    -0.338 C  
HETATM   26  C   UNL     1     -10.028  15.354  66.295  1.00  0.00    -0.308 C  
HETATM   27  C   UNL     1     -10.107  16.818  66.754  1.00  0.00    -0.295 C  
HETATM   28  C   UNL     1     -10.700  16.851  67.962  1.00  0.00    -0.364 C  
ENDBRANCH  14  22
ENDBRANCH   2   7
TORSDOF 2
ENDMDL
MODEL       61
REMARK 921   NORMALIZED FREE ENERGY PREDICTED BY IDOCK:   -5.41 KCAL/MOL
REMARK 922        TOTAL FREE ENERGY PREDICTED BY IDOCK:   -6.12 KCAL/MOL
REMARK 923 INTER-LIGAND FREE ENERGY PREDICTED BY IDOCK:   -6.14 KCAL/MOL
REMARK 924 INTRA-LIGAND FREE ENERGY PREDICTED BY IDOCK:    0.03 KCAL/MOL
REMARK 927      BINDING AFFINITY PREDICTED BY RF-SCORE:    0.00 PKD
ROOT
HETATM    1  N   UNL     1      -7.389  10.898  62.900  1.00  0.00    -0.358 N  
HETATM    2  S   UNL     1      -8.989  10.426  63.116  1.00  0.00    -0.270 S  
HETATM    3  H1  UNL     1      -6.845  10.051  63.057  1.00  0.00     0.000 HD 
HETATM    4  H2  UNL     1      -7.041  11.827  62.663  1.00  0.00     0.000 HD 
HETATM    5  O   UNL     1      -9.760  11.627  62.892  1.00  0.00    -0.382 OA 
HETATM    6  O   UNL     1      -9.190   9.231  62.334  1.00  0.00    -0.217 OA 
ENDROOT
BRANCH   2   7
HETATM    7  C   UNL     1      -9.058  10.018  64.829  1.00  0.00    -0.224 A  
HETATM    8  C   UNL     1      -8.415   8.878  65.317  1.00  0.00    -0.169 A  
HETATM    9  C   UNL     1      -8.458   8.601  66.684  1.00  0.00    -0.115 A  
HETATM   10 CL   UNL     1      -7.553   7.746  64.332  1.00  0.00    -0.102 Cl 
HETATM   11  C   UNL     1      -9.118   9.445  67.587  1.00  0.00    -0.121 A  
HETATM   12  N   UNL     1      -9.131   9.086  68.918  1.00  0.00    -0.139 NA 
HETATM   13  H   UNL     1      -8.649   8.225  69.179  1.00  0.00     0.000 HD 
HETATM   14  C   UNL     1      -9.777   9.837  69.974  1.00  0.00    -0.250 C  
HETATM   15  C   UNL     1      -9.786  10.841  65.708  1.00  0.00    -0.278 A  
HETATM   16  N   UNL     1     -11.038  10.369  69.486  1.00  0.00    -0.247 N  
HETATM   17  O   UNL     1      -9.932  12.525  68.726  1.00  0.00    -0.145 OA 
HETATM   18  S   UNL     1     -10.775  11.466  68.212  1.00  0.00    -0.219 S  
HETATM   19  H   UNL     1     -11.955  10.119  69.857  1.00  0.00     0.000 HD 
HETATM   20  C   UNL     1      -9.821  10.524  67.073  1.00  0.00    -0.183 A  
HETATM   21  O   UNL     1     -12.066  11.740  67.623  1.00  0.00    -0.598 OA 
BRANCH  14  22
HETATM   22  C   UNL     1      -9.929   8.968  71.273  1.00  0.00    -0.381 C  
HETATM   23  C   UNL     1      -9.594   7.487  70.899  1.00  0.00    -0.165 C  
HETATM   24  C   UNL     1     -10.970   6.787  71.026  1.00  0.00    -0.297 C  
HETATM   25  C   UNL     1     -12.050   7.870  70.949  1.00  0.00    -0.181 C  
HETATM   26  C   UNL     1     -11.331   8.784  71.944  1.00  0.00    -0.431 C  
HETATM   27  C   UNL     1     -11.274   7.736  73.066  1.00  0.00    -0.380 C  
HETATM   28  C   UNL     1     -11.103   6.524  72.504  1.00  0.00    -0.294 C  
ENDBRANCH  14  22
ENDBRANCH   2   7
TORSDOF 2
ENDMDL
MODEL       62
REMARK 921   NORMALIZED FREE ENERGY PREDICTED BY IDOCK:   -5.41 KCAL/MOL
REMARK 922        TOTAL FREE ENERGY PREDICTED BY IDOCK:   -6.12 KCAL/MOL
REMARK 923 INTER-LIGAND FREE ENERGY PREDICTED BY IDOCK:   -6.25 KCAL/MOL
REMARK 924 INTRA-LIGAND FREE ENERGY PREDICTED BY IDOCK:    0.13 KCAL/MOL
REMARK 927      BINDING AFFINITY PREDICTED BY RF-SCORE:    0.00 PKD
ROOT
HETATM    1  N   UNL     1      -8.609  15.209  66.227  1.00  0.00    -0.439 N  
HETATM    2  S   UNL     1     -10.283  15.176  66.391  1.00  0.00    -0.296 S  
HETATM    3  H1  UNL     1      -8.397  14.451  65.579  1.00  0.00     0.000 HD 
HETATM    4  H2  UNL     1      -7.952  15.847  66.677  1.00  0.00     0.000 HD 
HETATM    5  O   UNL     1     -10.584  16.250  67.310  1.00  0.00    -0.309 OA 
HETATM    6  O   UNL     1     -10.840  15.128  65.062  1.00  0.00    -0.388 OA 
ENDROOT
BRANCH   2   7
HETATM    7  C   UNL     1     -10.575  13.638  67.201  1.00  0.00    -0.272 A  
HETATM    8  C   UNL     1     -11.548  13.531  68.197  1.00  0.00    -0.333 A  
HETATM    9  C   UNL     1     -11.782  12.292  68.795  1.00  0.00    -0.390 A  
HETATM   10 CL   UNL     1     -12.510  14.851  68.769  1.00  0.00     0.023 Cl 
HETATM   11  C   UNL     1     -11.073  11.144  68.414  1.00  0.00    -0.247 A  
HETATM   12  N   UNL     1     -11.349   9.965  69.072  1.00  0.00    -0.458 NA 
HETATM   13  H   UNL     1     -12.065   9.987  69.798  1.00  0.00     0.000 HD 
HETATM   14  C   UNL     1     -10.701   8.697  68.809  1.00  0.00    -0.064 C  
HETATM   15  C   UNL     1      -9.804  12.514  66.852  1.00  0.00    -0.229 A  
HETATM   16  N   UNL     1      -9.289   8.921  68.553  1.00  0.00    -0.140 N  
HETATM   17  O   UNL     1      -9.692   9.150  66.056  1.00  0.00    -0.263 OA 
HETATM   18  S   UNL     1      -9.074   9.865  67.153  1.00  0.00    -0.138 S  
HETATM   19  H   UNL     1      -8.530   8.562  69.132  1.00  0.00     0.000 HD 
HETATM   20  C   UNL     1     -10.054  11.288  67.485  1.00  0.00    -0.183 A  
HETATM   21  O   UNL     1      -7.683  10.254  67.120  1.00  0.00    -0.092 OA 
BRANCH  14  22
HETATM   22  C   UNL     1     -10.968   7.675  69.972  1.00  0.00    -0.237 C  
HETATM   23  C   UNL     1     -11.931   8.359  70.997  1.00  0.00    -0.255 C  
HETATM   24  C   UNL     1     -11.020   8.565  72.232  1.00  0.00    -0.426 C  
HETATM   25  C   UNL     1      -9.567   8.498  71.752  1.00  0.00    -0.337 C  
HETATM   26  C   UNL     1      -9.805   7.235  70.923  1.00  0.00    -0.184 C  
HETATM   27  C   UNL     1     -10.338   6.404  72.100  1.00  0.00    -0.213 C  
HETATM   28  C   UNL     1     -11.032   7.221  72.914  1.00  0.00    -0.381 C  
ENDBRANCH  14  22
ENDBRANCH   2   7
TORSDOF 2
ENDMDL
MODEL       63
REMARK 921   NORMALIZED FREE ENERGY PREDICTED BY IDOCK:   -5.40 KCAL/MOL
REMARK 922        TOTAL FREE ENERGY PREDICTED BY IDOCK:   -6.10 KCAL/MOL
REMARK 923 INTER-LIGAND FREE ENERGY PREDICTED BY IDOCK:   -6.04 KCAL/MOL
REMARK 924 INTRA-LIGAND FREE ENERGY PREDICTED BY IDOCK:   -0.06 KCAL/MOL
REMARK 927      BINDING AFFINITY PREDICTED BY RF-SCORE:    0.00 PKD
ROOT
HETATM    1  N   UNL     1     -10.902  11.515  65.339  1.00  0.00    -0.280 N  
HETATM    2  S   UNL     1     -10.754  11.455  67.013  1.00  0.00    -0.274 S  
HETATM    3  H1  UNL     1      -9.944  11.565  64.995  1.00  0.00     0.000 HD 
HETATM    4  H2  UNL     1     -11.762  11.505  64.789  1.00  0.00     0.000 HD 
HETATM    5  O   UNL     1     -12.113  11.385  67.500  1.00  0.00    -0.592 OA 
HETATM    6  O   UNL     1      -9.780  10.438  67.318  1.00  0.00    -0.160 OA 
ENDROOT
BRANCH   2   7
HETATM    7  C   UNL     1     -10.089  13.038  67.413  1.00  0.00    -0.231 A  
HETATM    8  C   UNL     1     -10.822  14.201  67.168  1.00  0.00    -0.290 A  
HETATM    9  C   UNL     1     -10.284  15.437  67.528  1.00  0.00    -0.244 A  
HETATM   10 CL   UNL     1     -12.384  14.233  66.424  1.00  0.00    -0.449 Cl 
HETATM   11  C   UNL     1      -9.029  15.544  68.144  1.00  0.00    -0.179 A  
HETATM   12  N   UNL     1      -8.561  16.804  68.448  1.00  0.00    -0.226 NA 
HETATM   13  H   UNL     1      -9.159  17.597  68.215  1.00  0.00     0.000 HD 
HETATM   14  C   UNL     1      -7.286  17.088  69.071  1.00  0.00    -0.229 C  
HETATM   15  C   UNL     1      -8.799  13.126  67.966  1.00  0.00    -0.191 A  
HETATM   16  N   UNL     1      -6.277  16.189  68.538  1.00  0.00    -0.113 N  
HETATM   17  O   UNL     1      -6.710  14.482  70.367  1.00  0.00    -0.135 OA 
HETATM   18  S   UNL     1      -6.647  14.574  68.923  1.00  0.00    -0.102 S  
HETATM   19  H   UNL     1      -5.459  16.485  68.005  1.00  0.00     0.000 HD 
HETATM   20  C   UNL     1      -8.282  14.386  68.302  1.00  0.00    -0.149 A  
HETATM   21  O   UNL     1      -5.755  13.743  68.146  1.00  0.00    -0.098 OA 
BRANCH  14  22
HETATM   22  C   UNL     1      -6.909  18.605  68.920  1.00  0.00    -0.304 C  
HETATM   23  C   UNL     1      -8.174  19.362  68.398  1.00  0.00    -0.382 C  
HETATM   24  C   UNL     1      -7.759  19.764  66.961  1.00  0.00    -0.304 C  
HETATM   25  C   UNL     1      -6.598  18.856  66.544  1.00  0.00    -0.214 C  
HETATM   26  C   UNL     1      -5.849  19.057  67.862  1.00  0.00    -0.202 C  
HETATM   27  C   UNL     1      -5.797  20.589  67.750  1.00  0.00    -0.278 C  
HETATM   28  C   UNL     1      -6.933  21.008  67.162  1.00  0.00    -0.411 C  
ENDBRANCH  14  22
ENDBRANCH   2   7
TORSDOF 2
ENDMDL
MODEL       64
REMARK 921   NORMALIZED FREE ENERGY PREDICTED BY IDOCK:   -5.39 KCAL/MOL
REMARK 922        TOTAL FREE ENERGY PREDICTED BY IDOCK:   -6.10 KCAL/MOL
REMARK 923 INTER-LIGAND FREE ENERGY PREDICTED BY IDOCK:   -5.87 KCAL/MOL
REMARK 924 INTRA-LIGAND FREE ENERGY PREDICTED BY IDOCK:   -0.22 KCAL/MOL
REMARK 927      BINDING AFFINITY PREDICTED BY RF-SCORE:    0.00 PKD
ROOT
HETATM    1  N   UNL     1      -8.450  16.208  66.122  1.00  0.00    -0.317 N  
HETATM    2  S   UNL     1     -10.107  15.948  65.999  1.00  0.00    -0.361 S  
HETATM    3  H1  UNL     1      -8.048  15.695  65.338  1.00  0.00     0.000 HD 
HETATM    4  H2  UNL     1      -7.956  16.757  66.826  1.00  0.00     0.000 HD 
HETATM    5  O   UNL     1     -10.677  16.674  67.111  1.00  0.00    -0.294 OA 
HETATM    6  O   UNL     1     -10.481  16.223  64.634  1.00  0.00    -0.538 OA 
ENDROOT
BRANCH   2   7
HETATM    7  C   UNL     1     -10.265  14.220  66.310  1.00  0.00    -0.301 A  
HETATM    8  C   UNL     1     -11.467  13.557  66.052  1.00  0.00    -0.325 A  
HETATM    9  C   UNL     1     -11.551  12.182  66.274  1.00  0.00    -0.424 A  
HETATM   10 CL   UNL     1     -12.903  14.328  65.470  1.00  0.00    -0.439 Cl 
HETATM   11  C   UNL     1     -10.455  11.442  66.738  1.00  0.00    -0.244 A  
HETATM   12  N   UNL     1     -10.629  10.091  66.953  1.00  0.00    -0.220 NA 
HETATM   13  H   UNL     1     -11.549   9.697  66.753  1.00  0.00     0.000 HD 
HETATM   14  C   UNL     1      -9.607   9.189  67.440  1.00  0.00    -0.151 C  
HETATM   15  C   UNL     1      -9.174  13.509  66.842  1.00  0.00    -0.254 A  
HETATM   16  N   UNL     1      -8.819   9.859  68.460  1.00  0.00    -0.120 N  
HETATM   17  O   UNL     1      -7.154  10.704  66.740  1.00  0.00    -0.104 OA 
HETATM   18  S   UNL     1      -8.000  11.199  67.805  1.00  0.00    -0.120 S  
HETATM   19  H   UNL     1      -8.764   9.567  69.436  1.00  0.00     0.000 HD 
HETATM   20  C   UNL     1      -9.298  12.131  67.069  1.00  0.00    -0.201 A  
HETATM   21  O   UNL     1      -7.463  11.948  68.918  1.00  0.00    -0.113 OA 
BRANCH  14  22
HETATM   22  C   UNL     1     -10.235   7.835  67.928  1.00  0.00    -0.259 C  
HETATM   23  C   UNL     1     -10.158   7.808  69.490  1.00  0.00    -0.194 C  
HETATM   24  C   UNL     1      -9.114   6.696  69.758  1.00  0.00    -0.143 C  
HETATM   25  C   UNL     1      -8.302   6.504  68.474  1.00  0.00    -0.121 C  
HETATM   26  C   UNL     1      -9.545   6.473  67.585  1.00  0.00    -0.131 C  
HETATM   27  C   UNL     1     -10.214   5.310  68.335  1.00  0.00    -0.206 C  
HETATM   28  C   UNL     1      -9.911   5.422  69.642  1.00  0.00    -0.297 C  
ENDBRANCH  14  22
ENDBRANCH   2   7
TORSDOF 2
ENDMDL
MODEL       65
REMARK 921   NORMALIZED FREE ENERGY PREDICTED BY IDOCK:   -5.38 KCAL/MOL
REMARK 922        TOTAL FREE ENERGY PREDICTED BY IDOCK:   -6.08 KCAL/MOL
REMARK 923 INTER-LIGAND FREE ENERGY PREDICTED BY IDOCK:   -6.52 KCAL/MOL
REMARK 924 INTRA-LIGAND FREE ENERGY PREDICTED BY IDOCK:    0.44 KCAL/MOL
REMARK 927      BINDING AFFINITY PREDICTED BY RF-SCORE:    0.00 PKD
ROOT
HETATM    1  N   UNL     1     -10.572  20.057  68.418  1.00  0.00    -0.368 N  
HETATM    2  S   UNL     1      -9.796  19.556  67.012  1.00  0.00    -0.391 S  
HETATM    3  H1  UNL     1      -9.901  19.876  69.163  1.00  0.00     0.000 HD 
HETATM    4  H2  UNL     1     -11.507  20.455  68.504  1.00  0.00     0.000 HD 
HETATM    5  O   UNL     1     -10.747  19.814  65.955  1.00  0.00    -0.472 OA 
HETATM    6  O   UNL     1      -8.481  20.147  67.018  1.00  0.00    -0.318 OA 
ENDROOT
BRANCH   2   7
HETATM    7  C   UNL     1      -9.652  17.814  67.234  1.00  0.00    -0.272 A  
HETATM    8  C   UNL     1      -8.666  17.280  68.067  1.00  0.00    -0.231 A  
HETATM    9  C   UNL     1      -8.600  15.898  68.250  1.00  0.00    -0.176 A  
HETATM   10 CL   UNL     1      -7.483  18.222  68.908  1.00  0.00    -0.284 Cl 
HETATM   11  C   UNL     1      -9.506  15.028  67.630  1.00  0.00    -0.195 A  
HETATM   12  N   UNL     1      -9.357  13.675  67.846  1.00  0.00    -0.199 NA 
HETATM   13  H   UNL     1      -8.596  13.377  68.457  1.00  0.00     0.000 HD 
HETATM   14  C   UNL     1     -10.197  12.645  67.272  1.00  0.00    -0.224 C  
HETATM   15  C   UNL     1     -10.528  16.954  66.546  1.00  0.00    -0.253 A  
HETATM   16  N   UNL     1     -10.525  12.998  65.902  1.00  0.00    -0.277 N  
HETATM   17  O   UNL     1     -12.634  14.211  66.630  1.00  0.00    -0.349 OA 
HETATM   18  S   UNL     1     -11.433  14.436  65.852  1.00  0.00    -0.345 S  
HETATM   19  H   UNL     1     -10.250  12.457  65.082  1.00  0.00     0.000 HD 
HETATM   20  C   UNL     1     -10.423  15.569  66.740  1.00  0.00    -0.295 A  
HETATM   21  O   UNL     1     -11.490  14.848  64.468  1.00  0.00    -0.377 OA 
BRANCH  14  22
HETATM   22  C   UNL     1      -9.528  11.230  67.407  1.00  0.00    -0.175 C  
HETATM   23  C   UNL     1      -8.238  11.226  66.523  1.00  0.00    -0.165 C  
HETATM   24  C   UNL     1      -8.612  10.245  65.384  1.00  0.00    -0.169 C  
HETATM   25  C   UNL     1     -10.140  10.139  65.347  1.00  0.00    -0.342 C  
HETATM   26  C   UNL     1     -10.253   9.955  66.861  1.00  0.00    -0.302 C  
HETATM   27  C   UNL     1      -9.328   8.729  66.914  1.00  0.00    -0.213 C  
HETATM   28  C   UNL     1      -8.365   8.886  65.986  1.00  0.00    -0.128 C  
ENDBRANCH  14  22
ENDBRANCH   2   7
TORSDOF 2
ENDMDL
MODEL       66
REMARK 921   NORMALIZED FREE ENERGY PREDICTED BY IDOCK:   -5.32 KCAL/MOL
REMARK 922        TOTAL FREE ENERGY PREDICTED BY IDOCK:   -6.02 KCAL/MOL
REMARK 923 INTER-LIGAND FREE ENERGY PREDICTED BY IDOCK:   -5.61 KCAL/MOL
REMARK 924 INTRA-LIGAND FREE ENERGY PREDICTED BY IDOCK:   -0.41 KCAL/MOL
REMARK 927      BINDING AFFINITY PREDICTED BY RF-SCORE:    0.00 PKD
ROOT
HETATM    1  N   UNL     1      -6.647   9.480  68.715  1.00  0.00    -0.051 N  
HETATM    2  S   UNL     1      -8.321   9.380  68.595  1.00  0.00    -0.119 S  
HETATM    3  H1  UNL     1      -6.478   9.937  69.611  1.00  0.00     0.000 HD 
HETATM    4  H2  UNL     1      -5.953   9.155  68.042  1.00  0.00     0.000 HD 
HETATM    5  O   UNL     1      -8.560   8.732  67.325  1.00  0.00    -0.120 OA 
HETATM    6  O   UNL     1      -8.806   8.832  69.836  1.00  0.00    -0.134 OA 
ENDROOT
BRANCH   2   7
HETATM    7  C   UNL     1      -8.815  11.068  68.471  1.00  0.00    -0.159 A  
HETATM    8  C   UNL     1     -10.166  11.410  68.380  1.00  0.00    -0.198 A  
HETATM    9  C   UNL     1     -10.528  12.756  68.319  1.00  0.00    -0.250 A  
HETATM   10 CL   UNL     1     -11.462  10.265  68.326  1.00  0.00    -0.241 Cl 
HETATM   11  C   UNL     1      -9.571  13.779  68.361  1.00  0.00    -0.206 A  
HETATM   12  N   UNL     1     -10.012  15.082  68.273  1.00  0.00    -0.221 NA 
HETATM   13  H   UNL     1     -11.017  15.235  68.191  1.00  0.00     0.000 HD 
HETATM   14  C   UNL     1      -9.157  16.251  68.289  1.00  0.00    -0.197 C  
HETATM   15  C   UNL     1      -7.834  12.076  68.444  1.00  0.00    -0.147 A  
HETATM   16  N   UNL     1      -7.951  15.976  67.528  1.00  0.00    -0.136 N  
HETATM   17  O   UNL     1      -6.733  15.146  69.596  1.00  0.00    -0.155 OA 
HETATM   18  S   UNL     1      -7.057  14.721  68.250  1.00  0.00    -0.126 S  
HETATM   19  H   UNL     1      -7.677  16.468  66.677  1.00  0.00     0.000 HD 
HETATM   20  C   UNL     1      -8.232  13.418  68.366  1.00  0.00    -0.139 A  
HETATM   21  O   UNL     1      -6.031  14.340  67.305  1.00  0.00    -0.300 OA 
BRANCH  14  22
HETATM   22  C   UNL     1      -9.931  17.523  67.791  1.00  0.00    -0.312 C  
HETATM   23  C   UNL     1      -9.186  18.072  66.529  1.00  0.00    -0.286 C  
HETATM   24  C   UNL     1      -8.591  19.407  67.042  1.00  0.00    -0.318 C  
HETATM   25  C   UNL     1      -8.553  19.340  68.572  1.00  0.00    -0.400 C  
HETATM   26  C   UNL     1      -9.986  18.814  68.674  1.00  0.00    -0.444 C  
HETATM   27  C   UNL     1     -10.610  19.986  67.901  1.00  0.00    -0.379 C  
HETATM   28  C   UNL     1      -9.744  20.373  66.946  1.00  0.00    -0.567 C  
ENDBRANCH  14  22
ENDBRANCH   2   7
TORSDOF 2
ENDMDL
MODEL       67
REMARK 921   NORMALIZED FREE ENERGY PREDICTED BY IDOCK:   -5.26 KCAL/MOL
REMARK 922        TOTAL FREE ENERGY PREDICTED BY IDOCK:   -5.95 KCAL/MOL
REMARK 923 INTER-LIGAND FREE ENERGY PREDICTED BY IDOCK:   -5.73 KCAL/MOL
REMARK 924 INTRA-LIGAND FREE ENERGY PREDICTED BY IDOCK:   -0.22 KCAL/MOL
REMARK 927      BINDING AFFINITY PREDICTED BY RF-SCORE:    0.00 PKD
ROOT
HETATM    1  N   UNL     1      -9.362  12.835  66.472  1.00  0.00    -0.287 N  
HETATM    2  S   UNL     1     -10.851  12.459  67.158  1.00  0.00    -0.254 S  
HETATM    3  H1  UNL     1      -9.262  12.181  65.696  1.00  0.00     0.000 HD 
HETATM    4  H2  UNL     1      -8.706  13.558  66.766  1.00  0.00     0.000 HD 
HETATM    5  O   UNL     1     -10.994  13.386  68.257  1.00  0.00    -0.241 OA 
HETATM    6  O   UNL     1     -11.811  12.392  66.084  1.00  0.00    -0.459 OA 
ENDROOT
BRANCH   2   7
HETATM    7  C   UNL     1     -10.594  10.841  67.810  1.00  0.00    -0.228 A  
HETATM    8  C   UNL     1     -10.234   9.784  66.972  1.00  0.00    -0.229 A  
HETATM    9  C   UNL     1     -10.003   8.523  67.522  1.00  0.00    -0.258 A  
HETATM   10 CL   UNL     1     -10.056   9.915  65.255  1.00  0.00    -0.333 Cl 
HETATM   11  C   UNL     1     -10.108   8.289  68.900  1.00  0.00    -0.199 A  
HETATM   12  N   UNL     1      -9.885   7.009  69.359  1.00  0.00    -0.159 NA 
HETATM   13  H   UNL     1      -9.644   6.297  68.670  1.00  0.00     0.000 HD 
HETATM   14  C   UNL     1      -9.966   6.598  70.746  1.00  0.00    -0.184 C  
HETATM   15  C   UNL     1     -10.774  10.614  69.187  1.00  0.00    -0.264 A  
HETATM   16  N   UNL     1     -11.080   7.276  71.385  1.00  0.00    -0.240 N  
HETATM   17  O   UNL     1      -9.596   9.203  72.117  1.00  0.00    -0.276 OA 
HETATM   18  S   UNL     1     -10.830   8.959  71.401  1.00  0.00    -0.337 S  
HETATM   19  H   UNL     1     -11.899   6.808  71.773  1.00  0.00     0.000 HD 
HETATM   20  C   UNL     1     -10.548   9.330  69.704  1.00  0.00    -0.229 A  
HETATM   21  O   UNL     1     -12.079   9.563  71.808  1.00  0.00    -0.370 OA 
BRANCH  14  22
HETATM   22  C   UNL     1     -10.036   5.034  70.867  1.00  0.00    -0.302 C  
HETATM   23  C   UNL     1     -10.722   4.691  72.231  1.00  0.00    -0.148 C  
HETATM   24  C   UNL     1      -9.560   4.075  73.048  1.00  0.00    -0.160 C  
HETATM   25  C   UNL     1      -8.248   4.526  72.400  1.00  0.00    -0.109 C  
HETATM   26  C   UNL     1      -8.725   4.188  70.987  1.00  0.00    -0.125 C  
HETATM   27  C   UNL     1      -9.042   2.718  71.303  1.00  0.00    -0.179 C  
HETATM   28  C   UNL     1      -9.502   2.648  72.567  1.00  0.00    -0.160 C  
ENDBRANCH  14  22
ENDBRANCH   2   7
TORSDOF 2
ENDMDL
MODEL       68
REMARK 921   NORMALIZED FREE ENERGY PREDICTED BY IDOCK:   -5.24 KCAL/MOL
REMARK 922        TOTAL FREE ENERGY PREDICTED BY IDOCK:   -5.92 KCAL/MOL
REMARK 923 INTER-LIGAND FREE ENERGY PREDICTED BY IDOCK:   -5.71 KCAL/MOL
REMARK 924 INTRA-LIGAND FREE ENERGY PREDICTED BY IDOCK:   -0.21 KCAL/MOL
REMARK 927      BINDING AFFINITY PREDICTED BY RF-SCORE:    0.00 PKD
ROOT
HETATM    1  N   UNL     1      -9.059   6.242  71.240  1.00  0.00    -0.146 N  
HETATM    2  S   UNL     1     -10.059   6.309  69.889  1.00  0.00    -0.182 S  
HETATM    3  H1  UNL     1      -9.619   6.633  71.997  1.00  0.00     0.000 HD 
HETATM    4  H2  UNL     1      -8.103   5.889  71.290  1.00  0.00     0.000 HD 
HETATM    5  O   UNL     1      -9.265   5.756  68.816  1.00  0.00    -0.117 OA 
HETATM    6  O   UNL     1     -11.329   5.743  70.271  1.00  0.00    -0.262 OA 
ENDROOT
BRANCH   2   7
HETATM    7  C   UNL     1     -10.252   8.040  69.619  1.00  0.00    -0.208 A  
HETATM    8  C   UNL     1     -10.774   8.864  70.618  1.00  0.00    -0.234 A  
HETATM    9  C   UNL     1     -10.881  10.236  70.387  1.00  0.00    -0.320 A  
HETATM   10 CL   UNL     1     -11.320   8.302  72.161  1.00  0.00    -0.388 Cl 
HETATM   11  C   UNL     1     -10.465  10.815  69.180  1.00  0.00    -0.218 A  
HETATM   12  N   UNL     1     -10.627  12.175  69.025  1.00  0.00    -0.399 NA 
HETATM   13  H   UNL     1     -11.033  12.693  69.804  1.00  0.00     0.000 HD 
HETATM   14  C   UNL     1     -10.263  12.924  67.840  1.00  0.00    -0.233 C  
HETATM   15  C   UNL     1      -9.894   8.590  68.374  1.00  0.00    -0.189 A  
HETATM   16  N   UNL     1     -10.588  12.145  66.658  1.00  0.00    -0.230 N  
HETATM   17  O   UNL     1      -8.278  11.091  66.614  1.00  0.00    -0.142 OA 
HETATM   18  S   UNL     1      -9.675  10.710  66.614  1.00  0.00    -0.190 S  
HETATM   19  H   UNL     1     -11.270  12.421  65.951  1.00  0.00     0.000 HD 
HETATM   20  C   UNL     1     -10.029   9.970  68.170  1.00  0.00    -0.153 A  
HETATM   21  O   UNL     1     -10.239   9.887  65.568  1.00  0.00    -0.273 OA 
BRANCH  14  22
HETATM   22  C   UNL     1     -10.924  14.348  67.848  1.00  0.00    -0.272 C  
HETATM   23  C   UNL     1     -10.254  15.192  66.714  1.00  0.00    -0.265 C  
HETATM   24  C   UNL     1      -9.451  16.251  67.510  1.00  0.00    -0.227 C  
HETATM   25  C   UNL     1      -9.261  15.715  68.932  1.00  0.00    -0.226 C  
HETATM   26  C   UNL     1     -10.728  15.307  69.070  1.00  0.00    -0.244 C  
HETATM   27  C   UNL     1     -11.283  16.707  68.769  1.00  0.00    -0.217 C  
HETATM   28  C   UNL     1     -10.481  17.293  67.860  1.00  0.00    -0.382 C  
ENDBRANCH  14  22
ENDBRANCH   2   7
TORSDOF 2
ENDMDL
MODEL       69
REMARK 921   NORMALIZED FREE ENERGY PREDICTED BY IDOCK:   -5.22 KCAL/MOL
REMARK 922        TOTAL FREE ENERGY PREDICTED BY IDOCK:   -5.90 KCAL/MOL
REMARK 923 INTER-LIGAND FREE ENERGY PREDICTED BY IDOCK:   -6.00 KCAL/MOL
REMARK 924 INTRA-LIGAND FREE ENERGY PREDICTED BY IDOCK:    0.10 KCAL/MOL
REMARK 927      BINDING AFFINITY PREDICTED BY RF-SCORE:    0.00 PKD
ROOT
HETATM    1  N   UNL     1     -11.018  11.120  64.019  1.00  0.00    -0.460 N  
HETATM    2  S   UNL     1     -11.259  12.276  65.216  1.00  0.00    -0.338 S  
HETATM    3  H1  UNL     1     -11.721  10.405  64.203  1.00  0.00     0.000 HD 
HETATM    4  H2  UNL     1     -10.323  11.132  63.272  1.00  0.00     0.000 HD 
HETATM    5  O   UNL     1     -10.263  13.290  64.954  1.00  0.00    -0.325 OA 
HETATM    6  O   UNL     1     -12.669  12.577  65.241  1.00  0.00    -0.654 OA 
ENDROOT
BRANCH   2   7
HETATM    7  C   UNL     1     -10.821  11.419  66.693  1.00  0.00    -0.289 A  
HETATM    8  C   UNL     1      -9.613  10.724  66.782  1.00  0.00    -0.172 A  
HETATM    9  C   UNL     1      -9.278  10.085  67.976  1.00  0.00    -0.139 A  
HETATM   10 CL   UNL     1      -8.471  10.581  65.489  1.00  0.00    -0.170 Cl 
HETATM   11  C   UNL     1     -10.116  10.133  69.098  1.00  0.00    -0.213 A  
HETATM   12  N   UNL     1      -9.720   9.456  70.232  1.00  0.00    -0.229 NA 
HETATM   13  H   UNL     1      -8.829   8.960  70.198  1.00  0.00     0.000 HD 
HETATM   14  C   UNL     1     -10.473   9.394  71.467  1.00  0.00    -0.229 C  
HETATM   15  C   UNL     1     -11.710  11.421  67.784  1.00  0.00    -0.279 A  
HETATM   16  N   UNL     1     -11.888   9.274  71.164  1.00  0.00    -0.306 N  
HETATM   17  O   UNL     1     -12.193  11.795  71.189  1.00  0.00    -0.275 OA 
HETATM   18  S   UNL     1     -12.444  10.653  70.336  1.00  0.00    -0.309 S  
HETATM   19  H   UNL     1     -12.470   8.474  71.414  1.00  0.00     0.000 HD 
HETATM   20  C   UNL     1     -11.348  10.756  68.964  1.00  0.00    -0.284 A  
HETATM   21  O   UNL     1     -13.770  10.343  69.850  1.00  0.00     0.413 OA 
BRANCH  14  22
HETATM   22  C   UNL     1      -9.937   8.248  72.398  1.00  0.00    -0.379 C  
HETATM   23  C   UNL     1      -8.882   7.427  71.587  1.00  0.00    -0.125 C  
HETATM   24  C   UNL     1      -9.596   6.068  71.380  1.00  0.00    -0.180 C  
HETATM   25  C   UNL     1     -11.097   6.298  71.584  1.00  0.00    -0.325 C  
HETATM   26  C   UNL     1     -10.890   7.100  72.870  1.00  0.00    -0.362 C  
HETATM   27  C   UNL     1     -10.106   5.992  73.591  1.00  0.00    -0.218 C  
HETATM   28  C   UNL     1      -9.361   5.340  72.679  1.00  0.00    -0.150 C  
ENDBRANCH  14  22
ENDBRANCH   2   7
TORSDOF 2
ENDMDL
MODEL       70
REMARK 921   NORMALIZED FREE ENERGY PREDICTED BY IDOCK:   -5.22 KCAL/MOL
REMARK 922        TOTAL FREE ENERGY PREDICTED BY IDOCK:   -5.90 KCAL/MOL
REMARK 923 INTER-LIGAND FREE ENERGY PREDICTED BY IDOCK:   -5.85 KCAL/MOL
REMARK 924 INTRA-LIGAND FREE ENERGY PREDICTED BY IDOCK:   -0.04 KCAL/MOL
REMARK 927      BINDING AFFINITY PREDICTED BY RF-SCORE:    0.00 PKD
ROOT
HETATM    1  N   UNL     1     -13.121   7.160  71.955  1.00  0.00    -0.539 N  
HETATM    2  S   UNL     1     -11.954   8.362  72.095  1.00  0.00    -0.392 S  
HETATM    3  H1  UNL     1     -12.595   6.311  71.749  1.00  0.00     0.000 HD 
HETATM    4  H2  UNL     1     -14.132   7.258  72.055  1.00  0.00     0.000 HD 
HETATM    5  O   UNL     1     -12.699   9.566  72.387  1.00  0.00    -0.332 OA 
HETATM    6  O   UNL     1     -10.931   7.863  72.979  1.00  0.00    -0.393 OA 
ENDROOT
BRANCH   2   7
HETATM    7  C   UNL     1     -11.304   8.481  70.460  1.00  0.00    -0.217 A  
HETATM    8  C   UNL     1     -10.836   7.345  69.796  1.00  0.00    -0.234 A  
HETATM    9  C   UNL     1     -10.360   7.465  68.489  1.00  0.00    -0.221 A  
HETATM   10 CL   UNL     1     -10.791   5.759  70.485  1.00  0.00    -0.360 Cl 
HETATM   11  C   UNL     1     -10.351   8.695  67.818  1.00  0.00    -0.242 A  
HETATM   12  N   UNL     1      -9.843   8.730  66.537  1.00  0.00    -0.258 NA 
HETATM   13  H   UNL     1      -9.508   7.852  66.139  1.00  0.00     0.000 HD 
HETATM   14  C   UNL     1      -9.750   9.917  65.713  1.00  0.00    -0.266 C  
HETATM   15  C   UNL     1     -11.239   9.737  69.831  1.00  0.00    -0.271 A  
HETATM   16  N   UNL     1      -9.365  11.048  66.539  1.00  0.00    -0.176 N  
HETATM   17  O   UNL     1     -11.790  11.645  66.999  1.00  0.00    -0.591 OA 
HETATM   18  S   UNL     1     -10.558  11.372  67.708  1.00  0.00    -0.206 S  
HETATM   19  H   UNL     1      -8.499  11.576  66.432  1.00  0.00     0.000 HD 
HETATM   20  C   UNL     1     -10.740   9.824  68.524  1.00  0.00    -0.215 A  
HETATM   21  O   UNL     1      -9.987  12.322  68.636  1.00  0.00    -0.200 OA 
BRANCH  14  22
HETATM   22  C   UNL     1      -8.790   9.683  64.493  1.00  0.00    -0.257 C  
HETATM   23  C   UNL     1      -8.266   8.211  64.572  1.00  0.00    -0.118 C  
HETATM   24  C   UNL     1      -6.767   8.404  64.909  1.00  0.00    -0.067 C  
HETATM   25  C   UNL     1      -6.599   9.811  65.489  1.00  0.00    -0.085 C  
HETATM   26  C   UNL     1      -7.437  10.462  64.387  1.00  0.00    -0.010 C  
HETATM   27  C   UNL     1      -6.577   9.923  63.234  1.00  0.00    -0.125 C  
HETATM   28  C   UNL     1      -6.134   8.698  63.573  1.00  0.00    -0.077 C  
ENDBRANCH  14  22
ENDBRANCH   2   7
TORSDOF 2
ENDMDL
MODEL       71
REMARK 921   NORMALIZED FREE ENERGY PREDICTED BY IDOCK:   -5.20 KCAL/MOL
REMARK 922        TOTAL FREE ENERGY PREDICTED BY IDOCK:   -5.88 KCAL/MOL
REMARK 923 INTER-LIGAND FREE ENERGY PREDICTED BY IDOCK:   -6.09 KCAL/MOL
REMARK 924 INTRA-LIGAND FREE ENERGY PREDICTED BY IDOCK:    0.22 KCAL/MOL
REMARK 927      BINDING AFFINITY PREDICTED BY RF-SCORE:    0.00 PKD
ROOT
HETATM    1  N   UNL     1      -7.076   9.933  63.835  1.00  0.00    -0.124 N  
HETATM    2  S   UNL     1      -8.577   9.180  63.912  1.00  0.00    -0.126 S  
HETATM    3  H1  UNL     1      -6.633   9.721  64.729  1.00  0.00     0.000 HD 
HETATM    4  H2  UNL     1      -6.692  10.480  63.064  1.00  0.00     0.000 HD 
HETATM    5  O   UNL     1      -9.204   9.479  62.645  1.00  0.00    -0.264 OA 
HETATM    6  O   UNL     1      -8.353   7.825  64.353  1.00  0.00    -0.089 OA 
ENDROOT
BRANCH   2   7
HETATM    7  C   UNL     1      -9.410  10.075  65.182  1.00  0.00    -0.245 A  
HETATM    8  C   UNL     1      -9.891   9.419  66.317  1.00  0.00    -0.281 A  
HETATM    9  C   UNL     1     -10.515  10.160  67.322  1.00  0.00    -0.313 A  
HETATM   10 CL   UNL     1      -9.780   7.712  66.581  1.00  0.00    -0.279 Cl 
HETATM   11  C   UNL     1     -10.660  11.551  67.231  1.00  0.00    -0.228 A  
HETATM   12  N   UNL     1     -11.307  12.204  68.257  1.00  0.00    -0.265 NA 
HETATM   13  H   UNL     1     -11.641  11.639  69.038  1.00  0.00     0.000 HD 
HETATM   14  C   UNL     1     -11.551  13.630  68.311  1.00  0.00    -0.339 C  
HETATM   15  C   UNL     1      -9.607  11.460  65.037  1.00  0.00    -0.250 A  
HETATM   16  N   UNL     1     -11.897  14.111  66.985  1.00  0.00    -0.410 N  
HETATM   17  O   UNL     1      -9.469  14.618  66.442  1.00  0.00    -0.275 OA 
HETATM   18  S   UNL     1     -10.600  13.889  65.907  1.00  0.00    -0.301 S  
HETATM   19  H   UNL     1     -12.795  14.525  66.734  1.00  0.00     0.000 HD 
HETATM   20  C   UNL     1     -10.252  12.171  66.059  1.00  0.00    -0.237 A  
HETATM   21  O   UNL     1     -11.110  14.144  64.579  1.00  0.00    -0.376 OA 
BRANCH  14  22
HETATM   22  C   UNL     1     -12.627  13.978  69.400  1.00  0.00     0.081 C  
HETATM   23  C   UNL     1     -12.745  15.536  69.475  1.00  0.00     0.176 C  
HETATM   24  C   UNL     1     -12.146  15.854  70.868  1.00  0.00    -0.414 C  
HETATM   25  C   UNL     1     -11.293  14.654  71.290  1.00  0.00    -0.045 C  
HETATM   26  C   UNL     1     -12.370  13.638  70.906  1.00  0.00    -0.450 C  
HETATM   27  C   UNL     1     -13.455  14.253  71.804  1.00  0.00    -0.464 C  
HETATM   28  C   UNL     1     -13.286  15.589  71.817  1.00  0.00    -0.577 C  
ENDBRANCH  14  22
ENDBRANCH   2   7
TORSDOF 2
ENDMDL
MODEL       72
REMARK 921   NORMALIZED FREE ENERGY PREDICTED BY IDOCK:   -5.19 KCAL/MOL
REMARK 922        TOTAL FREE ENERGY PREDICTED BY IDOCK:   -5.86 KCAL/MOL
REMARK 923 INTER-LIGAND FREE ENERGY PREDICTED BY IDOCK:   -5.44 KCAL/MOL
REMARK 924 INTRA-LIGAND FREE ENERGY PREDICTED BY IDOCK:   -0.43 KCAL/MOL
REMARK 927      BINDING AFFINITY PREDICTED BY RF-SCORE:    0.00 PKD
ROOT
HETATM    1  N   UNL     1     -10.007   6.415  70.410  1.00  0.00    -0.182 N  
HETATM    2  S   UNL     1      -8.444   6.803  69.924  1.00  0.00    -0.141 S  
HETATM    3  H1  UNL     1     -10.555   6.426  69.550  1.00  0.00     0.000 HD 
HETATM    4  H2  UNL     1     -10.333   6.213  71.355  1.00  0.00     0.000 HD 
HETATM    5  O   UNL     1      -7.666   6.787  71.142  1.00  0.00    -0.091 OA 
HETATM    6  O   UNL     1      -8.124   5.956  68.802  1.00  0.00    -0.101 OA 
ENDROOT
BRANCH   2   7
HETATM    7  C   UNL     1      -8.598   8.469  69.371  1.00  0.00    -0.128 A  
HETATM    8  C   UNL     1      -7.520   9.124  68.772  1.00  0.00    -0.076 A  
HETATM    9  C   UNL     1      -7.683  10.431  68.312  1.00  0.00    -0.096 A  
HETATM   10 CL   UNL     1      -5.951   8.425  68.555  1.00  0.00    -0.040 Cl 
HETATM   11  C   UNL     1      -8.907  11.104  68.423  1.00  0.00    -0.157 A  
HETATM   12  N   UNL     1      -8.977  12.402  67.964  1.00  0.00    -0.188 NA 
HETATM   13  H   UNL     1      -8.132  12.803  67.556  1.00  0.00     0.000 HD 
HETATM   14  C   UNL     1     -10.158  13.238  68.015  1.00  0.00    -0.235 C  
HETATM   15  C   UNL     1      -9.815   9.150  69.556  1.00  0.00    -0.182 A  
HETATM   16  N   UNL     1     -10.856  13.010  69.267  1.00  0.00    -0.442 N  
HETATM   17  O   UNL     1     -12.284  11.181  68.235  1.00  0.00    -0.613 OA 
HETATM   18  S   UNL     1     -11.406  11.403  69.365  1.00  0.00    -0.312 S  
HETATM   19  H   UNL     1     -10.999  13.716  69.990  1.00  0.00     0.000 HD 
HETATM   20  C   UNL     1      -9.940  10.469  69.096  1.00  0.00    -0.220 A  
HETATM   21  O   UNL     1     -11.848  11.193  70.725  1.00  0.00    -0.315 OA 
BRANCH  14  22
HETATM   22  C   UNL     1      -9.792  14.746  67.772  1.00  0.00    -0.214 C  
HETATM   23  C   UNL     1     -11.116  15.512  67.445  1.00  0.00    -0.285 C  
HETATM   24  C   UNL     1     -10.934  15.879  65.951  1.00  0.00    -0.151 C  
HETATM   25  C   UNL     1      -9.868  14.946  65.371  1.00  0.00    -0.303 C  
HETATM   26  C   UNL     1      -8.912  15.161  66.546  1.00  0.00    -0.326 C  
HETATM   27  C   UNL     1      -8.861  16.689  66.394  1.00  0.00    -0.337 C  
HETATM   28  C   UNL     1     -10.072  17.115  65.989  1.00  0.00    -0.303 C  
ENDBRANCH  14  22
ENDBRANCH   2   7
TORSDOF 2
ENDMDL
MODEL       73
REMARK 921   NORMALIZED FREE ENERGY PREDICTED BY IDOCK:   -5.15 KCAL/MOL
REMARK 922        TOTAL FREE ENERGY PREDICTED BY IDOCK:   -5.82 KCAL/MOL
REMARK 923 INTER-LIGAND FREE ENERGY PREDICTED BY IDOCK:   -5.67 KCAL/MOL
REMARK 924 INTRA-LIGAND FREE ENERGY PREDICTED BY IDOCK:   -0.15 KCAL/MOL
REMARK 927      BINDING AFFINITY PREDICTED BY RF-SCORE:    0.00 PKD
ROOT
HETATM    1  N   UNL     1     -10.946   8.772  67.709  1.00  0.00    -0.485 N  
HETATM    2  S   UNL     1      -9.310   9.130  67.558  1.00  0.00    -0.136 S  
HETATM    3  H1  UNL     1     -11.345   8.987  66.796  1.00  0.00     0.000 HD 
HETATM    4  H2  UNL     1     -11.433   8.417  68.533  1.00  0.00     0.000 HD 
HETATM    5  O   UNL     1      -8.746   8.825  68.852  1.00  0.00    -0.131 OA 
HETATM    6  O   UNL     1      -8.844   8.493  66.351  1.00  0.00    -0.133 OA 
ENDROOT
BRANCH   2   7
HETATM    7  C   UNL     1      -9.302  10.878  67.334  1.00  0.00    -0.155 A  
HETATM    8  C   UNL     1      -8.134  11.543  66.955  1.00  0.00    -0.161 A  
HETATM    9  C   UNL     1      -8.167  12.923  66.751  1.00  0.00     0.084 A  
HETATM   10 CL   UNL     1      -6.603  10.770  66.720  1.00  0.00    -0.096 Cl 
HETATM   11  C   UNL     1      -9.348  13.662  66.903  1.00  0.00    -0.257 A  
HETATM   12  N   UNL     1      -9.290  15.025  66.704  1.00  0.00    -0.249 NA 
HETATM   13  H   UNL     1      -8.387  15.425  66.446  1.00  0.00     0.000 HD 
HETATM   14  C   UNL     1     -10.411  15.932  66.833  1.00  0.00    -0.309 C  
HETATM   15  C   UNL     1     -10.482  11.610  67.560  1.00  0.00    -0.228 A  
HETATM   16  N   UNL     1     -11.230  15.528  67.962  1.00  0.00    -0.325 N  
HETATM   17  O   UNL     1     -12.683  14.055  66.490  1.00  0.00    -0.310 OA 
HETATM   18  S   UNL     1     -11.894  13.983  67.701  1.00  0.00    -0.386 S  
HETATM   19  H   UNL     1     -11.387  16.093  68.797  1.00  0.00     0.000 HD 
HETATM   20  C   UNL     1     -10.476  12.998  67.361  1.00  0.00    -0.234 A  
HETATM   21  O   UNL     1     -12.467  13.556  68.958  1.00  0.00    -0.141 OA 
BRANCH  14  22
HETATM   22  C   UNL     1      -9.925  17.422  66.919  1.00  0.00    -0.300 C  
HETATM   23  C   UNL     1      -8.382  17.408  67.178  1.00  0.00    -0.232 C  
HETATM   24  C   UNL     1      -8.277  17.949  68.626  1.00  0.00    -0.281 C  
HETATM   25  C   UNL     1      -9.647  17.769  69.288  1.00  0.00     0.060 C  
HETATM   26  C   UNL     1     -10.402  18.346  68.089  1.00  0.00    -0.393 C  
HETATM   27  C   UNL     1      -9.642  19.681  68.085  1.00  0.00    -0.474 C  
HETATM   28  C   UNL     1      -8.369  19.444  68.456  1.00  0.00    -0.399 C  
ENDBRANCH  14  22
ENDBRANCH   2   7
TORSDOF 2
ENDMDL
MODEL       74
REMARK 921   NORMALIZED FREE ENERGY PREDICTED BY IDOCK:   -5.14 KCAL/MOL
REMARK 922        TOTAL FREE ENERGY PREDICTED BY IDOCK:   -5.81 KCAL/MOL
REMARK 923 INTER-LIGAND FREE ENERGY PREDICTED BY IDOCK:   -5.56 KCAL/MOL
REMARK 924 INTRA-LIGAND FREE ENERGY PREDICTED BY IDOCK:   -0.24 KCAL/MOL
REMARK 927      BINDING AFFINITY PREDICTED BY RF-SCORE:    0.00 PKD
ROOT
HETATM    1  N   UNL     1     -11.555  13.251  66.749  1.00  0.00    -0.346 N  
HETATM    2  S   UNL     1      -9.968  12.703  66.847  1.00  0.00    -0.234 S  
HETATM    3  H1  UNL     1     -11.711  13.753  67.623  1.00  0.00     0.000 HD 
HETATM    4  H2  UNL     1     -12.215  13.113  65.984  1.00  0.00     0.000 HD 
HETATM    5  O   UNL     1      -9.747  11.992  65.608  1.00  0.00    -0.241 OA 
HETATM    6  O   UNL     1      -9.153  13.825  67.240  1.00  0.00    -0.211 OA 
ENDROOT
BRANCH   2   7
HETATM    7  C   UNL     1     -10.029  11.536  68.167  1.00  0.00    -0.192 A  
HETATM    8  C   UNL     1      -8.933  10.715  68.443  1.00  0.00    -0.149 A  
HETATM    9  C   UNL     1      -8.998   9.826  69.517  1.00  0.00    -0.215 A  
HETATM   10 CL   UNL     1      -7.464  10.706  67.528  1.00  0.00    -0.092 Cl 
HETATM   11  C   UNL     1     -10.130   9.743  70.338  1.00  0.00    -0.252 A  
HETATM   12  N   UNL     1     -10.121   8.823  71.364  1.00  0.00    -0.255 NA 
HETATM   13  H   UNL     1      -9.282   8.253  71.478  1.00  0.00     0.000 HD 
HETATM   14  C   UNL     1     -11.211   8.602  72.292  1.00  0.00    -0.328 C  
HETATM   15  C   UNL     1     -11.202  11.420  68.935  1.00  0.00    -0.310 A  
HETATM   16  N   UNL     1     -12.475   8.692  71.581  1.00  0.00    -0.321 N  
HETATM   17  O   UNL     1     -12.664  11.178  72.060  1.00  0.00    -0.281 OA 
HETATM   18  S   UNL     1     -12.698  10.255  70.946  1.00  0.00    -0.370 S  
HETATM   19  H   UNL     1     -13.138   7.924  71.478  1.00  0.00     0.000 HD 
HETATM   20  C   UNL     1     -11.238  10.505  69.997  1.00  0.00    -0.315 A  
HETATM   21  O   UNL     1     -13.829  10.184  70.050  1.00  0.00     0.466 OA 
BRANCH  14  22
HETATM   22  C   UNL     1     -11.027   7.249  73.067  1.00  0.00    -0.388 C  
HETATM   23  C   UNL     1      -9.518   6.848  72.978  1.00  0.00    -0.168 C  
HETATM   24  C   UNL     1      -9.554   5.596  72.067  1.00  0.00    -0.173 C  
HETATM   25  C   UNL     1     -10.876   5.622  71.295  1.00  0.00    -0.289 C  
HETATM   26  C   UNL     1     -11.702   5.938  72.543  1.00  0.00    -0.288 C  
HETATM   27  C   UNL     1     -11.218   4.713  73.333  1.00  0.00    -0.423 C  
HETATM   28  C   UNL     1      -9.932   4.480  73.007  1.00  0.00    -0.190 C  
ENDBRANCH  14  22
ENDBRANCH   2   7
TORSDOF 2
ENDMDL
MODEL       75
REMARK 921   NORMALIZED FREE ENERGY PREDICTED BY IDOCK:   -5.12 KCAL/MOL
REMARK 922        TOTAL FREE ENERGY PREDICTED BY IDOCK:   -5.79 KCAL/MOL
REMARK 923 INTER-LIGAND FREE ENERGY PREDICTED BY IDOCK:   -5.86 KCAL/MOL
REMARK 924 INTRA-LIGAND FREE ENERGY PREDICTED BY IDOCK:    0.07 KCAL/MOL
REMARK 927      BINDING AFFINITY PREDICTED BY RF-SCORE:    0.00 PKD
ROOT
HETATM    1  N   UNL     1      -8.683  16.010  67.230  1.00  0.00    -0.179 N  
HETATM    2  S   UNL     1     -10.353  16.058  67.422  1.00  0.00    -0.299 S  
HETATM    3  H1  UNL     1      -8.515  15.214  66.616  1.00  0.00     0.000 HD 
HETATM    4  H2  UNL     1      -7.991  16.640  67.637  1.00  0.00     0.000 HD 
HETATM    5  O   UNL     1     -10.591  17.187  68.293  1.00  0.00    -0.348 OA 
HETATM    6  O   UNL     1     -10.937  15.971  66.107  1.00  0.00    -0.225 OA 
ENDROOT
BRANCH   2   7
HETATM    7  C   UNL     1     -10.696  14.575  68.311  1.00  0.00    -0.240 A  
HETATM    8  C   UNL     1     -11.675  14.551  69.307  1.00  0.00    -0.310 A  
HETATM    9  C   UNL     1     -11.949  13.354  69.969  1.00  0.00    -0.407 A  
HETATM   10 CL   UNL     1     -12.596  15.930  69.804  1.00  0.00    -0.012 Cl 
HETATM   11  C   UNL     1     -11.276  12.166  69.652  1.00  0.00    -0.067 A  
HETATM   12  N   UNL     1     -11.591  11.032  70.369  1.00  0.00    -0.394 NA 
HETATM   13  H   UNL     1     -12.308  11.114  71.090  1.00  0.00     0.000 HD 
HETATM   14  C   UNL     1     -10.982   9.732  70.177  1.00  0.00    -0.291 C  
HETATM   15  C   UNL     1      -9.959  13.411  68.026  1.00  0.00    -0.239 A  
HETATM   16  N   UNL     1      -9.563   9.898  69.916  1.00  0.00    -0.257 N  
HETATM   17  O   UNL     1      -9.951  10.008  67.408  1.00  0.00    -0.180 OA 
HETATM   18  S   UNL     1      -9.315  10.760  68.469  1.00  0.00    -0.180 S  
HETATM   19  H   UNL     1      -8.817   9.547  70.516  1.00  0.00     0.000 HD 
HETATM   20  C   UNL     1     -10.249  12.229  68.721  1.00  0.00    -0.102 A  
HETATM   21  O   UNL     1      -7.912  11.103  68.422  1.00  0.00    -0.121 OA 
BRANCH  14  22
HETATM   22  C   UNL     1     -11.284   8.782  71.390  1.00  0.00    -0.362 C  
HETATM   23  C   UNL     1      -9.926   8.463  72.097  1.00  0.00    -0.376 C  
HETATM   24  C   UNL     1      -9.725   6.960  71.780  1.00  0.00    -0.163 C  
HETATM   25  C   UNL     1     -10.603   6.620  70.573  1.00  0.00    -0.270 C  
HETATM   26  C   UNL     1     -11.827   7.335  71.148  1.00  0.00    -0.345 C  
HETATM   27  C   UNL     1     -11.848   6.526  72.455  1.00  0.00    -0.235 C  
HETATM   28  C   UNL     1     -10.577   6.261  72.808  1.00  0.00    -0.252 C  
ENDBRANCH  14  22
ENDBRANCH   2   7
TORSDOF 2
ENDMDL
MODEL       76
REMARK 921   NORMALIZED FREE ENERGY PREDICTED BY IDOCK:   -5.11 KCAL/MOL
REMARK 922        TOTAL FREE ENERGY PREDICTED BY IDOCK:   -5.78 KCAL/MOL
REMARK 923 INTER-LIGAND FREE ENERGY PREDICTED BY IDOCK:   -5.43 KCAL/MOL
REMARK 924 INTRA-LIGAND FREE ENERGY PREDICTED BY IDOCK:   -0.35 KCAL/MOL
REMARK 927      BINDING AFFINITY PREDICTED BY RF-SCORE:    0.00 PKD
ROOT
HETATM    1  N   UNL     1      -7.940   5.596  70.648  1.00  0.00    -0.102 N  
HETATM    2  S   UNL     1      -8.840   4.944  69.386  1.00  0.00    -0.093 S  
HETATM    3  H1  UNL     1      -8.610   6.141  71.190  1.00  0.00     0.000 HD 
HETATM    4  H2  UNL     1      -6.944   5.473  70.830  1.00  0.00     0.000 HD 
HETATM    5  O   UNL     1      -7.890   4.172  68.617  1.00  0.00    -0.071 OA 
HETATM    6  O   UNL     1     -10.018   4.349  69.965  1.00  0.00    -0.223 OA 
ENDROOT
BRANCH   2   7
HETATM    7  C   UNL     1      -9.305   6.364  68.450  1.00  0.00    -0.121 A  
HETATM    8  C   UNL     1      -9.829   6.229  67.163  1.00  0.00    -0.142 A  
HETATM    9  C   UNL     1     -10.221   7.369  66.461  1.00  0.00    -0.149 A  
HETATM   10 CL   UNL     1     -10.030   4.717  66.343  1.00  0.00    -0.232 Cl 
HETATM   11  C   UNL     1     -10.116   8.650  67.018  1.00  0.00    -0.272 A  
HETATM   12  N   UNL     1     -10.505   9.726  66.248  1.00  0.00    -0.148 NA 
HETATM   13  H   UNL     1     -10.860   9.531  65.312  1.00  0.00     0.000 HD 
HETATM   14  C   UNL     1     -10.449  11.111  66.667  1.00  0.00    -0.250 C  
HETATM   15  C   UNL     1      -9.125   7.645  69.002  1.00  0.00    -0.144 A  
HETATM   16  N   UNL     1      -9.235  11.333  67.435  1.00  0.00    -0.161 N  
HETATM   17  O   UNL     1     -10.416  10.795  69.617  1.00  0.00    -0.219 OA 
HETATM   18  S   UNL     1      -9.246  10.404  68.860  1.00  0.00    -0.184 S  
HETATM   19  H   UNL     1      -8.481  11.961  67.157  1.00  0.00     0.000 HD 
HETATM   20  C   UNL     1      -9.515   8.771  68.262  1.00  0.00    -0.141 A  
HETATM   21  O   UNL     1      -7.916  10.481  69.420  1.00  0.00    -0.153 OA 
BRANCH  14  22
HETATM   22  C   UNL     1     -10.595  12.078  65.440  1.00  0.00    -0.319 C  
HETATM   23  C   UNL     1     -10.189  13.513  65.911  1.00  0.00    -0.306 C  
HETATM   24  C   UNL     1     -11.537  14.276  65.872  1.00  0.00    -0.358 C  
HETATM   25  C   UNL     1     -12.659  13.234  65.899  1.00  0.00    -0.349 C  
HETATM   26  C   UNL     1     -12.003  12.368  64.822  1.00  0.00    -0.462 C  
HETATM   27  C   UNL     1     -11.928  13.493  63.778  1.00  0.00    -0.475 C  
HETATM   28  C   UNL     1     -11.693  14.652  64.421  1.00  0.00    -0.358 C  
ENDBRANCH  14  22
ENDBRANCH   2   7
TORSDOF 2
ENDMDL
MODEL       77
REMARK 921   NORMALIZED FREE ENERGY PREDICTED BY IDOCK:   -5.09 KCAL/MOL
REMARK 922        TOTAL FREE ENERGY PREDICTED BY IDOCK:   -5.76 KCAL/MOL
REMARK 923 INTER-LIGAND FREE ENERGY PREDICTED BY IDOCK:   -5.55 KCAL/MOL
REMARK 924 INTRA-LIGAND FREE ENERGY PREDICTED BY IDOCK:   -0.20 KCAL/MOL
REMARK 927      BINDING AFFINITY PREDICTED BY RF-SCORE:    0.00 PKD
ROOT
HETATM    1  N   UNL     1      -8.572  19.584  68.210  1.00  0.00    -0.335 N  
HETATM    2  S   UNL     1      -9.384  19.141  66.806  1.00  0.00    -0.338 S  
HETATM    3  H1  UNL     1      -7.597  19.339  68.034  1.00  0.00     0.000 HD 
HETATM    4  H2  UNL     1      -8.966  20.005  69.052  1.00  0.00     0.000 HD 
HETATM    5  O   UNL     1     -10.765  19.487  67.055  1.00  0.00    -0.467 OA 
HETATM    6  O   UNL     1      -8.647  19.689  65.695  1.00  0.00    -0.353 OA 
ENDROOT
BRANCH   2   7
HETATM    7  C   UNL     1      -9.234  17.384  66.794  1.00  0.00    -0.260 A  
HETATM    8  C   UNL     1     -10.025  16.607  65.945  1.00  0.00    -0.295 A  
HETATM    9  C   UNL     1      -9.859  15.222  65.933  1.00  0.00    -0.385 A  
HETATM   10 CL   UNL     1     -11.235  17.243  64.884  1.00  0.00     0.191 Cl 
HETATM   11  C   UNL     1      -8.907  14.587  66.741  1.00  0.00    -0.220 A  
HETATM   12  N   UNL     1      -8.822  13.212  66.685  1.00  0.00    -0.416 NA 
HETATM   13  H   UNL     1      -9.453  12.727  66.047  1.00  0.00     0.000 HD 
HETATM   14  C   UNL     1      -7.905  12.404  67.461  1.00  0.00    -0.169 C  
HETATM   15  C   UNL     1      -8.321  16.762  67.665  1.00  0.00    -0.191 A  
HETATM   16  N   UNL     1      -7.792  12.954  68.801  1.00  0.00    -0.311 N  
HETATM   17  O   UNL     1      -5.825  14.412  68.128  1.00  0.00    -0.112 OA 
HETATM   18  S   UNL     1      -7.126  14.519  68.754  1.00  0.00    -0.119 S  
HETATM   19  H   UNL     1      -8.074  12.469  69.653  1.00  0.00     0.000 HD 
HETATM   20  C   UNL     1      -8.191  15.366  67.638  1.00  0.00    -0.157 A  
HETATM   21  O   UNL     1      -7.291  15.084  70.074  1.00  0.00    -0.146 OA 
BRANCH  14  22
HETATM   22  C   UNL     1      -8.330  10.893  67.443  1.00  0.00    -0.117 C  
HETATM   23  C   UNL     1      -9.297  10.682  66.232  1.00  0.00    -0.199 C  
HETATM   24  C   UNL     1     -10.654  10.406  66.925  1.00  0.00    -0.293 C  
HETATM   25  C   UNL     1     -10.560  10.943  68.357  1.00  0.00    -0.225 C  
HETATM   26  C   UNL     1      -9.195  10.299  68.605  1.00  0.00    -0.159 C  
HETATM   27  C   UNL     1      -9.662   8.873  68.273  1.00  0.00    -0.174 C  
HETATM   28  C   UNL     1     -10.579   8.946  67.290  1.00  0.00    -0.304 C  
ENDBRANCH  14  22
ENDBRANCH   2   7
TORSDOF 2
ENDMDL
MODEL       78
REMARK 921   NORMALIZED FREE ENERGY PREDICTED BY IDOCK:   -5.07 KCAL/MOL
REMARK 922        TOTAL FREE ENERGY PREDICTED BY IDOCK:   -5.74 KCAL/MOL
REMARK 923 INTER-LIGAND FREE ENERGY PREDICTED BY IDOCK:   -5.82 KCAL/MOL
REMARK 924 INTRA-LIGAND FREE ENERGY PREDICTED BY IDOCK:    0.08 KCAL/MOL
REMARK 927      BINDING AFFINITY PREDICTED BY RF-SCORE:    0.00 PKD
ROOT
HETATM    1  N   UNL     1      -8.831  14.685  67.154  1.00  0.00    -0.209 N  
HETATM    2  S   UNL     1     -10.434  14.502  67.628  1.00  0.00    -0.247 S  
HETATM    3  H1  UNL     1      -8.764  14.183  66.268  1.00  0.00     0.000 HD 
HETATM    4  H2  UNL     1      -8.090  15.187  67.643  1.00  0.00     0.000 HD 
HETATM    5  O   UNL     1     -10.530  15.213  68.883  1.00  0.00    -0.225 OA 
HETATM    6  O   UNL     1     -11.256  14.841  66.493  1.00  0.00    -0.335 OA 
ENDROOT
BRANCH   2   7
HETATM    7  C   UNL     1     -10.564  12.773  67.945  1.00  0.00    -0.221 A  
HETATM    8  C   UNL     1     -11.369  12.296  68.982  1.00  0.00    -0.280 A  
HETATM    9  C   UNL     1     -11.479  10.921  69.185  1.00  0.00    -0.373 A  
HETATM   10 CL   UNL     1     -12.261  13.306  70.068  1.00  0.00    -0.372 Cl 
HETATM   11  C   UNL     1     -10.812   9.998  68.368  1.00  0.00    -0.235 A  
HETATM   12  N   UNL     1     -10.957   8.657  68.651  1.00  0.00    -0.439 NA 
HETATM   13  H   UNL     1     -11.552   8.404  69.440  1.00  0.00     0.000 HD 
HETATM   14  C   UNL     1     -10.328   7.580  67.916  1.00  0.00    -0.210 C  
HETATM   15  C   UNL     1      -9.830  11.868  67.156  1.00  0.00    -0.206 A  
HETATM   16  N   UNL     1      -8.978   7.971  67.549  1.00  0.00    -0.137 N  
HETATM   17  O   UNL     1      -9.766   8.929  65.333  1.00  0.00    -0.079 OA 
HETATM   18  S   UNL     1      -9.003   9.312  66.502  1.00  0.00    -0.157 S  
HETATM   19  H   UNL     1      -8.131   7.505  67.874  1.00  0.00     0.000 HD 
HETATM   20  C   UNL     1      -9.951  10.492  67.399  1.00  0.00    -0.179 A  
HETATM   21  O   UNL     1      -7.642   9.789  66.401  1.00  0.00    -0.097 OA 
BRANCH  14  22
HETATM   22  C   UNL     1     -10.389   6.235  68.722  1.00  0.00    -0.245 C  
HETATM   23  C   UNL     1     -11.397   6.430  69.903  1.00  0.00    -0.500 C  
HETATM   24  C   UNL     1     -10.472   6.403  71.145  1.00  0.00    -0.265 C  
HETATM   25  C   UNL     1      -9.047   6.704  70.668  1.00  0.00    -0.155 C  
HETATM   26  C   UNL     1      -9.133   5.720  69.501  1.00  0.00    -0.143 C  
HETATM   27  C   UNL     1      -9.485   4.508  70.378  1.00  0.00    -0.252 C  
HETATM   28  C   UNL     1     -10.255   4.933  71.397  1.00  0.00    -0.257 C  
ENDBRANCH  14  22
ENDBRANCH   2   7
TORSDOF 2
ENDMDL
MODEL       79
REMARK 921   NORMALIZED FREE ENERGY PREDICTED BY IDOCK:   -5.07 KCAL/MOL
REMARK 922        TOTAL FREE ENERGY PREDICTED BY IDOCK:   -5.73 KCAL/MOL
REMARK 923 INTER-LIGAND FREE ENERGY PREDICTED BY IDOCK:   -5.92 KCAL/MOL
REMARK 924 INTRA-LIGAND FREE ENERGY PREDICTED BY IDOCK:    0.19 KCAL/MOL
REMARK 927      BINDING AFFINITY PREDICTED BY RF-SCORE:    0.00 PKD
ROOT
HETATM    1  N   UNL     1     -10.673   5.653  71.713  1.00  0.00    -0.241 N  
HETATM    2  S   UNL     1     -11.148   7.110  72.405  1.00  0.00    -0.281 S  
HETATM    3  H1  UNL     1      -9.662   5.624  71.836  1.00  0.00     0.000 HD 
HETATM    4  H2  UNL     1     -11.267   4.952  71.269  1.00  0.00     0.000 HD 
HETATM    5  O   UNL     1     -12.582   7.150  72.231  1.00  0.00    -0.166 OA 
HETATM    6  O   UNL     1     -10.534   7.184  73.708  1.00  0.00    -0.371 OA 
ENDROOT
BRANCH   2   7
HETATM    7  C   UNL     1     -10.414   8.313  71.346  1.00  0.00    -0.219 A  
HETATM    8  C   UNL     1      -9.043   8.288  71.081  1.00  0.00    -0.162 A  
HETATM    9  C   UNL     1      -8.498   9.232  70.210  1.00  0.00    -0.224 A  
HETATM   10 CL   UNL     1      -7.936   7.151  71.771  1.00  0.00    -0.097 Cl 
HETATM   11  C   UNL     1      -9.291  10.201  69.582  1.00  0.00    -0.190 A  
HETATM   12  N   UNL     1      -8.669  11.111  68.754  1.00  0.00    -0.253 NA 
HETATM   13  H   UNL     1      -7.660  11.025  68.634  1.00  0.00     0.000 HD 
HETATM   14  C   UNL     1      -9.339  12.179  68.042  1.00  0.00    -0.197 C  
HETATM   15  C   UNL     1     -11.218   9.321  70.782  1.00  0.00    -0.351 A  
HETATM   16  N   UNL     1     -10.370  12.751  68.890  1.00  0.00    -0.425 N  
HETATM   17  O   UNL     1     -12.121  11.148  67.987  1.00  0.00    -0.635 OA 
HETATM   18  S   UNL     1     -11.566  11.594  69.248  1.00  0.00    -0.348 S  
HETATM   19  H   UNL     1     -10.378  13.715  69.225  1.00  0.00     0.000 HD 
HETATM   20  C   UNL     1     -10.634  10.263  69.924  1.00  0.00    -0.276 A  
HETATM   21  O   UNL     1     -12.396  12.157  70.288  1.00  0.00    -0.271 OA 
BRANCH  14  22
HETATM   22  C   UNL     1      -8.308  13.239  67.515  1.00  0.00    -0.186 C  
HETATM   23  C   UNL     1      -7.056  13.195  68.451  1.00  0.00    -0.107 C  
HETATM   24  C   UNL     1      -7.132  14.559  69.182  1.00  0.00    -0.130 C  
HETATM   25  C   UNL     1      -8.571  15.070  69.059  1.00  0.00    -0.205 C  
HETATM   26  C   UNL     1      -8.647  14.767  67.562  1.00  0.00    -0.198 C  
HETATM   27  C   UNL     1      -7.421  15.617  67.194  1.00  0.00    -0.253 C  
HETATM   28  C   UNL     1      -6.527  15.527  68.197  1.00  0.00    -0.133 C  
ENDBRANCH  14  22
ENDBRANCH   2   7
TORSDOF 2
ENDMDL
MODEL       80
REMARK 921   NORMALIZED FREE ENERGY PREDICTED BY IDOCK:   -5.06 KCAL/MOL
REMARK 922        TOTAL FREE ENERGY PREDICTED BY IDOCK:   -5.73 KCAL/MOL
REMARK 923 INTER-LIGAND FREE ENERGY PREDICTED BY IDOCK:   -5.41 KCAL/MOL
REMARK 924 INTRA-LIGAND FREE ENERGY PREDICTED BY IDOCK:   -0.32 KCAL/MOL
REMARK 927      BINDING AFFINITY PREDICTED BY RF-SCORE:    0.00 PKD
ROOT
HETATM    1  N   UNL     1      -7.872   8.176  62.733  1.00  0.00    -0.133 N  
HETATM    2  S   UNL     1      -8.418   9.583  63.475  1.00  0.00    -0.210 S  
HETATM    3  H1  UNL     1      -8.719   7.656  62.507  1.00  0.00     0.000 HD 
HETATM    4  H2  UNL     1      -6.906   7.904  62.550  1.00  0.00     0.000 HD 
HETATM    5  O   UNL     1      -7.217  10.320  63.796  1.00  0.00    -0.128 OA 
HETATM    6  O   UNL     1      -9.452  10.134  62.635  1.00  0.00    -0.295 OA 
ENDROOT
BRANCH   2   7
HETATM    7  C   UNL     1      -9.138   8.992  64.972  1.00  0.00    -0.111 A  
HETATM    8  C   UNL     1      -9.777   9.870  65.850  1.00  0.00    -0.262 A  
HETATM    9  C   UNL     1     -10.369   9.368  67.010  1.00  0.00    -0.322 A  
HETATM   10 CL   UNL     1      -9.891  11.581  65.611  1.00  0.00    -0.257 Cl 
HETATM   11  C   UNL     1     -10.351   8.000  67.313  1.00  0.00    -0.301 A  
HETATM   12  N   UNL     1     -10.939   7.589  68.490  1.00  0.00    -0.430 NA 
HETATM   13  H   UNL     1     -11.367   8.305  69.078  1.00  0.00     0.000 HD 
HETATM   14  C   UNL     1     -10.996   6.220  68.957  1.00  0.00    -0.372 C  
HETATM   15  C   UNL     1      -9.047   7.625  65.291  1.00  0.00     0.320 A  
HETATM   16  N   UNL     1      -9.741   5.554  68.652  1.00  0.00    -0.134 N  
HETATM   17  O   UNL     1     -10.614   4.751  66.407  1.00  0.00    -0.284 OA 
HETATM   18  S   UNL     1      -9.494   5.475  66.970  1.00  0.00    -0.139 S  
HETATM   19  H   UNL     1      -9.096   5.184  69.350  1.00  0.00     0.000 HD 
HETATM   20  C   UNL     1      -9.639   7.157  66.473  1.00  0.00    -0.144 A  
HETATM   21  O   UNL     1      -8.130   5.045  66.767  1.00  0.00    -0.107 OA 
BRANCH  14  22
HETATM   22  C   UNL     1     -11.380   6.157  70.478  1.00  0.00    -0.381 C  
HETATM   23  C   UNL     1     -11.643   7.619  70.965  1.00  0.00    -0.301 C  
HETATM   24  C   UNL     1     -10.453   7.876  71.922  1.00  0.00    -0.284 C  
HETATM   25  C   UNL     1      -9.357   6.862  71.581  1.00  0.00    -0.154 C  
HETATM   26  C   UNL     1     -10.333   5.685  71.541  1.00  0.00    -0.279 C  
HETATM   27  C   UNL     1     -10.858   5.903  72.969  1.00  0.00    -0.300 C  
HETATM   28  C   UNL     1     -10.885   7.227  73.212  1.00  0.00    -0.404 C  
ENDBRANCH  14  22
ENDBRANCH   2   7
TORSDOF 2
ENDMDL
MODEL       81
REMARK 921   NORMALIZED FREE ENERGY PREDICTED BY IDOCK:   -4.94 KCAL/MOL
REMARK 922        TOTAL FREE ENERGY PREDICTED BY IDOCK:   -5.58 KCAL/MOL
REMARK 923 INTER-LIGAND FREE ENERGY PREDICTED BY IDOCK:   -5.46 KCAL/MOL
REMARK 924 INTRA-LIGAND FREE ENERGY PREDICTED BY IDOCK:   -0.12 KCAL/MOL
REMARK 927      BINDING AFFINITY PREDICTED BY RF-SCORE:    0.00 PKD
ROOT
HETATM    1  N   UNL     1      -7.104  10.661  63.646  1.00  0.00    -0.346 N  
HETATM    2  S   UNL     1      -8.744  10.298  63.565  1.00  0.00    -0.225 S  
HETATM    3  H1  UNL     1      -6.634   9.766  63.514  1.00  0.00     0.000 HD 
HETATM    4  H2  UNL     1      -6.675  11.575  63.794  1.00  0.00     0.000 HD 
HETATM    5  O   UNL     1      -9.411  11.567  63.751  1.00  0.00    -0.204 OA 
HETATM    6  O   UNL     1      -8.946   9.495  62.385  1.00  0.00    -0.245 OA 
ENDROOT
BRANCH   2   7
HETATM    7  C   UNL     1      -9.006   9.304  64.997  1.00  0.00    -0.197 A  
HETATM    8  C   UNL     1      -8.621   7.962  65.012  1.00  0.00     0.015 A  
HETATM    9  C   UNL     1      -8.809   7.210  66.173  1.00  0.00    -0.171 A  
HETATM   10 CL   UNL     1      -7.919   7.131  63.666  1.00  0.00    -0.108 Cl 
HETATM   11  C   UNL     1      -9.361   7.769  67.332  1.00  0.00    -0.141 A  
HETATM   12  N   UNL     1      -9.533   6.951  68.428  1.00  0.00    -0.129 NA 
HETATM   13  H   UNL     1      -9.238   5.978  68.341  1.00  0.00     0.000 HD 
HETATM   14  C   UNL     1     -10.099   7.367  69.695  1.00  0.00    -0.186 C  
HETATM   15  C   UNL     1      -9.627   9.868  66.127  1.00  0.00    -0.275 A  
HETATM   16  N   UNL     1     -11.203   8.280  69.453  1.00  0.00    -0.425 N  
HETATM   17  O   UNL     1      -9.666  10.299  69.558  1.00  0.00    -0.224 OA 
HETATM   18  S   UNL     1     -10.654   9.697  68.687  1.00  0.00    -0.203 S  
HETATM   19  H   UNL     1     -12.173   8.097  69.707  1.00  0.00     0.000 HD 
HETATM   20  C   UNL     1      -9.814   9.079  67.270  1.00  0.00    -0.196 A  
HETATM   21  O   UNL     1     -11.828  10.420  68.254  1.00  0.00    -0.324 OA 
BRANCH  14  22
HETATM   22  C   UNL     1     -10.499   6.125  70.569  1.00  0.00    -0.291 C  
HETATM   23  C   UNL     1     -11.831   6.473  71.312  1.00  0.00    -0.385 C  
HETATM   24  C   UNL     1     -11.377   6.576  72.789  1.00  0.00    -0.221 C  
HETATM   25  C   UNL     1      -9.862   6.797  72.794  1.00  0.00    -0.183 C  
HETATM   26  C   UNL     1      -9.605   5.685  71.776  1.00  0.00    -0.184 C  
HETATM   27  C   UNL     1     -10.295   4.589  72.604  1.00  0.00    -0.252 C  
HETATM   28  C   UNL     1     -11.338   5.142  73.252  1.00  0.00    -0.361 C  
ENDBRANCH  14  22
ENDBRANCH   2   7
TORSDOF 2
ENDMDL
MODEL       82
REMARK 921   NORMALIZED FREE ENERGY PREDICTED BY IDOCK:   -4.93 KCAL/MOL
REMARK 922        TOTAL FREE ENERGY PREDICTED BY IDOCK:   -5.57 KCAL/MOL
REMARK 923 INTER-LIGAND FREE ENERGY PREDICTED BY IDOCK:   -5.45 KCAL/MOL
REMARK 924 INTRA-LIGAND FREE ENERGY PREDICTED BY IDOCK:   -0.13 KCAL/MOL
REMARK 927      BINDING AFFINITY PREDICTED BY RF-SCORE:    0.00 PKD
ROOT
HETATM    1  N   UNL     1     -10.051  19.971  67.982  1.00  0.00    -0.423 N  
HETATM    2  S   UNL     1      -8.456  19.449  67.878  1.00  0.00    -0.320 S  
HETATM    3  H1  UNL     1     -10.343  19.726  68.928  1.00  0.00     0.000 HD 
HETATM    4  H2  UNL     1     -10.604  20.431  67.259  1.00  0.00     0.000 HD 
HETATM    5  O   UNL     1      -8.042  19.795  66.538  1.00  0.00    -0.296 OA 
HETATM    6  O   UNL     1      -7.768  19.946  69.044  1.00  0.00    -0.247 OA 
ENDROOT
BRANCH   2   7
HETATM    7  C   UNL     1      -8.600  17.696  67.992  1.00  0.00    -0.248 A  
HETATM    8  C   UNL     1      -7.579  16.865  67.526  1.00  0.00    -0.165 A  
HETATM    9  C   UNL     1      -7.707  15.482  67.662  1.00  0.00    -0.178 A  
HETATM   10 CL   UNL     1      -6.131  17.430  66.765  1.00  0.00    -0.205 Cl 
HETATM   11  C   UNL     1      -8.829  14.901  68.267  1.00  0.00    -0.172 A  
HETATM   12  N   UNL     1      -8.886  13.526  68.342  1.00  0.00    -0.261 NA 
HETATM   13  H   UNL     1      -8.101  13.000  67.958  1.00  0.00     0.000 HD 
HETATM   14  C   UNL     1      -9.977  12.770  68.922  1.00  0.00     0.115 C  
HETATM   15  C   UNL     1      -9.767  17.131  68.540  1.00  0.00    -0.291 A  
HETATM   16  N   UNL     1     -11.238  13.403  68.579  1.00  0.00    -0.266 N  
HETATM   17  O   UNL     1     -11.196  14.823  70.683  1.00  0.00    -0.224 OA 
HETATM   18  S   UNL     1     -11.330  14.964  69.249  1.00  0.00    -0.315 S  
HETATM   19  H   UNL     1     -11.969  12.970  68.014  1.00  0.00     0.000 HD 
HETATM   20  C   UNL     1      -9.869  15.737  68.647  1.00  0.00    -0.210 A  
HETATM   21  O   UNL     1     -12.477  15.609  68.651  1.00  0.00     0.102 OA 
BRANCH  14  22
HETATM   22  C   UNL     1      -9.903  11.259  68.502  1.00  0.00    -0.198 C  
HETATM   23  C   UNL     1      -8.681  11.089  67.541  1.00  0.00    -0.128 C  
HETATM   24  C   UNL     1      -9.358  10.785  66.182  1.00  0.00    -0.209 C  
HETATM   25  C   UNL     1     -10.808  11.271  66.268  1.00  0.00    -0.296 C  
HETATM   26  C   UNL     1     -11.039  10.622  67.633  1.00  0.00    -0.385 C  
HETATM   27  C   UNL     1     -10.655   9.208  67.173  1.00  0.00    -0.286 C  
HETATM   28  C   UNL     1      -9.671   9.313  66.260  1.00  0.00    -0.340 C  
ENDBRANCH  14  22
ENDBRANCH   2   7
TORSDOF 2
ENDMDL
MODEL       83
REMARK 921   NORMALIZED FREE ENERGY PREDICTED BY IDOCK:   -4.90 KCAL/MOL
REMARK 922        TOTAL FREE ENERGY PREDICTED BY IDOCK:   -5.55 KCAL/MOL
REMARK 923 INTER-LIGAND FREE ENERGY PREDICTED BY IDOCK:   -5.27 KCAL/MOL
REMARK 924 INTRA-LIGAND FREE ENERGY PREDICTED BY IDOCK:   -0.27 KCAL/MOL
REMARK 927      BINDING AFFINITY PREDICTED BY RF-SCORE:    0.00 PKD
ROOT
HETATM    1  N   UNL     1     -12.051  15.775  69.415  1.00  0.00    -0.485 N  
HETATM    2  S   UNL     1     -10.982  15.867  68.120  1.00  0.00    -0.342 S  
HETATM    3  H1  UNL     1     -11.517  15.331  70.161  1.00  0.00     0.000 HD 
HETATM    4  H2  UNL     1     -13.019  16.094  69.446  1.00  0.00     0.000 HD 
HETATM    5  O   UNL     1     -11.739  16.497  67.062  1.00  0.00     0.621 OA 
HETATM    6  O   UNL     1      -9.753  16.431  68.620  1.00  0.00    -0.222 OA 
ENDROOT
BRANCH   2   7
HETATM    7  C   UNL     1     -10.717  14.176  67.698  1.00  0.00    -0.257 A  
HETATM    8  C   UNL     1     -10.242  13.823  66.433  1.00  0.00    -0.292 A  
HETATM    9  C   UNL     1     -10.008  12.479  66.140  1.00  0.00    -0.267 A  
HETATM   10 CL   UNL     1      -9.918  14.952  65.161  1.00  0.00    -0.348 Cl 
HETATM   11  C   UNL     1     -10.225  11.470  67.088  1.00  0.00    -0.204 A  
HETATM   12  N   UNL     1      -9.991  10.165  66.711  1.00  0.00    -0.202 NA 
HETATM   13  H   UNL     1      -9.661  10.002  65.759  1.00  0.00     0.000 HD 
HETATM   14  C   UNL     1     -10.177   9.008  67.562  1.00  0.00    -0.241 C  
HETATM   15  C   UNL     1     -11.008  13.174  68.641  1.00  0.00    -0.296 A  
HETATM   16  N   UNL     1     -11.370   9.191  68.370  1.00  0.00    -0.243 N  
HETATM   17  O   UNL     1     -10.037  10.267  70.245  1.00  0.00    -0.169 OA 
HETATM   18  S   UNL     1     -11.192  10.525  69.411  1.00  0.00    -0.285 S  
HETATM   19  H   UNL     1     -12.200   8.601  68.321  1.00  0.00     0.000 HD 
HETATM   20  C   UNL     1     -10.777  11.832  68.309  1.00  0.00    -0.214 A  
HETATM   21  O   UNL     1     -12.495  10.791  69.977  1.00  0.00    -0.325 OA 
BRANCH  14  22
HETATM   22  C   UNL     1     -10.194   7.684  66.719  1.00  0.00    -0.333 C  
HETATM   23  C   UNL     1     -11.043   6.630  67.501  1.00  0.00    -0.374 C  
HETATM   24  C   UNL     1      -9.977   5.595  67.940  1.00  0.00    -0.174 C  
HETATM   25  C   UNL     1      -8.610   6.282  67.873  1.00  0.00    -0.115 C  
HETATM   26  C   UNL     1      -8.874   6.874  66.488  1.00  0.00    -0.148 C  
HETATM   27  C   UNL     1      -9.166   5.521  65.821  1.00  0.00    -0.132 C  
HETATM   28  C   UNL     1      -9.790   4.733  66.717  1.00  0.00    -0.227 C  
ENDBRANCH  14  22
ENDBRANCH   2   7
TORSDOF 2
ENDMDL
MODEL       84
REMARK 921   NORMALIZED FREE ENERGY PREDICTED BY IDOCK:   -4.87 KCAL/MOL
REMARK 922        TOTAL FREE ENERGY PREDICTED BY IDOCK:   -5.51 KCAL/MOL
REMARK 923 INTER-LIGAND FREE ENERGY PREDICTED BY IDOCK:   -5.36 KCAL/MOL
REMARK 924 INTRA-LIGAND FREE ENERGY PREDICTED BY IDOCK:   -0.14 KCAL/MOL
REMARK 927      BINDING AFFINITY PREDICTED BY RF-SCORE:    0.00 PKD
ROOT
HETATM    1  N   UNL     1      -9.545   5.876  72.770  1.00  0.00    -0.156 N  
HETATM    2  S   UNL     1      -8.551   7.204  73.041  1.00  0.00    -0.125 S  
HETATM    3  H1  UNL     1      -9.283   5.540  71.844  1.00  0.00     0.000 HD 
HETATM    4  H2  UNL     1     -10.255   5.491  73.394  1.00  0.00     0.000 HD 
HETATM    5  O   UNL     1      -8.923   7.681  74.353  1.00  0.00    -0.196 OA 
HETATM    6  O   UNL     1      -7.203   6.799  72.729  1.00  0.00    -0.079 OA 
ENDROOT
BRANCH   2   7
HETATM    7  C   UNL     1      -9.102   8.369  71.838  1.00  0.00    -0.221 A  
HETATM    8  C   UNL     1     -10.442   8.757  71.783  1.00  0.00    -0.346 A  
HETATM    9  C   UNL     1     -10.842   9.707  70.843  1.00  0.00    -0.409 A  
HETATM   10 CL   UNL     1     -11.684   8.130  72.813  1.00  0.00    -0.426 Cl 
HETATM   11  C   UNL     1      -9.930  10.296  69.956  1.00  0.00    -0.071 A  
HETATM   12  N   UNL     1     -10.410  11.210  69.044  1.00  0.00    -0.272 NA 
HETATM   13  H   UNL     1     -11.409  11.418  69.067  1.00  0.00     0.000 HD 
HETATM   14  C   UNL     1      -9.607  11.897  68.054  1.00  0.00    -0.193 C  
HETATM   15  C   UNL     1      -8.182   8.894  70.911  1.00  0.00    -0.207 A  
HETATM   16  N   UNL     1      -8.617  10.980  67.516  1.00  0.00    -0.127 N  
HETATM   17  O   UNL     1      -6.911  11.660  69.269  1.00  0.00    -0.107 OA 
HETATM   18  S   UNL     1      -7.542  10.473  68.734  1.00  0.00    -0.110 S  
HETATM   19  H   UNL     1      -8.572  10.681  66.542  1.00  0.00     0.000 HD 
HETATM   20  C   UNL     1      -8.621   9.835  69.969  1.00  0.00    -0.204 A  
HETATM   21  O   UNL     1      -6.770   9.382  68.183  1.00  0.00    -0.059 OA 
BRANCH  14  22
HETATM   22  C   UNL     1     -10.511  12.554  66.951  1.00  0.00    -0.244 C  
HETATM   23  C   UNL     1      -9.569  13.144  65.850  1.00  0.00    -0.122 C  
HETATM   24  C   UNL     1      -9.759  14.671  66.025  1.00  0.00    -0.340 C  
HETATM   25  C   UNL     1     -10.327  14.909  67.428  1.00  0.00    -0.243 C  
HETATM   26  C   UNL     1     -11.382  13.811  67.284  1.00  0.00    -0.343 C  
HETATM   27  C   UNL     1     -12.012  14.400  66.013  1.00  0.00    -0.377 C  
HETATM   28  C   UNL     1     -11.035  14.961  65.277  1.00  0.00    -0.389 C  
ENDBRANCH  14  22
ENDBRANCH   2   7
TORSDOF 2
ENDMDL
MODEL       85
REMARK 921   NORMALIZED FREE ENERGY PREDICTED BY IDOCK:   -4.83 KCAL/MOL
REMARK 922        TOTAL FREE ENERGY PREDICTED BY IDOCK:   -5.46 KCAL/MOL
REMARK 923 INTER-LIGAND FREE ENERGY PREDICTED BY IDOCK:   -5.50 KCAL/MOL
REMARK 924 INTRA-LIGAND FREE ENERGY PREDICTED BY IDOCK:    0.04 KCAL/MOL
REMARK 927      BINDING AFFINITY PREDICTED BY RF-SCORE:    0.00 PKD
ROOT
HETATM    1  N   UNL     1     -10.754  17.453  69.589  1.00  0.00    -0.252 N  
HETATM    2  S   UNL     1     -10.016  17.705  68.099  1.00  0.00    -0.351 S  
HETATM    3  H1  UNL     1      -9.999  17.149  70.204  1.00  0.00     0.000 HD 
HETATM    4  H2  UNL     1     -11.738  17.578  69.826  1.00  0.00     0.000 HD 
HETATM    5  O   UNL     1     -11.085  18.137  67.228  1.00  0.00    -0.194 OA 
HETATM    6  O   UNL     1      -8.846  18.515  68.334  1.00  0.00    -0.308 OA 
ENDROOT
BRANCH   2   7
HETATM    7  C   UNL     1      -9.515  16.084  67.622  1.00  0.00    -0.216 A  
HETATM    8  C   UNL     1      -8.301  15.554  68.065  1.00  0.00    -0.142 A  
HETATM    9  C   UNL     1      -7.948  14.254  67.699  1.00  0.00    -0.191 A  
HETATM   10 CL   UNL     1      -7.164  16.407  69.052  1.00  0.00    -0.204 Cl 
HETATM   11  C   UNL     1      -8.786  13.458  66.907  1.00  0.00    -0.176 A  
HETATM   12  N   UNL     1      -8.352  12.193  66.573  1.00  0.00    -0.388 NA 
HETATM   13  H   UNL     1      -7.442  11.898  66.928  1.00  0.00     0.000 HD 
HETATM   14  C   UNL     1      -9.088  11.251  65.756  1.00  0.00    -0.203 C  
HETATM   15  C   UNL     1     -10.339  15.328  66.769  1.00  0.00    -0.279 A  
HETATM   16  N   UNL     1      -9.745  11.963  64.673  1.00  0.00    -0.419 N  
HETATM   17  O   UNL     1     -11.848  12.298  66.056  1.00  0.00    -0.493 OA 
HETATM   18  S   UNL     1     -10.891  13.062  65.284  1.00  0.00    -0.300 S  
HETATM   19  H   UNL     1      -9.546  11.823  63.682  1.00  0.00     0.000 HD 
HETATM   20  C   UNL     1      -9.946  14.031  66.408  1.00  0.00    -0.294 A  
HETATM   21  O   UNL     1     -11.300  13.899  64.178  1.00  0.00    -0.329 OA 
BRANCH  14  22
HETATM   22  C   UNL     1      -8.159  10.086  65.261  1.00  0.00    -0.145 C  
HETATM   23  C   UNL     1      -9.012   8.776  65.228  1.00  0.00    -0.184 C  
HETATM   24  C   UNL     1      -8.391   7.940  66.376  1.00  0.00    -0.129 C  
HETATM   25  C   UNL     1      -7.636   8.905  67.295  1.00  0.00    -0.089 C  
HETATM   26  C   UNL     1      -6.946   9.616  66.131  1.00  0.00    -0.093 C  
HETATM   27  C   UNL     1      -6.314   8.340  65.554  1.00  0.00    -0.049 C  
HETATM   28  C   UNL     1      -7.171   7.319  65.746  1.00  0.00    -0.070 C  
ENDBRANCH  14  22
ENDBRANCH   2   7
TORSDOF 2
ENDMDL
MODEL       86
REMARK 921   NORMALIZED FREE ENERGY PREDICTED BY IDOCK:   -4.82 KCAL/MOL
REMARK 922        TOTAL FREE ENERGY PREDICTED BY IDOCK:   -5.45 KCAL/MOL
REMARK 923 INTER-LIGAND FREE ENERGY PREDICTED BY IDOCK:   -5.12 KCAL/MOL
REMARK 924 INTRA-LIGAND FREE ENERGY PREDICTED BY IDOCK:   -0.34 KCAL/MOL
REMARK 927      BINDING AFFINITY PREDICTED BY RF-SCORE:    0.00 PKD
ROOT
HETATM    1  N   UNL     1      -9.653  15.199  67.223  1.00  0.00    -0.208 N  
HETATM    2  S   UNL     1     -10.830  14.698  66.130  1.00  0.00    -0.329 S  
HETATM    3  H1  UNL     1      -8.775  15.126  66.710  1.00  0.00     0.000 HD 
HETATM    4  H2  UNL     1      -9.789  15.509  68.185  1.00  0.00     0.000 HD 
HETATM    5  O   UNL     1     -12.074  14.802  66.857  1.00  0.00    -0.295 OA 
HETATM    6  O   UNL     1     -10.601  15.412  64.899  1.00  0.00    -0.416 OA 
ENDROOT
BRANCH   2   7
HETATM    7  C   UNL     1     -10.453  12.992  65.892  1.00  0.00    -0.281 A  
HETATM    8  C   UNL     1     -10.997  12.286  64.817  1.00  0.00    -0.303 A  
HETATM    9  C   UNL     1     -10.653  10.946  64.634  1.00  0.00    -0.332 A  
HETATM   10 CL   UNL     1     -12.101  12.957  63.666  1.00  0.00    -0.582 Cl 
HETATM   11  C   UNL     1      -9.762  10.290  65.495  1.00  0.00    -0.265 A  
HETATM   12  N   UNL     1      -9.493   8.959  65.256  1.00  0.00    -0.447 NA 
HETATM   13  H   UNL     1      -9.951   8.522  64.456  1.00  0.00     0.000 HD 
HETATM   14  C   UNL     1      -8.610   8.135  66.055  1.00  0.00    -0.147 C  
HETATM   15  C   UNL     1      -9.613  12.334  66.808  1.00  0.00    -0.220 A  
HETATM   16  N   UNL     1      -8.777   8.468  67.458  1.00  0.00    -0.135 N  
HETATM   17  O   UNL     1      -6.935  10.213  67.351  1.00  0.00    -0.081 OA 
HETATM   18  S   UNL     1      -8.319  10.081  67.752  1.00  0.00    -0.114 S  
HETATM   19  H   UNL     1      -9.121   7.824  68.171  1.00  0.00     0.000 HD 
HETATM   20  C   UNL     1      -9.300  10.983  66.604  1.00  0.00    -0.177 A  
HETATM   21  O   UNL     1      -8.758  10.403  69.092  1.00  0.00    -0.154 OA 
BRANCH  14  22
HETATM   22  C   UNL     1      -8.828   6.611  65.747  1.00  0.00    -0.093 C  
HETATM   23  C   UNL     1      -8.425   5.803  67.023  1.00  0.00    -0.107 C  
HETATM   24  C   UNL     1      -7.141   5.066  66.566  1.00  0.00    -0.069 C  
HETATM   25  C   UNL     1      -6.591   5.810  65.345  1.00  0.00    -0.043 C  
HETATM   26  C   UNL     1      -7.958   5.888  64.665  1.00  0.00    -0.123 C  
HETATM   27  C   UNL     1      -8.201   4.371  64.683  1.00  0.00    -0.106 C  
HETATM   28  C   UNL     1      -7.664   3.871  65.812  1.00  0.00    -0.089 C  
ENDBRANCH  14  22
ENDBRANCH   2   7
TORSDOF 2
ENDMDL
MODEL       87
REMARK 921   NORMALIZED FREE ENERGY PREDICTED BY IDOCK:   -4.77 KCAL/MOL
REMARK 922        TOTAL FREE ENERGY PREDICTED BY IDOCK:   -5.40 KCAL/MOL
REMARK 923 INTER-LIGAND FREE ENERGY PREDICTED BY IDOCK:   -5.21 KCAL/MOL
REMARK 924 INTRA-LIGAND FREE ENERGY PREDICTED BY IDOCK:   -0.18 KCAL/MOL
REMARK 927      BINDING AFFINITY PREDICTED BY RF-SCORE:    0.00 PKD
ROOT
HETATM    1  N   UNL     1     -12.552  14.412  66.770  1.00  0.00    -0.448 N  
HETATM    2  S   UNL     1     -10.872  14.399  66.833  1.00  0.00    -0.307 S  
HETATM    3  H1  UNL     1     -12.849  14.348  67.743  1.00  0.00     0.000 HD 
HETATM    4  H2  UNL     1     -13.144  14.471  65.941  1.00  0.00     0.000 HD 
HETATM    5  O   UNL     1     -10.451  14.490  65.454  1.00  0.00    -0.330 OA 
HETATM    6  O   UNL     1     -10.475  15.373  67.819  1.00  0.00    -0.256 OA 
ENDROOT
BRANCH   2   7
HETATM    7  C   UNL     1     -10.506  12.782  67.433  1.00  0.00    -0.228 A  
HETATM    8  C   UNL     1     -10.985  12.357  68.674  1.00  0.00    -0.247 A  
HETATM    9  C   UNL     1     -10.709  11.059  69.105  1.00  0.00    -0.274 A  
HETATM   10 CL   UNL     1     -11.914  13.342  69.752  1.00  0.00    -0.390 Cl 
HETATM   11  C   UNL     1      -9.972  10.162  68.320  1.00  0.00    -0.148 A  
HETATM   12  N   UNL     1      -9.725   8.906  68.831  1.00  0.00    -0.168 NA 
HETATM   13  H   UNL     1     -10.101   8.690  69.754  1.00  0.00     0.000 HD 
HETATM   14  C   UNL     1      -8.973   7.869  68.157  1.00  0.00    -0.131 C  
HETATM   15  C   UNL     1      -9.705  11.922  66.659  1.00  0.00    -0.220 A  
HETATM   16  N   UNL     1      -7.843   8.465  67.465  1.00  0.00    -0.098 N  
HETATM   17  O   UNL     1      -9.197   8.766  65.337  1.00  0.00    -0.183 OA 
HETATM   18  S   UNL     1      -8.376   9.533  66.251  1.00  0.00    -0.116 S  
HETATM   19  H   UNL     1      -6.864   8.270  67.676  1.00  0.00     0.000 HD 
HETATM   20  C   UNL     1      -9.434  10.630  67.131  1.00  0.00    -0.156 A  
HETATM   21  O   UNL     1      -7.216  10.266  65.800  1.00  0.00    -0.121 OA 
BRANCH  14  22
HETATM   22  C   UNL     1      -8.559   6.730  69.156  1.00  0.00    -0.131 C  
HETATM   23  C   UNL     1      -8.594   5.375  68.377  1.00  0.00    -0.095 C  
HETATM   24  C   UNL     1      -9.796   4.643  69.025  1.00  0.00    -0.224 C  
HETATM   25  C   UNL     1     -10.666   5.701  69.711  1.00  0.00    -0.401 C  
HETATM   26  C   UNL     1      -9.471   6.380  70.380  1.00  0.00    -0.172 C  
HETATM   27  C   UNL     1      -8.978   5.110  71.090  1.00  0.00    -0.162 C  
HETATM   28  C   UNL     1      -9.220   4.056  70.288  1.00  0.00    -0.210 C  
ENDBRANCH  14  22
ENDBRANCH   2   7
TORSDOF 2
ENDMDL
MODEL       88
REMARK 921   NORMALIZED FREE ENERGY PREDICTED BY IDOCK:   -4.76 KCAL/MOL
REMARK 922        TOTAL FREE ENERGY PREDICTED BY IDOCK:   -5.38 KCAL/MOL
REMARK 923 INTER-LIGAND FREE ENERGY PREDICTED BY IDOCK:   -5.33 KCAL/MOL
REMARK 924 INTRA-LIGAND FREE ENERGY PREDICTED BY IDOCK:   -0.05 KCAL/MOL
REMARK 927      BINDING AFFINITY PREDICTED BY RF-SCORE:    0.00 PKD
ROOT
HETATM    1  N   UNL     1     -12.821   6.575  72.229  1.00  0.00    -0.544 N  
HETATM    2  S   UNL     1     -12.175   8.118  72.397  1.00  0.00    -0.274 S  
HETATM    3  H1  UNL     1     -12.012   5.967  72.103  1.00  0.00     0.000 HD 
HETATM    4  H2  UNL     1     -13.805   6.306  72.250  1.00  0.00     0.000 HD 
HETATM    5  O   UNL     1     -13.322   8.979  72.576  1.00  0.00    -0.453 OA 
HETATM    6  O   UNL     1     -11.121   8.035  73.377  1.00  0.00    -0.196 OA 
ENDROOT
BRANCH   2   7
HETATM    7  C   UNL     1     -11.472   8.432  70.811  1.00  0.00    -0.255 A  
HETATM    8  C   UNL     1     -11.487   9.718  70.267  1.00  0.00    -0.255 A  
HETATM    9  C   UNL     1     -10.892   9.943  69.025  1.00  0.00    -0.242 A  
HETATM   10 CL   UNL     1     -12.214  11.092  71.028  1.00  0.00    -0.458 Cl 
HETATM   11  C   UNL     1     -10.264   8.913  68.312  1.00  0.00    -0.201 A  
HETATM   12  N   UNL     1      -9.719   9.215  67.082  1.00  0.00    -0.170 NA 
HETATM   13  H   UNL     1      -9.794  10.179  66.758  1.00  0.00     0.000 HD 
HETATM   14  C   UNL     1      -9.049   8.268  66.216  1.00  0.00    -0.188 C  
HETATM   15  C   UNL     1     -10.909   7.369  70.081  1.00  0.00    -0.270 A  
HETATM   16  N   UNL     1      -9.746   6.994  66.264  1.00  0.00    -0.404 N  
HETATM   17  O   UNL     1      -8.286   6.172  68.172  1.00  0.00    -0.113 OA 
HETATM   18  S   UNL     1      -9.683   6.333  67.831  1.00  0.00    -0.125 S  
HETATM   19  H   UNL     1     -10.208   6.555  65.467  1.00  0.00     0.000 HD 
HETATM   20  C   UNL     1     -10.333   7.628  68.829  1.00  0.00    -0.204 A  
HETATM   21  O   UNL     1     -10.605   5.221  67.853  1.00  0.00    -0.135 OA 
BRANCH  14  22
HETATM   22  C   UNL     1      -8.900   8.841  64.761  1.00  0.00    -0.089 C  
HETATM   23  C   UNL     1      -7.816   7.991  64.021  1.00  0.00    -0.145 C  
HETATM   24  C   UNL     1      -6.649   8.997  63.862  1.00  0.00    -0.088 C  
HETATM   25  C   UNL     1      -6.860  10.118  64.885  1.00  0.00    -0.129 C  
HETATM   26  C   UNL     1      -8.339  10.284  64.531  1.00  0.00    -0.168 C  
HETATM   27  C   UNL     1      -8.088  10.548  63.039  1.00  0.00    -0.118 C  
HETATM   28  C   UNL     1      -7.035   9.804  62.649  1.00  0.00    -0.110 C  
ENDBRANCH  14  22
ENDBRANCH   2   7
TORSDOF 2
ENDMDL
MODEL       89
REMARK 921   NORMALIZED FREE ENERGY PREDICTED BY IDOCK:   -4.73 KCAL/MOL
REMARK 922        TOTAL FREE ENERGY PREDICTED BY IDOCK:   -5.35 KCAL/MOL
REMARK 923 INTER-LIGAND FREE ENERGY PREDICTED BY IDOCK:   -5.44 KCAL/MOL
REMARK 924 INTRA-LIGAND FREE ENERGY PREDICTED BY IDOCK:    0.08 KCAL/MOL
REMARK 927      BINDING AFFINITY PREDICTED BY RF-SCORE:    0.00 PKD
ROOT
HETATM    1  N   UNL     1      -7.508  18.474  68.110  1.00  0.00    -0.260 N  
HETATM    2  S   UNL     1      -8.847  18.443  67.094  1.00  0.00    -0.269 S  
HETATM    3  H1  UNL     1      -6.732  18.162  67.527  1.00  0.00     0.000 HD 
HETATM    4  H2  UNL     1      -7.479  18.746  69.093  1.00  0.00     0.000 HD 
HETATM    5  O   UNL     1      -9.947  18.886  67.920  1.00  0.00    -0.320 OA 
HETATM    6  O   UNL     1      -8.478  19.130  65.881  1.00  0.00    -0.453 OA 
ENDROOT
BRANCH   2   7
HETATM    7  C   UNL     1      -9.051  16.726  66.752  1.00  0.00    -0.241 A  
HETATM    8  C   UNL     1     -10.027  16.289  65.853  1.00  0.00    -0.339 A  
HETATM    9  C   UNL     1     -10.140  14.926  65.576  1.00  0.00    -0.400 A  
HETATM   10 CL   UNL     1     -11.142  17.332  65.039  1.00  0.00     0.011 Cl 
HETATM   11  C   UNL     1      -9.290  13.981  66.166  1.00  0.00    -0.115 A  
HETATM   12  N   UNL     1      -9.484  12.652  65.855  1.00  0.00    -0.436 NA 
HETATM   13  H   UNL     1     -10.234  12.426  65.201  1.00  0.00     0.000 HD 
HETATM   14  C   UNL     1      -8.705  11.553  66.386  1.00  0.00    -0.179 C  
HETATM   15  C   UNL     1      -8.233  15.788  67.409  1.00  0.00    -0.196 A  
HETATM   16  N   UNL     1      -8.411  11.802  67.786  1.00  0.00    -0.140 N  
HETATM   17  O   UNL     1      -6.233  12.973  67.209  1.00  0.00    -0.279 OA 
HETATM   18  S   UNL     1      -7.450  13.195  67.961  1.00  0.00    -0.151 S  
HETATM   19  H   UNL     1      -8.736  11.220  68.559  1.00  0.00     0.000 HD 
HETATM   20  C   UNL     1      -8.385  14.425  67.119  1.00  0.00    -0.191 A  
HETATM   21  O   UNL     1      -7.427  13.513  69.371  1.00  0.00     0.128 OA 
BRANCH  14  22
HETATM   22  C   UNL     1      -9.423  10.179  66.135  1.00  0.00    -0.238 C  
HETATM   23  C   UNL     1     -10.659  10.105  67.090  1.00  0.00    -0.308 C  
HETATM   24  C   UNL     1     -10.250   8.994  68.088  1.00  0.00    -0.247 C  
HETATM   25  C   UNL     1      -8.727   8.848  68.020  1.00  0.00    -0.133 C  
HETATM   26  C   UNL     1      -8.707   8.833  66.491  1.00  0.00    -0.137 C  
HETATM   27  C   UNL     1      -9.669   7.643  66.359  1.00  0.00    -0.197 C  
HETATM   28  C   UNL     1     -10.572   7.717  67.354  1.00  0.00    -0.345 C  
ENDBRANCH  14  22
ENDBRANCH   2   7
TORSDOF 2
ENDMDL
MODEL       90
REMARK 921   NORMALIZED FREE ENERGY PREDICTED BY IDOCK:   -4.72 KCAL/MOL
REMARK 922        TOTAL FREE ENERGY PREDICTED BY IDOCK:   -5.34 KCAL/MOL
REMARK 923 INTER-LIGAND FREE ENERGY PREDICTED BY IDOCK:   -5.75 KCAL/MOL
REMARK 924 INTRA-LIGAND FREE ENERGY PREDICTED BY IDOCK:    0.41 KCAL/MOL
REMARK 927      BINDING AFFINITY PREDICTED BY RF-SCORE:    0.00 PKD
ROOT
HETATM    1  N   UNL     1     -12.444  14.156  63.198  1.00  0.00    -1.037 N  
HETATM    2  S   UNL     1     -11.975  14.354  64.801  1.00  0.00    -0.464 S  
HETATM    3  H1  UNL     1     -13.040  13.329  63.203  1.00  0.00     0.000 HD 
HETATM    4  H2  UNL     1     -12.190  14.736  62.399  1.00  0.00     0.000 HD 
HETATM    5  O   UNL     1     -11.131  15.527  64.795  1.00  0.00    -0.426 OA 
HETATM    6  O   UNL     1     -13.167  14.275  65.608  1.00  0.00    -0.558 OA 
ENDROOT
BRANCH   2   7
HETATM    7  C   UNL     1     -10.973  12.936  65.103  1.00  0.00    -0.289 A  
HETATM    8  C   UNL     1     -11.228  11.730  64.446  1.00  0.00    -0.316 A  
HETATM    9  C   UNL     1     -10.396  10.635  64.679  1.00  0.00    -0.353 A  
HETATM   10 CL   UNL     1     -12.536  11.478  63.341  1.00  0.00    -0.320 Cl 
HETATM   11  C   UNL     1      -9.298  10.714  65.546  1.00  0.00    -0.205 A  
HETATM   12  N   UNL     1      -8.540   9.579  65.737  1.00  0.00    -0.133 NA 
HETATM   13  H   UNL     1      -8.813   8.739  65.227  1.00  0.00     0.000 HD 
HETATM   14  C   UNL     1      -7.385   9.488  66.606  1.00  0.00    -0.090 C  
HETATM   15  C   UNL     1      -9.919  13.018  66.031  1.00  0.00    -0.277 A  
HETATM   16  N   UNL     1      -7.631  10.253  67.817  1.00  0.00    -0.089 N  
HETATM   17  O   UNL     1      -6.614  12.347  66.803  1.00  0.00    -0.045 OA 
HETATM   18  S   UNL     1      -7.828  11.904  67.456  1.00  0.00    -0.162 S  
HETATM   19  H   UNL     1      -7.679   9.854  68.755  1.00  0.00     0.000 HD 
HETATM   20  C   UNL     1      -9.112  11.893  66.253  1.00  0.00    -0.188 A  
HETATM   21  O   UNL     1      -8.321  12.539  68.657  1.00  0.00    -0.097 OA 
BRANCH  14  22
HETATM   22  C   UNL     1      -7.003   7.991  66.883  1.00  0.00    -0.074 C  
HETATM   23  C   UNL     1      -7.744   7.106  65.828  1.00  0.00    -0.099 C  
HETATM   24  C   UNL     1      -8.780   6.345  66.692  1.00  0.00    -0.127 C  
HETATM   25  C   UNL     1      -8.957   7.127  67.997  1.00  0.00    -0.127 C  
HETATM   26  C   UNL     1      -7.451   7.290  68.209  1.00  0.00    -0.102 C  
HETATM   27  C   UNL     1      -7.149   5.784  68.168  1.00  0.00    -0.074 C  
HETATM   28  C   UNL     1      -7.987   5.209  67.285  1.00  0.00    -0.100 C  
ENDBRANCH  14  22
ENDBRANCH   2   7
TORSDOF 2
ENDMDL
MODEL       91
REMARK 921   NORMALIZED FREE ENERGY PREDICTED BY IDOCK:   -4.72 KCAL/MOL
REMARK 922        TOTAL FREE ENERGY PREDICTED BY IDOCK:   -5.34 KCAL/MOL
REMARK 923 INTER-LIGAND FREE ENERGY PREDICTED BY IDOCK:   -5.29 KCAL/MOL
REMARK 924 INTRA-LIGAND FREE ENERGY PREDICTED BY IDOCK:   -0.05 KCAL/MOL
REMARK 927      BINDING AFFINITY PREDICTED BY RF-SCORE:    0.00 PKD
ROOT
HETATM    1  N   UNL     1      -7.905  18.085  68.058  1.00  0.00    -0.249 N  
HETATM    2  S   UNL     1      -8.630  17.269  66.778  1.00  0.00    -0.264 S  
HETATM    3  H1  UNL     1      -7.054  17.559  68.253  1.00  0.00     0.000 HD 
HETATM    4  H2  UNL     1      -8.242  18.923  68.533  1.00  0.00     0.000 HD 
HETATM    5  O   UNL     1      -9.836  18.016  66.502  1.00  0.00    -0.320 OA 
HETATM    6  O   UNL     1      -7.614  17.059  65.777  1.00  0.00    -0.306 OA 
ENDROOT
BRANCH   2   7
HETATM    7  C   UNL     1      -9.074  15.720  67.492  1.00  0.00    -0.195 A  
HETATM    8  C   UNL     1     -10.222  15.600  68.278  1.00  0.00    -0.223 A  
HETATM    9  C   UNL     1     -10.567  14.353  68.800  1.00  0.00    -0.256 A  
HETATM   10 CL   UNL     1     -11.277  16.914  68.672  1.00  0.00    -0.194 Cl 
HETATM   11  C   UNL     1      -9.797  13.209  68.546  1.00  0.00    -0.153 A  
HETATM   12  N   UNL     1     -10.195  12.020  69.118  1.00  0.00    -0.414 NA 
HETATM   13  H   UNL     1     -11.039  12.033  69.692  1.00  0.00     0.000 HD 
HETATM   14  C   UNL     1      -9.508  10.755  68.967  1.00  0.00    -0.166 C  
HETATM   15  C   UNL     1      -8.248  14.600  67.282  1.00  0.00    -0.235 A  
HETATM   16  N   UNL     1      -8.073  10.979  68.994  1.00  0.00    -0.262 N  
HETATM   17  O   UNL     1      -7.982  11.248  66.470  1.00  0.00    -0.157 OA 
HETATM   18  S   UNL     1      -7.590  11.944  67.678  1.00  0.00    -0.147 S  
HETATM   19  H   UNL     1      -7.441  10.609  69.704  1.00  0.00     0.000 HD 
HETATM   20  C   UNL     1      -8.616  13.365  67.835  1.00  0.00    -0.184 A  
HETATM   21  O   UNL     1      -6.219  12.331  67.922  1.00  0.00    -0.069 OA 
BRANCH  14  22
HETATM   22  C   UNL     1      -9.995   9.716  70.039  1.00  0.00    -0.288 C  
HETATM   23  C   UNL     1      -8.736   9.200  70.811  1.00  0.00    -0.285 C  
HETATM   24  C   UNL     1      -8.635   7.726  70.346  1.00  0.00    -0.137 C  
HETATM   25  C   UNL     1      -9.429   7.597  69.042  1.00  0.00    -0.150 C  
HETATM   26  C   UNL     1     -10.634   8.358  69.595  1.00  0.00    -0.219 C  
HETATM   27  C   UNL     1     -10.839   7.424  70.797  1.00  0.00    -0.257 C  
HETATM   28  C   UNL     1      -9.631   7.006  71.219  1.00  0.00    -0.164 C  
ENDBRANCH  14  22
ENDBRANCH   2   7
TORSDOF 2
ENDMDL
MODEL       92
REMARK 921   NORMALIZED FREE ENERGY PREDICTED BY IDOCK:   -4.70 KCAL/MOL
REMARK 922        TOTAL FREE ENERGY PREDICTED BY IDOCK:   -5.32 KCAL/MOL
REMARK 923 INTER-LIGAND FREE ENERGY PREDICTED BY IDOCK:   -5.18 KCAL/MOL
REMARK 924 INTRA-LIGAND FREE ENERGY PREDICTED BY IDOCK:   -0.14 KCAL/MOL
REMARK 927      BINDING AFFINITY PREDICTED BY RF-SCORE:    0.00 PKD
ROOT
HETATM    1  N   UNL     1     -12.505  14.485  68.490  1.00  0.00    -0.548 N  
HETATM    2  S   UNL     1     -10.832  14.381  68.353  1.00  0.00    -0.256 S  
HETATM    3  H1  UNL     1     -12.721  14.027  69.375  1.00  0.00     0.000 HD 
HETATM    4  H2  UNL     1     -13.158  14.912  67.833  1.00  0.00     0.000 HD 
HETATM    5  O   UNL     1     -10.525  15.031  67.099  1.00  0.00    -0.268 OA 
HETATM    6  O   UNL     1     -10.272  14.831  69.603  1.00  0.00    -0.149 OA 
ENDROOT
BRANCH   2   7
HETATM    7  C   UNL     1     -10.551  12.650  68.178  1.00  0.00    -0.228 A  
HETATM    8  C   UNL     1     -11.115  11.742  69.077  1.00  0.00    -0.246 A  
HETATM    9  C   UNL     1     -10.904  10.375  68.892  1.00  0.00    -0.273 A  
HETATM   10 CL   UNL     1     -12.076  12.191  70.445  1.00  0.00    -0.435 Cl 
HETATM   11  C   UNL     1     -10.150   9.884  67.818  1.00  0.00    -0.180 A  
HETATM   12  N   UNL     1      -9.971   8.521  67.721  1.00  0.00    -0.179 NA 
HETATM   13  H   UNL     1     -10.408   7.937  68.435  1.00  0.00     0.000 HD 
HETATM   14  C   UNL     1      -9.212   7.855  66.684  1.00  0.00    -0.177 C  
HETATM   15  C   UNL     1      -9.732  12.183  67.133  1.00  0.00    -0.203 A  
HETATM   16  N   UNL     1      -8.026   8.636  66.378  1.00  0.00    -0.098 N  
HETATM   17  O   UNL     1      -9.242   9.925  64.559  1.00  0.00    -0.230 OA 
HETATM   18  S   UNL     1      -8.454  10.159  65.751  1.00  0.00    -0.153 S  
HETATM   19  H   UNL     1      -7.068   8.315  66.518  1.00  0.00     0.000 HD 
HETATM   20  C   UNL     1      -9.528  10.804  66.986  1.00  0.00    -0.164 A  
HETATM   21  O   UNL     1      -7.248  10.954  65.722  1.00  0.00    -0.096 OA 
BRANCH  14  22
HETATM   22  C   UNL     1      -8.893   6.370  67.083  1.00  0.00    -0.113 C  
HETATM   23  C   UNL     1      -8.358   5.637  65.810  1.00  0.00    -0.132 C  
HETATM   24  C   UNL     1      -9.501   4.643  65.487  1.00  0.00    -0.178 C  
HETATM   25  C   UNL     1     -10.767   5.149  66.185  1.00  0.00    -0.247 C  
HETATM   26  C   UNL     1     -10.044   5.399  67.510  1.00  0.00    -0.220 C  
HETATM   27  C   UNL     1      -9.528   3.958  67.651  1.00  0.00    -0.233 C  
HETATM   28  C   UNL     1      -9.246   3.488  66.421  1.00  0.00    -0.179 C  
ENDBRANCH  14  22
ENDBRANCH   2   7
TORSDOF 2
ENDMDL
MODEL       93
REMARK 921   NORMALIZED FREE ENERGY PREDICTED BY IDOCK:   -4.65 KCAL/MOL
REMARK 922        TOTAL FREE ENERGY PREDICTED BY IDOCK:   -5.26 KCAL/MOL
REMARK 923 INTER-LIGAND FREE ENERGY PREDICTED BY IDOCK:   -5.43 KCAL/MOL
REMARK 924 INTRA-LIGAND FREE ENERGY PREDICTED BY IDOCK:    0.17 KCAL/MOL
REMARK 927      BINDING AFFINITY PREDICTED BY RF-SCORE:    0.00 PKD
ROOT
HETATM    1  N   UNL     1     -12.286  14.077  63.083  1.00  0.00    -1.094 N  
HETATM    2  S   UNL     1     -12.101  14.697  64.635  1.00  0.00    -0.416 S  
HETATM    3  H1  UNL     1     -12.817  13.215  63.209  1.00  0.00     0.000 HD 
HETATM    4  H2  UNL     1     -11.944  14.475  62.208  1.00  0.00     0.000 HD 
HETATM    5  O   UNL     1     -11.349  15.918  64.455  1.00  0.00    -0.444 OA 
HETATM    6  O   UNL     1     -13.401  14.684  65.257  1.00  0.00    -0.331 OA 
ENDROOT
BRANCH   2   7
HETATM    7  C   UNL     1     -11.067  13.505  65.421  1.00  0.00    -0.293 A  
HETATM    8  C   UNL     1     -11.282  12.138  65.230  1.00  0.00    -0.332 A  
HETATM    9  C   UNL     1     -10.425  11.220  65.837  1.00  0.00    -0.314 A  
HETATM   10 CL   UNL     1     -12.567  11.475  64.279  1.00  0.00     0.100 Cl 
HETATM   11  C   UNL     1      -9.342  11.631  66.626  1.00  0.00    -0.194 A  
HETATM   12  N   UNL     1      -8.558  10.659  67.208  1.00  0.00    -0.126 NA 
HETATM   13  H   UNL     1      -8.802   9.685  67.025  1.00  0.00     0.000 HD 
HETATM   14  C   UNL     1      -7.414  10.913  68.058  1.00  0.00    -0.090 C  
HETATM   15  C   UNL     1     -10.029  13.939  66.266  1.00  0.00    -0.315 A  
HETATM   16  N   UNL     1      -7.697  12.047  68.921  1.00  0.00    -0.306 N  
HETATM   17  O   UNL     1      -6.720  13.679  67.239  1.00  0.00    -0.222 OA 
HETATM   18  S   UNL     1      -7.931  13.459  68.001  1.00  0.00    -0.163 S  
HETATM   19  H   UNL     1      -7.749  12.003  69.939  1.00  0.00     0.000 HD 
HETATM   20  C   UNL     1      -9.197  12.988  66.873  1.00  0.00    -0.236 A  
HETATM   21  O   UNL     1      -8.458  14.462  68.899  1.00  0.00    -0.145 OA 
BRANCH  14  22
HETATM   22  C   UNL     1      -6.998   9.620  68.847  1.00  0.00    -0.059 C  
HETATM   23  C   UNL     1      -8.059   8.512  68.542  1.00  0.00    -0.122 C  
HETATM   24  C   UNL     1      -8.779   8.351  69.904  1.00  0.00    -0.136 C  
HETATM   25  C   UNL     1      -8.509   9.616  70.724  1.00  0.00     0.069 C  
HETATM   26  C   UNL     1      -7.012   9.607  70.412  1.00  0.00    -0.128 C  
HETATM   27  C   UNL     1      -6.774   8.190  70.955  1.00  0.00    -0.038 C  
HETATM   28  C   UNL     1      -7.864   7.446  70.688  1.00  0.00    -0.097 C  
ENDBRANCH  14  22
ENDBRANCH   2   7
TORSDOF 2
ENDMDL
MODEL       94
REMARK 921   NORMALIZED FREE ENERGY PREDICTED BY IDOCK:   -4.63 KCAL/MOL
REMARK 922        TOTAL FREE ENERGY PREDICTED BY IDOCK:   -5.24 KCAL/MOL
REMARK 923 INTER-LIGAND FREE ENERGY PREDICTED BY IDOCK:   -4.86 KCAL/MOL
REMARK 924 INTRA-LIGAND FREE ENERGY PREDICTED BY IDOCK:   -0.39 KCAL/MOL
REMARK 927      BINDING AFFINITY PREDICTED BY RF-SCORE:    0.00 PKD
ROOT
HETATM    1  N   UNL     1     -10.911   8.781  67.729  1.00  0.00    -0.491 N  
HETATM    2  S   UNL     1      -9.230   8.741  67.677  1.00  0.00    -0.134 S  
HETATM    3  H1  UNL     1     -11.185   9.260  66.872  1.00  0.00     0.000 HD 
HETATM    4  H2  UNL     1     -11.520   8.408  68.457  1.00  0.00     0.000 HD 
HETATM    5  O   UNL     1      -8.841   8.062  68.892  1.00  0.00    -0.140 OA 
HETATM    6  O   UNL     1      -8.855   8.251  66.374  1.00  0.00    -0.135 OA 
ENDROOT
BRANCH   2   7
HETATM    7  C   UNL     1      -8.785  10.441  67.811  1.00  0.00    -0.122 A  
HETATM    8  C   UNL     1      -7.468  10.852  67.588  1.00  0.00    -0.095 A  
HETATM    9  C   UNL     1      -7.154  12.209  67.666  1.00  0.00    -0.124 A  
HETATM   10 CL   UNL     1      -6.159   9.782  67.221  1.00  0.00    -0.055 Cl 
HETATM   11  C   UNL     1      -8.127  13.177  67.949  1.00  0.00    -0.159 A  
HETATM   12  N   UNL     1      -7.727  14.494  68.030  1.00  0.00    -0.122 NA 
HETATM   13  H   UNL     1      -6.741  14.697  67.870  1.00  0.00     0.000 HD 
HETATM   14  C   UNL     1      -8.601  15.610  68.326  1.00  0.00    -0.158 C  
HETATM   15  C   UNL     1      -9.764  11.387  68.165  1.00  0.00    -0.194 A  
HETATM   16  N   UNL     1      -9.563  15.214  69.340  1.00  0.00    -0.343 N  
HETATM   17  O   UNL     1     -11.235  14.463  67.582  1.00  0.00    -0.289 OA 
HETATM   18  S   UNL     1     -10.564  13.965  68.764  1.00  0.00    -0.222 S  
HETATM   19  H   UNL     1      -9.629  15.629  70.269  1.00  0.00     0.000 HD 
HETATM   20  C   UNL     1      -9.409  12.741  68.250  1.00  0.00    -0.194 A  
HETATM   21  O   UNL     1     -11.300  13.461  69.902  1.00  0.00    -0.154 OA 
BRANCH  14  22
HETATM   22  C   UNL     1      -7.774  16.886  68.716  1.00  0.00    -0.247 C  
HETATM   23  C   UNL     1      -8.684  18.136  68.480  1.00  0.00    -0.309 C  
HETATM   24  C   UNL     1      -7.998  18.830  67.276  1.00  0.00    -0.251 C  
HETATM   25  C   UNL     1      -7.120  17.787  66.579  1.00  0.00    -0.275 C  
HETATM   26  C   UNL     1      -6.508  17.294  67.891  1.00  0.00    -0.161 C  
HETATM   27  C   UNL     1      -5.989  18.675  68.321  1.00  0.00    -0.203 C  
HETATM   28  C   UNL     1      -6.869  19.605  67.906  1.00  0.00    -0.279 C  
ENDBRANCH  14  22
ENDBRANCH   2   7
TORSDOF 2
ENDMDL
MODEL       95
REMARK 921   NORMALIZED FREE ENERGY PREDICTED BY IDOCK:   -4.60 KCAL/MOL
REMARK 922        TOTAL FREE ENERGY PREDICTED BY IDOCK:   -5.21 KCAL/MOL
REMARK 923 INTER-LIGAND FREE ENERGY PREDICTED BY IDOCK:   -5.55 KCAL/MOL
REMARK 924 INTRA-LIGAND FREE ENERGY PREDICTED BY IDOCK:    0.34 KCAL/MOL
REMARK 927      BINDING AFFINITY PREDICTED BY RF-SCORE:    0.00 PKD
ROOT
HETATM    1  N   UNL     1     -13.258   6.935  71.872  1.00  0.00    -0.523 N  
HETATM    2  S   UNL     1     -12.558   8.362  72.421  1.00  0.00    -0.256 S  
HETATM    3  H1  UNL     1     -12.473   6.359  71.571  1.00  0.00     0.000 HD 
HETATM    4  H2  UNL     1     -14.250   6.698  71.846  1.00  0.00     0.000 HD 
HETATM    5  O   UNL     1     -13.671   9.178  72.848  1.00  0.00    -0.361 OA 
HETATM    6  O   UNL     1     -11.491   7.995  73.318  1.00  0.00    -0.254 OA 
ENDROOT
BRANCH   2   7
HETATM    7  C   UNL     1     -11.871   9.061  70.956  1.00  0.00    -0.285 A  
HETATM    8  C   UNL     1     -12.089  10.403  70.637  1.00  0.00    -0.348 A  
HETATM    9  C   UNL     1     -11.503  10.937  69.488  1.00  0.00    -0.372 A  
HETATM   10 CL   UNL     1     -13.061  11.484  71.575  1.00  0.00    -0.498 Cl 
HETATM   11  C   UNL     1     -10.688  10.165  68.649  1.00  0.00    -0.222 A  
HETATM   12  N   UNL     1     -10.167  10.763  67.523  1.00  0.00    -0.188 NA 
HETATM   13  H   UNL     1     -10.395  11.745  67.362  1.00  0.00     0.000 HD 
HETATM   14  C   UNL     1      -9.320  10.106  66.549  1.00  0.00    -0.164 C  
HETATM   15  C   UNL     1     -11.115   8.249  70.091  1.00  0.00    -0.189 A  
HETATM   16  N   UNL     1      -9.791   8.748  66.340  1.00  0.00    -0.270 N  
HETATM   17  O   UNL     1      -8.270   7.849  68.164  1.00  0.00    -0.121 OA 
HETATM   18  S   UNL     1      -9.664   7.840  67.773  1.00  0.00    -0.161 S  
HETATM   19  H   UNL     1     -10.148   8.387  65.455  1.00  0.00     0.000 HD 
HETATM   20  C   UNL     1     -10.554   8.814  68.936  1.00  0.00    -0.155 A  
HETATM   21  O   UNL     1     -10.383   6.606  67.553  1.00  0.00    -0.161 OA 
BRANCH  14  22
HETATM   22  C   UNL     1      -9.228  10.943  65.224  1.00  0.00    -0.236 C  
HETATM   23  C   UNL     1      -9.480  12.443  65.588  1.00  0.00    -0.046 C  
HETATM   24  C   UNL     1     -10.853  12.725  64.929  1.00  0.00    -0.326 C  
HETATM   25  C   UNL     1     -11.538  11.376  64.690  1.00  0.00    -0.014 C  
HETATM   26  C   UNL     1     -10.283  10.744  64.085  1.00  0.00    -0.412 C  
HETATM   27  C   UNL     1     -10.118  11.807  62.987  1.00  0.00    -0.263 C  
HETATM   28  C   UNL     1     -10.509  12.994  63.486  1.00  0.00     0.270 C  
ENDBRANCH  14  22
ENDBRANCH   2   7
TORSDOF 2
ENDMDL
MODEL       96
REMARK 921   NORMALIZED FREE ENERGY PREDICTED BY IDOCK:   -4.59 KCAL/MOL
REMARK 922        TOTAL FREE ENERGY PREDICTED BY IDOCK:   -5.20 KCAL/MOL
REMARK 923 INTER-LIGAND FREE ENERGY PREDICTED BY IDOCK:   -5.42 KCAL/MOL
REMARK 924 INTRA-LIGAND FREE ENERGY PREDICTED BY IDOCK:    0.22 KCAL/MOL
REMARK 927      BINDING AFFINITY PREDICTED BY RF-SCORE:    0.00 PKD
ROOT
HETATM    1  N   UNL     1     -10.847  16.874  69.719  1.00  0.00    -0.368 N  
HETATM    2  S   UNL     1      -9.958  17.166  68.322  1.00  0.00    -0.319 S  
HETATM    3  H1  UNL     1     -10.225  16.326  70.313  1.00  0.00     0.000 HD 
HETATM    4  H2  UNL     1     -11.799  17.178  69.927  1.00  0.00     0.000 HD 
HETATM    5  O   UNL     1     -10.839  17.943  67.481  1.00  0.00    -0.364 OA 
HETATM    6  O   UNL     1      -8.666  17.656  68.734  1.00  0.00    -0.278 OA 
ENDROOT
BRANCH   2   7
HETATM    7  C   UNL     1      -9.775  15.560  67.621  1.00  0.00    -0.212 A  
HETATM    8  C   UNL     1      -8.787  14.687  68.085  1.00  0.00    -0.173 A  
HETATM    9  C   UNL     1      -8.690  13.409  67.535  1.00  0.00    -0.205 A  
HETATM   10 CL   UNL     1      -7.638  15.081  69.318  1.00  0.00    -0.176 Cl 
HETATM   11  C   UNL     1      -9.567  12.969  66.534  1.00  0.00    -0.260 A  
HETATM   12  N   UNL     1      -9.388  11.699  66.028  1.00  0.00    -0.227 NA 
HETATM   13  H   UNL     1      -8.628  11.140  66.417  1.00  0.00     0.000 HD 
HETATM   14  C   UNL     1     -10.195  11.098  64.987  1.00  0.00    -0.296 C  
HETATM   15  C   UNL     1     -10.620  15.163  66.569  1.00  0.00    -0.304 A  
HETATM   16  N   UNL     1     -10.514  12.100  63.985  1.00  0.00    -0.352 N  
HETATM   17  O   UNL     1     -12.660  12.738  65.183  1.00  0.00    -0.530 OA 
HETATM   18  S   UNL     1     -11.456  13.347  64.660  1.00  0.00    -0.365 S  
HETATM   19  H   UNL     1     -10.214  12.062  63.011  1.00  0.00     0.000 HD 
HETATM   20  C   UNL     1     -10.484  13.877  66.028  1.00  0.00    -0.298 A  
HETATM   21  O   UNL     1     -11.504  14.411  63.683  1.00  0.00     0.297 OA 
BRANCH  14  22
HETATM   22  C   UNL     1      -9.494   9.825  64.393  1.00  0.00    -0.233 C  
HETATM   23  C   UNL     1      -7.983   9.880  64.795  1.00  0.00    -0.143 C  
HETATM   24  C   UNL     1      -7.281  10.130  63.437  1.00  0.00    -0.121 C  
HETATM   25  C   UNL     1      -8.327  10.693  62.471  1.00  0.00    -0.242 C  
HETATM   26  C   UNL     1      -9.370   9.639  62.844  1.00  0.00    -0.031 C  
HETATM   27  C   UNL     1      -8.473   8.440  62.501  1.00  0.00    -0.125 C  
HETATM   28  C   UNL     1      -7.203   8.758  62.817  1.00  0.00    -0.097 C  
ENDBRANCH  14  22
ENDBRANCH   2   7
TORSDOF 2
ENDMDL
MODEL       97
REMARK 921   NORMALIZED FREE ENERGY PREDICTED BY IDOCK:   -4.57 KCAL/MOL
REMARK 922        TOTAL FREE ENERGY PREDICTED BY IDOCK:   -5.18 KCAL/MOL
REMARK 923 INTER-LIGAND FREE ENERGY PREDICTED BY IDOCK:   -4.80 KCAL/MOL
REMARK 924 INTRA-LIGAND FREE ENERGY PREDICTED BY IDOCK:   -0.38 KCAL/MOL
REMARK 927      BINDING AFFINITY PREDICTED BY RF-SCORE:    0.00 PKD
ROOT
HETATM    1  N   UNL     1      -6.655   4.574  69.146  1.00  0.00    -0.040 N  
HETATM    2  S   UNL     1      -8.036   4.166  68.277  1.00  0.00    -0.077 S  
HETATM    3  H1  UNL     1      -7.005   4.995  70.007  1.00  0.00     0.000 HD 
HETATM    4  H2  UNL     1      -5.683   4.432  68.873  1.00  0.00     0.000 HD 
HETATM    5  O   UNL     1      -7.540   3.570  67.058  1.00  0.00    -0.077 OA 
HETATM    6  O   UNL     1      -8.911   3.455  69.176  1.00  0.00    -0.083 OA 
ENDROOT
BRANCH   2   7
HETATM    7  C   UNL     1      -8.745   5.734  67.894  1.00  0.00    -0.103 A  
HETATM    8  C   UNL     1      -9.781   5.839  66.963  1.00  0.00    -0.142 A  
HETATM    9  C   UNL     1     -10.347   7.089  66.707  1.00  0.00    -0.291 A  
HETATM   10 CL   UNL     1     -10.432   4.506  66.072  1.00  0.00    -0.290 Cl 
HETATM   11  C   UNL     1      -9.912   8.244  67.370  1.00  0.00    -0.209 A  
HETATM   12  N   UNL     1     -10.509   9.443  67.042  1.00  0.00    -0.248 NA 
HETATM   13  H   UNL     1     -11.246   9.424  66.337  1.00  0.00     0.000 HD 
HETATM   14  C   UNL     1     -10.169  10.725  67.621  1.00  0.00    -0.189 C  
HETATM   15  C   UNL     1      -8.246   6.891  68.519  1.00  0.00    -0.121 A  
HETATM   16  N   UNL     1      -8.731  10.806  67.806  1.00  0.00    -0.129 N  
HETATM   17  O   UNL     1      -8.896   9.866  70.159  1.00  0.00    -0.206 OA 
HETATM   18  S   UNL     1      -8.200   9.627  68.913  1.00  0.00    -0.116 S  
HETATM   19  H   UNL     1      -8.122  11.477  67.337  1.00  0.00     0.000 HD 
HETATM   20  C   UNL     1      -8.827   8.133  68.226  1.00  0.00    -0.133 A  
HETATM   21  O   UNL     1      -6.757   9.603  68.839  1.00  0.00    -0.047 OA 
BRANCH  14  22
HETATM   22  C   UNL     1     -10.753  11.904  66.764  1.00  0.00    -0.282 C  
HETATM   23  C   UNL     1      -9.611  12.951  66.550  1.00  0.00    -0.259 C  
HETATM   24  C   UNL     1     -10.096  14.157  67.393  1.00  0.00    -0.240 C  
HETATM   25  C   UNL     1     -11.126  13.635  68.399  1.00  0.00    -0.289 C  
HETATM   26  C   UNL     1     -11.879  12.824  67.343  1.00  0.00    -0.404 C  
HETATM   27  C   UNL     1     -12.142  14.024  66.420  1.00  0.00    -0.483 C  
HETATM   28  C   UNL     1     -11.082  14.851  66.489  1.00  0.00    -0.341 C  
ENDBRANCH  14  22
ENDBRANCH   2   7
TORSDOF 2
ENDMDL
MODEL       98
REMARK 921   NORMALIZED FREE ENERGY PREDICTED BY IDOCK:   -4.56 KCAL/MOL
REMARK 922        TOTAL FREE ENERGY PREDICTED BY IDOCK:   -5.16 KCAL/MOL
REMARK 923 INTER-LIGAND FREE ENERGY PREDICTED BY IDOCK:   -5.12 KCAL/MOL
REMARK 924 INTRA-LIGAND FREE ENERGY PREDICTED BY IDOCK:   -0.05 KCAL/MOL
REMARK 927      BINDING AFFINITY PREDICTED BY RF-SCORE:    0.00 PKD
ROOT
HETATM    1  N   UNL     1      -8.180   4.968  69.203  1.00  0.00    -0.083 N  
HETATM    2  S   UNL     1      -7.910   5.464  67.619  1.00  0.00    -0.100 S  
HETATM    3  H1  UNL     1      -9.195   4.929  69.293  1.00  0.00     0.000 HD 
HETATM    4  H2  UNL     1      -7.482   4.754  69.916  1.00  0.00     0.000 HD 
HETATM    5  O   UNL     1      -6.471   5.519  67.492  1.00  0.00    -0.047 OA 
HETATM    6  O   UNL     1      -8.721   4.630  66.767  1.00  0.00    -0.111 OA 
ENDROOT
BRANCH   2   7
HETATM    7  C   UNL     1      -8.544   7.108  67.600  1.00  0.00    -0.122 A  
HETATM    8  C   UNL     1      -9.921   7.341  67.646  1.00  0.00    -0.162 A  
HETATM    9  C   UNL     1     -10.392   8.654  67.665  1.00  0.00    -0.317 A  
HETATM   10 CL   UNL     1     -11.122   6.095  67.674  1.00  0.00    -0.391 Cl 
HETATM   11  C   UNL     1      -9.520   9.751  67.653  1.00  0.00    -0.144 A  
HETATM   12  N   UNL     1     -10.068  11.015  67.651  1.00  0.00    -0.179 NA 
HETATM   13  H   UNL     1     -11.085  11.087  67.668  1.00  0.00     0.000 HD 
HETATM   14  C   UNL     1      -9.310  12.249  67.627  1.00  0.00    -0.186 C  
HETATM   15  C   UNL     1      -7.653   8.193  67.516  1.00  0.00    -0.101 A  
HETATM   16  N   UNL     1      -8.164  12.094  66.748  1.00  0.00    -0.341 N  
HETATM   17  O   UNL     1      -6.693  11.312  68.665  1.00  0.00    -0.062 OA 
HETATM   18  S   UNL     1      -7.109  10.898  67.341  1.00  0.00    -0.098 S  
HETATM   19  H   UNL     1      -8.012  12.629  65.893  1.00  0.00     0.000 HD 
HETATM   20  C   UNL     1      -8.162   9.500  67.522  1.00  0.00    -0.121 A  
HETATM   21  O   UNL     1      -6.152  10.627  66.293  1.00  0.00    -0.087 OA 
BRANCH  14  22
HETATM   22  C   UNL     1     -10.226  13.466  67.247  1.00  0.00    -0.241 C  
HETATM   23  C   UNL     1     -11.714  13.015  67.412  1.00  0.00    -0.427 C  
HETATM   24  C   UNL     1     -12.222  12.983  65.949  1.00  0.00    -0.493 C  
HETATM   25  C   UNL     1     -10.997  12.899  65.035  1.00  0.00    -0.324 C  
HETATM   26  C   UNL     1     -10.254  14.009  65.779  1.00  0.00    -0.343 C  
HETATM   27  C   UNL     1     -11.365  15.055  65.597  1.00  0.00    -0.297 C  
HETATM   28  C   UNL     1     -12.553  14.423  65.653  1.00  0.00    -0.337 C  
ENDBRANCH  14  22
ENDBRANCH   2   7
TORSDOF 2
ENDMDL
MODEL       99
REMARK 921   NORMALIZED FREE ENERGY PREDICTED BY IDOCK:   -4.49 KCAL/MOL
REMARK 922        TOTAL FREE ENERGY PREDICTED BY IDOCK:   -5.09 KCAL/MOL
REMARK 923 INTER-LIGAND FREE ENERGY PREDICTED BY IDOCK:   -4.98 KCAL/MOL
REMARK 924 INTRA-LIGAND FREE ENERGY PREDICTED BY IDOCK:   -0.11 KCAL/MOL
REMARK 927      BINDING AFFINITY PREDICTED BY RF-SCORE:    0.00 PKD
ROOT
HETATM    1  N   UNL     1      -8.497   4.144  71.363  1.00  0.00    -0.095 N  
HETATM    2  S   UNL     1      -8.611   3.980  69.693  1.00  0.00    -0.071 S  
HETATM    3  H1  UNL     1      -9.436   4.404  71.663  1.00  0.00     0.000 HD 
HETATM    4  H2  UNL     1      -7.670   4.011  71.946  1.00  0.00     0.000 HD 
HETATM    5  O   UNL     1      -7.280   3.611  69.267  1.00  0.00    -0.048 OA 
HETATM    6  O   UNL     1      -9.758   3.149  69.424  1.00  0.00    -0.093 OA 
ENDROOT
BRANCH   2   7
HETATM    7  C   UNL     1      -8.944   5.624  69.152  1.00  0.00    -0.113 A  
HETATM    8  C   UNL     1      -8.712   5.999  67.826  1.00  0.00    -0.104 A  
HETATM    9  C   UNL     1      -9.019   7.298  67.419  1.00  0.00    -0.122 A  
HETATM   10 CL   UNL     1      -8.049   4.953  66.617  1.00  0.00    -0.107 Cl 
HETATM   11  C   UNL     1      -9.568   8.237  68.302  1.00  0.00    -0.147 A  
HETATM   12  N   UNL     1      -9.821   9.505  67.825  1.00  0.00    -0.154 NA 
HETATM   13  H   UNL     1      -9.602   9.692  66.846  1.00  0.00     0.000 HD 
HETATM   14  C   UNL     1     -10.372  10.592  68.606  1.00  0.00    -0.186 C  
HETATM   15  C   UNL     1      -9.429   6.571  70.072  1.00  0.00    -0.163 A  
HETATM   16  N   UNL     1      -9.806  10.560  69.944  1.00  0.00    -0.413 N  
HETATM   17  O   UNL     1     -11.691   9.086  70.796  1.00  0.00    -0.281 OA 
HETATM   18  S   UNL     1     -10.244   9.125  70.747  1.00  0.00    -0.283 S  
HETATM   19  H   UNL     1      -9.227  11.296  70.347  1.00  0.00     0.000 HD 
HETATM   20  C   UNL     1      -9.711   7.872  69.633  1.00  0.00    -0.173 A  
HETATM   21  O   UNL     1      -9.440   9.054  71.946  1.00  0.00    -0.313 OA 
BRANCH  14  22
HETATM   22  C   UNL     1     -10.170  11.969  67.879  1.00  0.00    -0.203 C  
HETATM   23  C   UNL     1     -11.562  12.680  67.806  1.00  0.00    -0.403 C  
HETATM   24  C   UNL     1     -11.883  12.640  66.291  1.00  0.00    -0.471 C  
HETATM   25  C   UNL     1     -11.017  11.545  65.663  1.00  0.00    -0.296 C  
HETATM   26  C   UNL     1      -9.747  12.016  66.373  1.00  0.00    -0.239 C  
HETATM   27  C   UNL     1      -9.815  13.450  65.824  1.00  0.00    -0.213 C  
HETATM   28  C   UNL     1     -11.110  13.806  65.731  1.00  0.00    -0.290 C  
ENDBRANCH  14  22
ENDBRANCH   2   7
TORSDOF 2
ENDMDL
MODEL      100
REMARK 921   NORMALIZED FREE ENERGY PREDICTED BY IDOCK:   -4.46 KCAL/MOL
REMARK 922        TOTAL FREE ENERGY PREDICTED BY IDOCK:   -5.06 KCAL/MOL
REMARK 923 INTER-LIGAND FREE ENERGY PREDICTED BY IDOCK:   -4.98 KCAL/MOL
REMARK 924 INTRA-LIGAND FREE ENERGY PREDICTED BY IDOCK:   -0.07 KCAL/MOL
REMARK 927      BINDING AFFINITY PREDICTED BY RF-SCORE:    0.00 PKD
ROOT
HETATM    1  N   UNL     1     -11.673  14.671  65.993  1.00  0.00    -0.341 N  
HETATM    2  S   UNL     1     -11.420  13.117  65.402  1.00  0.00    -0.315 S  
HETATM    3  H1  UNL     1     -10.746  15.095  66.011  1.00  0.00     0.000 HD 
HETATM    4  H2  UNL     1     -12.558  15.095  66.272  1.00  0.00     0.000 HD 
HETATM    5  O   UNL     1     -12.734  12.515  65.377  1.00  0.00    -0.624 OA 
HETATM    6  O   UNL     1     -10.612  13.238  64.215  1.00  0.00    -0.414 OA 
ENDROOT
BRANCH   2   7
HETATM    7  C   UNL     1     -10.472  12.353  66.677  1.00  0.00    -0.229 A  
HETATM    8  C   UNL     1      -9.347  12.989  67.206  1.00  0.00    -0.220 A  
HETATM    9  C   UNL     1      -8.637  12.376  68.239  1.00  0.00    -0.172 A  
HETATM   10 CL   UNL     1      -8.742  14.517  66.662  1.00  0.00    -0.215 Cl 
HETATM   11  C   UNL     1      -9.030  11.141  68.772  1.00  0.00    -0.131 A  
HETATM   12  N   UNL     1      -8.260  10.594  69.776  1.00  0.00    -0.364 NA 
HETATM   13  H   UNL     1      -7.445  11.123  70.086  1.00  0.00     0.000 HD 
HETATM   14  C   UNL     1      -8.519   9.324  70.423  1.00  0.00    -0.206 C  
HETATM   15  C   UNL     1     -10.843  11.081  67.148  1.00  0.00    -0.336 A  
HETATM   16  N   UNL     1      -8.982   8.365  69.435  1.00  0.00    -0.152 N  
HETATM   17  O   UNL     1     -11.409   8.988  69.844  1.00  0.00    -0.149 OA 
HETATM   18  S   UNL     1     -10.460   8.866  68.757  1.00  0.00    -0.166 S  
HETATM   19  H   UNL     1      -8.489   7.509  69.182  1.00  0.00     0.000 HD 
HETATM   20  C   UNL     1     -10.098  10.486  68.176  1.00  0.00    -0.158 A  
HETATM   21  O   UNL     1     -10.711   8.009  67.621  1.00  0.00    -0.216 OA 
BRANCH  14  22
HETATM   22  C   UNL     1      -7.262   8.833  71.226  1.00  0.00    -0.105 C  
HETATM   23  C   UNL     1      -6.809   7.466  70.615  1.00  0.00    -0.048 C  
HETATM   24  C   UNL     1      -7.143   6.463  71.747  1.00  0.00    -0.085 C  
HETATM   25  C   UNL     1      -8.169   7.129  72.668  1.00  0.00    -0.120 C  
HETATM   26  C   UNL     1      -7.389   8.443  72.736  1.00  0.00    -0.113 C  
HETATM   27  C   UNL     1      -6.093   7.799  73.252  1.00  0.00    -0.063 C  
HETATM   28  C   UNL     1      -5.971   6.583  72.688  1.00  0.00    -0.042 C  
ENDBRANCH  14  22
ENDBRANCH   2   7
TORSDOF 2
ENDMDL
MODEL      101
REMARK 921   NORMALIZED FREE ENERGY PREDICTED BY IDOCK:   -4.46 KCAL/MOL
REMARK 922        TOTAL FREE ENERGY PREDICTED BY IDOCK:   -5.05 KCAL/MOL
REMARK 923 INTER-LIGAND FREE ENERGY PREDICTED BY IDOCK:   -5.16 KCAL/MOL
REMARK 924 INTRA-LIGAND FREE ENERGY PREDICTED BY IDOCK:    0.11 KCAL/MOL
REMARK 927      BINDING AFFINITY PREDICTED BY RF-SCORE:    0.00 PKD
ROOT
HETATM    1  N   UNL     1     -10.109  14.347  64.853  1.00  0.00    -0.516 N  
HETATM    2  S   UNL     1     -10.634  13.943  66.399  1.00  0.00    -0.283 S  
HETATM    3  H1  UNL     1     -10.791  13.918  64.227  1.00  0.00     0.000 HD 
HETATM    4  H2  UNL     1      -9.291  14.900  64.597  1.00  0.00     0.000 HD 
HETATM    5  O   UNL     1      -9.668  14.552  67.285  1.00  0.00    -0.225 OA 
HETATM    6  O   UNL     1     -12.039  14.257  66.468  1.00  0.00    -0.431 OA 
ENDROOT
BRANCH   2   7
HETATM    7  C   UNL     1     -10.425  12.194  66.448  1.00  0.00    -0.230 A  
HETATM    8  C   UNL     1     -11.092  11.423  67.402  1.00  0.00    -0.289 A  
HETATM    9  C   UNL     1     -10.935  10.036  67.394  1.00  0.00    -0.258 A  
HETATM   10 CL   UNL     1     -12.123  12.069  68.633  1.00  0.00    -0.266 Cl 
HETATM   11  C   UNL     1     -10.132   9.391  66.443  1.00  0.00    -0.262 A  
HETATM   12  N   UNL     1     -10.013   8.021  66.518  1.00  0.00    -0.401 NA 
HETATM   13  H   UNL     1     -10.524   7.543  67.261  1.00  0.00     0.000 HD 
HETATM   14  C   UNL     1      -9.216   7.206  65.625  1.00  0.00     0.235 C  
HETATM   15  C   UNL     1      -9.559  11.574  65.528  1.00  0.00    -0.252 A  
HETATM   16  N   UNL     1      -7.976   7.897  65.318  1.00  0.00    -0.118 N  
HETATM   17  O   UNL     1      -9.002   9.008  63.277  1.00  0.00    -0.100 OA 
HETATM   18  S   UNL     1      -8.287   9.350  64.489  1.00  0.00    -0.175 S  
HETATM   19  H   UNL     1      -7.047   7.559  65.565  1.00  0.00     0.000 HD 
HETATM   20  C   UNL     1      -9.412  10.180  65.558  1.00  0.00    -0.230 A  
HETATM   21  O   UNL     1      -7.045  10.088  64.457  1.00  0.00    -0.133 OA 
BRANCH  14  22
HETATM   22  C   UNL     1      -8.997   5.768  66.216  1.00  0.00    -0.149 C  
HETATM   23  C   UNL     1     -10.357   5.287  66.820  1.00  0.00    -0.320 C  
HETATM   24  C   UNL     1     -10.066   5.274  68.342  1.00  0.00    -0.224 C  
HETATM   25  C   UNL     1      -8.849   6.171  68.588  1.00  0.00    -0.114 C  
HETATM   26  C   UNL     1      -8.048   5.551  67.442  1.00  0.00    -0.101 C  
HETATM   27  C   UNL     1      -8.150   4.113  67.973  1.00  0.00    -0.089 C  
HETATM   28  C   UNL     1      -9.353   3.964  68.558  1.00  0.00    -0.224 C  
ENDBRANCH  14  22
ENDBRANCH   2   7
TORSDOF 2
ENDMDL
MODEL      102
REMARK 921   NORMALIZED FREE ENERGY PREDICTED BY IDOCK:   -4.37 KCAL/MOL
REMARK 922        TOTAL FREE ENERGY PREDICTED BY IDOCK:   -4.95 KCAL/MOL
REMARK 923 INTER-LIGAND FREE ENERGY PREDICTED BY IDOCK:   -4.84 KCAL/MOL
REMARK 924 INTRA-LIGAND FREE ENERGY PREDICTED BY IDOCK:   -0.10 KCAL/MOL
REMARK 927      BINDING AFFINITY PREDICTED BY RF-SCORE:    0.00 PKD
ROOT
HETATM    1  N   UNL     1      -9.414  12.966  65.430  1.00  0.00    -0.456 N  
HETATM    2  S   UNL     1      -9.268  13.550  67.000  1.00  0.00    -0.250 S  
HETATM    3  H1  UNL     1     -10.371  12.620  65.369  1.00  0.00     0.000 HD 
HETATM    4  H2  UNL     1      -8.702  12.959  64.699  1.00  0.00     0.000 HD 
HETATM    5  O   UNL     1      -7.911  14.039  67.086  1.00  0.00    -0.157 OA 
HETATM    6  O   UNL     1     -10.405  14.401  67.246  1.00  0.00    -0.257 OA 
ENDROOT
BRANCH   2   7
HETATM    7  C   UNL     1      -9.409  12.093  67.983  1.00  0.00    -0.197 A  
HETATM    8  C   UNL     1     -10.637  11.443  68.122  1.00  0.00    -0.189 A  
HETATM    9  C   UNL     1     -10.709  10.272  68.877  1.00  0.00    -0.256 A  
HETATM   10 CL   UNL     1     -12.119  11.993  67.416  1.00  0.00    -0.093 Cl 
HETATM   11  C   UNL     1      -9.578   9.721  69.493  1.00  0.00    -0.210 A  
HETATM   12  N   UNL     1      -9.741   8.574  70.241  1.00  0.00    -0.169 NA 
HETATM   13  H   UNL     1     -10.679   8.180  70.299  1.00  0.00     0.000 HD 
HETATM   14  C   UNL     1      -8.681   7.887  70.949  1.00  0.00    -0.137 C  
HETATM   15  C   UNL     1      -8.274  11.597  68.650  1.00  0.00    -0.110 A  
HETATM   16  N   UNL     1      -7.785   8.865  71.543  1.00  0.00    -0.095 N  
HETATM   17  O   UNL     1      -6.301   8.881  69.483  1.00  0.00    -0.042 OA 
HETATM   18  S   UNL     1      -7.027   9.796  70.337  1.00  0.00    -0.131 S  
HETATM   19  H   UNL     1      -7.631   8.977  72.545  1.00  0.00     0.000 HD 
HETATM   20  C   UNL     1      -8.386  10.427  69.415  1.00  0.00    -0.142 A  
HETATM   21  O   UNL     1      -6.370  10.895  71.008  1.00  0.00    -0.332 OA 
BRANCH  14  22
HETATM   22  C   UNL     1      -9.266   6.867  71.990  1.00  0.00    -0.146 C  
HETATM   23  C   UNL     1      -8.404   5.565  71.919  1.00  0.00    -0.119 C  
HETATM   24  C   UNL     1      -9.389   4.540  71.304  1.00  0.00    -0.209 C  
HETATM   25  C   UNL     1     -10.502   5.328  70.608  1.00  0.00    -0.306 C  
HETATM   26  C   UNL     1     -10.700   6.271  71.795  1.00  0.00    -0.279 C  
HETATM   27  C   UNL     1     -10.975   5.150  72.809  1.00  0.00    -0.327 C  
HETATM   28  C   UNL     1     -10.216   4.088  72.481  1.00  0.00    -0.233 C  
ENDBRANCH  14  22
ENDBRANCH   2   7
TORSDOF 2
ENDMDL
MODEL      103
REMARK 921   NORMALIZED FREE ENERGY PREDICTED BY IDOCK:   -4.22 KCAL/MOL
REMARK 922        TOTAL FREE ENERGY PREDICTED BY IDOCK:   -4.78 KCAL/MOL
REMARK 923 INTER-LIGAND FREE ENERGY PREDICTED BY IDOCK:   -4.48 KCAL/MOL
REMARK 924 INTRA-LIGAND FREE ENERGY PREDICTED BY IDOCK:   -0.31 KCAL/MOL
REMARK 927      BINDING AFFINITY PREDICTED BY RF-SCORE:    0.00 PKD
ROOT
HETATM    1  N   UNL     1     -12.999  14.239  70.270  1.00  0.00    -0.426 N  
HETATM    2  S   UNL     1     -11.770  15.304  69.842  1.00  0.00    -0.349 S  
HETATM    3  H1  UNL     1     -12.536  13.518  70.823  1.00  0.00     0.000 HD 
HETATM    4  H2  UNL     1     -13.989  14.301  70.030  1.00  0.00     0.000 HD 
HETATM    5  O   UNL     1     -12.426  16.326  69.058  1.00  0.00     0.202 OA 
HETATM    6  O   UNL     1     -11.037  15.615  71.043  1.00  0.00    -0.340 OA 
ENDROOT
BRANCH   2   7
HETATM    7  C   UNL     1     -10.755  14.336  68.774  1.00  0.00    -0.254 A  
HETATM    8  C   UNL     1      -9.832  14.946  67.922  1.00  0.00    -0.214 A  
HETATM    9  C   UNL     1      -9.018  14.151  67.115  1.00  0.00    -0.236 A  
HETATM   10 CL   UNL     1      -9.617  16.657  67.779  1.00  0.00    -0.234 Cl 
HETATM   11  C   UNL     1      -9.091  12.752  67.144  1.00  0.00    -0.219 A  
HETATM   12  N   UNL     1      -8.266  12.042  66.298  1.00  0.00    -0.386 NA 
HETATM   13  H   UNL     1      -7.636  12.575  65.698  1.00  0.00     0.000 HD 
HETATM   14  C   UNL     1      -8.226  10.598  66.195  1.00  0.00    -0.156 C  
HETATM   15  C   UNL     1     -10.895  12.936  68.769  1.00  0.00    -0.277 A  
HETATM   16  N   UNL     1      -9.575  10.070  66.296  1.00  0.00    -0.189 N  
HETATM   17  O   UNL     1      -9.383   9.825  68.816  1.00  0.00    -0.143 OA 
HETATM   18  S   UNL     1     -10.247  10.422  67.820  1.00  0.00    -0.206 S  
HETATM   19  H   UNL     1     -10.055   9.558  65.555  1.00  0.00     0.000 HD 
HETATM   20  C   UNL     1     -10.071  12.169  67.933  1.00  0.00    -0.197 A  
HETATM   21  O   UNL     1     -11.654  10.100  67.741  1.00  0.00    -0.239 OA 
BRANCH  14  22
HETATM   22  C   UNL     1      -7.476  10.145  64.892  1.00  0.00    -0.137 C  
HETATM   23  C   UNL     1      -7.827   8.643  64.637  1.00  0.00    -0.129 C  
HETATM   24  C   UNL     1      -6.478   7.930  64.907  1.00  0.00    -0.048 C  
HETATM   25  C   UNL     1      -5.615   8.875  65.748  1.00  0.00    -0.049 C  
HETATM   26  C   UNL     1      -5.913  10.083  64.858  1.00  0.00    -0.114 C  
HETATM   27  C   UNL     1      -5.414   9.420  63.565  1.00  0.00    -0.071 C  
HETATM   28  C   UNL     1      -5.715   8.109  63.619  1.00  0.00    -0.065 C  
ENDBRANCH  14  22
ENDBRANCH   2   7
TORSDOF 2
ENDMDL
MODEL      104
REMARK 921   NORMALIZED FREE ENERGY PREDICTED BY IDOCK:   -4.21 KCAL/MOL
REMARK 922        TOTAL FREE ENERGY PREDICTED BY IDOCK:   -4.78 KCAL/MOL
REMARK 923 INTER-LIGAND FREE ENERGY PREDICTED BY IDOCK:   -4.56 KCAL/MOL
REMARK 924 INTRA-LIGAND FREE ENERGY PREDICTED BY IDOCK:   -0.22 KCAL/MOL
REMARK 927      BINDING AFFINITY PREDICTED BY RF-SCORE:    0.00 PKD
ROOT
HETATM    1  N   UNL     1      -8.493   6.167  63.360  1.00  0.00    -0.328 N  
HETATM    2  S   UNL     1      -8.544   4.988  64.559  1.00  0.00    -0.123 S  
HETATM    3  H1  UNL     1      -7.726   6.781  63.633  1.00  0.00     0.000 HD 
HETATM    4  H2  UNL     1      -9.096   6.249  62.541  1.00  0.00     0.000 HD 
HETATM    5  O   UNL     1      -9.630   4.117  64.172  1.00  0.00    -0.156 OA 
HETATM    6  O   UNL     1      -7.198   4.500  64.734  1.00  0.00    -0.061 OA 
ENDROOT
BRANCH   2   7
HETATM    7  C   UNL     1      -9.026   5.894  65.992  1.00  0.00    -0.151 A  
HETATM    8  C   UNL     1      -9.355   5.232  67.177  1.00  0.00    -0.122 A  
HETATM    9  C   UNL     1      -9.698   5.978  68.304  1.00  0.00    -0.138 A  
HETATM   10 CL   UNL     1      -9.377   3.511  67.360  1.00  0.00    -0.228 Cl 
HETATM   11  C   UNL     1      -9.710   7.379  68.286  1.00  0.00    -0.152 A  
HETATM   12  N   UNL     1     -10.083   8.039  69.437  1.00  0.00    -0.192 NA 
HETATM   13  H   UNL     1     -10.323   7.470  70.250  1.00  0.00     0.000 HD 
HETATM   14  C   UNL     1     -10.160   9.477  69.582  1.00  0.00    -0.212 C  
HETATM   15  C   UNL     1      -9.100   7.298  65.931  1.00  0.00    -0.064 A  
HETATM   16  N   UNL     1     -10.695  10.057  68.362  1.00  0.00    -0.223 N  
HETATM   17  O   UNL     1      -8.370  10.351  67.383  1.00  0.00    -0.120 OA 
HETATM   18  S   UNL     1      -9.651   9.764  67.050  1.00  0.00    -0.180 S  
HETATM   19  H   UNL     1     -11.575  10.569  68.300  1.00  0.00     0.000 HD 
HETATM   20  C   UNL     1      -9.464   8.015  67.079  1.00  0.00    -0.174 A  
HETATM   21  O   UNL     1     -10.370  10.136  65.852  1.00  0.00    -0.229 OA 
BRANCH  14  22
HETATM   22  C   UNL     1     -10.973   9.873  70.866  1.00  0.00    -0.392 C  
HETATM   23  C   UNL     1     -10.910   8.668  71.861  1.00  0.00    -0.419 C  
HETATM   24  C   UNL     1     -12.371   8.153  71.861  1.00  0.00    -0.371 C  
HETATM   25  C   UNL     1     -13.046   8.676  70.590  1.00  0.00     0.549 C  
HETATM   26  C   UNL     1     -12.520  10.098  70.788  1.00  0.00    -0.417 C  
HETATM   27  C   UNL     1     -13.125  10.268  72.189  1.00  0.00    -0.444 C  
HETATM   28  C   UNL     1     -13.077   9.079  72.818  1.00  0.00    -0.209 C  
ENDBRANCH  14  22
ENDBRANCH   2   7
TORSDOF 2
ENDMDL
MODEL      105
REMARK 921   NORMALIZED FREE ENERGY PREDICTED BY IDOCK:   -4.18 KCAL/MOL
REMARK 922        TOTAL FREE ENERGY PREDICTED BY IDOCK:   -4.73 KCAL/MOL
REMARK 923 INTER-LIGAND FREE ENERGY PREDICTED BY IDOCK:   -5.12 KCAL/MOL
REMARK 924 INTRA-LIGAND FREE ENERGY PREDICTED BY IDOCK:    0.38 KCAL/MOL
REMARK 927      BINDING AFFINITY PREDICTED BY RF-SCORE:    0.00 PKD
ROOT
HETATM    1  N   UNL     1     -10.134  13.596  64.569  1.00  0.00    -0.651 N  
HETATM    2  S   UNL     1     -10.780  12.135  64.045  1.00  0.00    -0.428 S  
HETATM    3  H1  UNL     1      -9.132  13.424  64.647  1.00  0.00     0.000 HD 
HETATM    4  H2  UNL     1     -10.634  14.463  64.766  1.00  0.00     0.000 HD 
HETATM    5  O   UNL     1     -12.200  12.379  63.935  1.00  0.00    -0.436 OA 
HETATM    6  O   UNL     1      -9.990  11.698  62.921  1.00  0.00    -0.341 OA 
ENDROOT
BRANCH   2   7
HETATM    7  C   UNL     1     -10.494  11.058  65.411  1.00  0.00    -0.241 A  
HETATM    8  C   UNL     1     -11.092  11.304  66.650  1.00  0.00    -0.235 A  
HETATM    9  C   UNL     1     -10.875  10.414  67.703  1.00  0.00    -0.361 A  
HETATM   10 CL   UNL     1     -12.101  12.667  66.994  1.00  0.00    -0.318 Cl 
HETATM   11  C   UNL     1     -10.083   9.269  67.548  1.00  0.00    -0.218 A  
HETATM   12  N   UNL     1      -9.901   8.454  68.645  1.00  0.00    -0.165 NA 
HETATM   13  H   UNL     1     -10.363   8.723  69.514  1.00  0.00     0.000 HD 
HETATM   14  C   UNL     1      -9.105   7.244  68.659  1.00  0.00    -0.133 C  
HETATM   15  C   UNL     1      -9.639   9.952  65.254  1.00  0.00    -0.361 A  
HETATM   16  N   UNL     1      -7.909   7.446  67.860  1.00  0.00    -0.116 N  
HETATM   17  O   UNL     1      -9.057   6.581  65.767  1.00  0.00    -0.103 OA 
HETATM   18  S   UNL     1      -8.313   7.732  66.232  1.00  0.00    -0.139 S  
HETATM   19  H   UNL     1      -6.956   7.419  68.225  1.00  0.00     0.000 HD 
HETATM   20  C   UNL     1      -9.430   9.087  66.338  1.00  0.00    -0.226 A  
HETATM   21  O   UNL     1      -7.105   8.175  65.573  1.00  0.00    -0.065 OA 
BRANCH  14  22
HETATM   22  C   UNL     1      -8.802   6.784  70.129  1.00  0.00    -0.141 C  
HETATM   23  C   UNL     1      -8.128   7.982  70.875  1.00  0.00    -0.102 C  
HETATM   24  C   UNL     1      -6.679   7.478  71.086  1.00  0.00    -0.046 C  
HETATM   25  C   UNL     1      -6.433   6.345  70.085  1.00  0.00    -0.040 C  
HETATM   26  C   UNL     1      -7.757   5.652  70.406  1.00  0.00    -0.094 C  
HETATM   27  C   UNL     1      -7.474   5.517  71.910  1.00  0.00    -0.094 C  
HETATM   28  C   UNL     1      -6.780   6.601  72.308  1.00  0.00    -0.059 C  
ENDBRANCH  14  22
ENDBRANCH   2   7
TORSDOF 2
ENDMDL
MODEL      106
REMARK 921   NORMALIZED FREE ENERGY PREDICTED BY IDOCK:   -4.12 KCAL/MOL
REMARK 922        TOTAL FREE ENERGY PREDICTED BY IDOCK:   -4.68 KCAL/MOL
REMARK 923 INTER-LIGAND FREE ENERGY PREDICTED BY IDOCK:   -4.37 KCAL/MOL
REMARK 924 INTRA-LIGAND FREE ENERGY PREDICTED BY IDOCK:   -0.30 KCAL/MOL
REMARK 927      BINDING AFFINITY PREDICTED BY RF-SCORE:    0.00 PKD
ROOT
HETATM    1  N   UNL     1      -9.542   4.812  62.884  1.00  0.00    -0.358 N  
HETATM    2  S   UNL     1      -9.444   3.425  63.831  1.00  0.00    -0.142 S  
HETATM    3  H1  UNL     1      -8.637   5.267  62.997  1.00  0.00     0.000 HD 
HETATM    4  H2  UNL     1     -10.333   5.127  62.322  1.00  0.00     0.000 HD 
HETATM    5  O   UNL     1     -10.727   2.779  63.671  1.00  0.00    -0.210 OA 
HETATM    6  O   UNL     1      -8.208   2.764  63.491  1.00  0.00    -0.083 OA 
ENDROOT
BRANCH   2   7
HETATM    7  C   UNL     1      -9.331   4.065  65.469  1.00  0.00    -0.159 A  
HETATM    8  C   UNL     1      -9.204   3.206  66.563  1.00  0.00    -0.139 A  
HETATM    9  C   UNL     1      -9.081   3.744  67.844  1.00  0.00    -0.191 A  
HETATM   10 CL   UNL     1      -9.195   1.479  66.452  1.00  0.00    -0.036 Cl 
HETATM   11  C   UNL     1      -9.067   5.128  68.065  1.00  0.00    -0.112 A  
HETATM   12  N   UNL     1      -8.965   5.576  69.364  1.00  0.00    -0.105 NA 
HETATM   13  H   UNL     1      -8.894   4.874  70.101  1.00  0.00     0.000 HD 
HETATM   14  C   UNL     1      -8.949   6.968  69.764  1.00  0.00    -0.141 C  
HETATM   15  C   UNL     1      -9.390   5.456  65.674  1.00  0.00    -0.098 A  
HETATM   16  N   UNL     1      -9.890   7.714  68.947  1.00  0.00    -0.161 N  
HETATM   17  O   UNL     1      -8.099   8.261  67.232  1.00  0.00    -0.107 OA 
HETATM   18  S   UNL     1      -9.424   7.683  67.311  1.00  0.00    -0.157 S  
HETATM   19  H   UNL     1     -10.717   8.193  69.306  1.00  0.00     0.000 HD 
HETATM   20  C   UNL     1      -9.279   5.962  66.977  1.00  0.00    -0.119 A  
HETATM   21  O   UNL     1     -10.532   8.213  66.550  1.00  0.00    -0.252 OA 
BRANCH  14  22
HETATM   22  C   UNL     1      -9.209   7.115  71.305  1.00  0.00    -0.151 C  
HETATM   23  C   UNL     1      -8.942   5.725  71.970  1.00  0.00    -0.140 C  
HETATM   24  C   UNL     1     -10.360   5.284  72.411  1.00  0.00    -0.259 C  
HETATM   25  C   UNL     1     -11.372   6.093  71.594  1.00  0.00    -0.341 C  
HETATM   26  C   UNL     1     -10.648   7.417  71.841  1.00  0.00    -0.233 C  
HETATM   27  C   UNL     1     -10.701   7.311  73.373  1.00  0.00    -0.415 C  
HETATM   28  C   UNL     1     -10.574   6.014  73.712  1.00  0.00    -0.265 C  
ENDBRANCH  14  22
ENDBRANCH   2   7
TORSDOF 2
ENDMDL
MODEL      107
REMARK 921   NORMALIZED FREE ENERGY PREDICTED BY IDOCK:   -4.11 KCAL/MOL
REMARK 922        TOTAL FREE ENERGY PREDICTED BY IDOCK:   -4.66 KCAL/MOL
REMARK 923 INTER-LIGAND FREE ENERGY PREDICTED BY IDOCK:   -4.50 KCAL/MOL
REMARK 924 INTRA-LIGAND FREE ENERGY PREDICTED BY IDOCK:   -0.16 KCAL/MOL
REMARK 927      BINDING AFFINITY PREDICTED BY RF-SCORE:    0.00 PKD
ROOT
HETATM    1  N   UNL     1     -13.130   7.206  72.196  1.00  0.00    -0.535 N  
HETATM    2  S   UNL     1     -11.684   8.059  72.096  1.00  0.00    -0.368 S  
HETATM    3  H1  UNL     1     -12.854   6.254  72.434  1.00  0.00     0.000 HD 
HETATM    4  H2  UNL     1     -14.075   7.563  72.051  1.00  0.00     0.000 HD 
HETATM    5  O   UNL     1     -12.075   9.409  71.759  1.00  0.00    -0.354 OA 
HETATM    6  O   UNL     1     -10.927   7.757  73.286  1.00  0.00    -0.382 OA 
ENDROOT
BRANCH   2   7
HETATM    7  C   UNL     1     -10.887   7.334  70.701  1.00  0.00    -0.242 A  
HETATM    8  C   UNL     1     -10.636   5.961  70.657  1.00  0.00    -0.268 A  
HETATM    9  C   UNL     1     -10.036   5.411  69.524  1.00  0.00    -0.310 A  
HETATM   10 CL   UNL     1     -11.013   4.858  71.936  1.00  0.00    -0.064 Cl 
HETATM   11  C   UNL     1      -9.689   6.198  68.417  1.00  0.00    -0.122 A  
HETATM   12  N   UNL     1      -9.080   5.580  67.347  1.00  0.00    -0.111 NA 
HETATM   13  H   UNL     1      -8.921   4.574  67.413  1.00  0.00     0.000 HD 
HETATM   14  C   UNL     1      -8.649   6.248  66.137  1.00  0.00    -0.143 C  
HETATM   15  C   UNL     1     -10.484   8.154  69.631  1.00  0.00    -0.224 A  
HETATM   16  N   UNL     1      -8.088   7.544  66.476  1.00  0.00    -0.116 N  
HETATM   17  O   UNL     1     -10.343   8.682  66.215  1.00  0.00    -0.214 OA 
HETATM   18  S   UNL     1      -9.271   8.546  67.178  1.00  0.00    -0.148 S  
HETATM   19  H   UNL     1      -7.118   7.817  66.314  1.00  0.00     0.000 HD 
HETATM   20  C   UNL     1      -9.869   7.571  68.514  1.00  0.00    -0.165 A  
HETATM   21  O   UNL     1      -8.579   9.696  67.715  1.00  0.00    -0.125 OA 
BRANCH  14  22
HETATM   22  C   UNL     1      -7.668   5.342  65.311  1.00  0.00    -0.089 C  
HETATM   23  C   UNL     1      -7.957   5.584  63.793  1.00  0.00    -0.112 C  
HETATM   24  C   UNL     1      -8.576   4.235  63.348  1.00  0.00    -0.109 C  
HETATM   25  C   UNL     1      -9.074   3.517  64.606  1.00  0.00    -0.132 C  
HETATM   26  C   UNL     1      -7.781   3.783  65.379  1.00  0.00    -0.082 C  
HETATM   27  C   UNL     1      -6.867   3.116  64.339  1.00  0.00    -0.037 C  
HETATM   28  C   UNL     1      -7.377   3.352  63.115  1.00  0.00    -0.053 C  
ENDBRANCH  14  22
ENDBRANCH   2   7
TORSDOF 2
ENDMDL
MODEL      108
REMARK 921   NORMALIZED FREE ENERGY PREDICTED BY IDOCK:   -4.09 KCAL/MOL
REMARK 922        TOTAL FREE ENERGY PREDICTED BY IDOCK:   -4.64 KCAL/MOL
REMARK 923 INTER-LIGAND FREE ENERGY PREDICTED BY IDOCK:   -4.25 KCAL/MOL
REMARK 924 INTRA-LIGAND FREE ENERGY PREDICTED BY IDOCK:   -0.39 KCAL/MOL
REMARK 927      BINDING AFFINITY PREDICTED BY RF-SCORE:    0.00 PKD
ROOT
HETATM    1  N   UNL     1      -8.755   6.111  62.783  1.00  0.00    -0.331 N  
HETATM    2  S   UNL     1      -7.803   7.423  63.231  1.00  0.00    -0.094 S  
HETATM    3  H1  UNL     1      -9.705   6.383  63.031  1.00  0.00     0.000 HD 
HETATM    4  H2  UNL     1      -8.448   5.236  62.358  1.00  0.00     0.000 HD 
HETATM    5  O   UNL     1      -6.455   7.037  62.880  1.00  0.00    -0.046 OA 
HETATM    6  O   UNL     1      -8.425   8.606  62.688  1.00  0.00    -0.201 OA 
ENDROOT
BRANCH   2   7
HETATM    7  C   UNL     1      -7.948   7.443  64.987  1.00  0.00    -0.129 A  
HETATM    8  C   UNL     1      -7.125   8.264  65.762  1.00  0.00    -0.071 A  
HETATM    9  C   UNL     1      -7.288   8.284  67.147  1.00  0.00    -0.088 A  
HETATM   10 CL   UNL     1      -5.880   9.281  65.121  1.00  0.00    -0.058 Cl 
HETATM   11  C   UNL     1      -8.266   7.510  67.786  1.00  0.00    -0.119 A  
HETATM   12  N   UNL     1      -8.346   7.571  69.160  1.00  0.00    -0.133 NA 
HETATM   13  H   UNL     1      -7.690   8.187  69.643  1.00  0.00     0.000 HD 
HETATM   14  C   UNL     1      -9.287   6.829  69.972  1.00  0.00    -0.158 C  
HETATM   15  C   UNL     1      -8.890   6.605  65.613  1.00  0.00    -0.050 A  
HETATM   16  N   UNL     1      -9.449   5.494  69.423  1.00  0.00    -0.128 N  
HETATM   17  O   UNL     1     -11.395   6.234  67.970  1.00  0.00    -0.260 OA 
HETATM   18  S   UNL     1     -10.117   5.562  67.860  1.00  0.00    -0.178 S  
HETATM   19  H   UNL     1      -9.197   4.633  69.909  1.00  0.00     0.000 HD 
HETATM   20  C   UNL     1      -9.016   6.639  67.009  1.00  0.00    -0.118 A  
HETATM   21  O   UNL     1     -10.000   4.237  67.296  1.00  0.00    -0.179 OA 
BRANCH  14  22
HETATM   22  C   UNL     1      -8.858   6.833  71.482  1.00  0.00    -0.137 C  
HETATM   23  C   UNL     1      -9.566   5.629  72.184  1.00  0.00    -0.170 C  
HETATM   24  C   UNL     1     -10.580   6.331  73.121  1.00  0.00    -0.273 C  
HETATM   25  C   UNL     1     -10.786   7.755  72.595  1.00  0.00    -0.413 C  
HETATM   26  C   UNL     1      -9.287   8.006  72.425  1.00  0.00    -0.272 C  
HETATM   27  C   UNL     1      -8.936   7.696  73.889  1.00  0.00    -0.321 C  
HETATM   28  C   UNL     1      -9.751   6.716  74.321  1.00  0.00    -0.328 C  
ENDBRANCH  14  22
ENDBRANCH   2   7
TORSDOF 2
ENDMDL
MODEL      109
REMARK 921   NORMALIZED FREE ENERGY PREDICTED BY IDOCK:   -4.09 KCAL/MOL
REMARK 922        TOTAL FREE ENERGY PREDICTED BY IDOCK:   -4.64 KCAL/MOL
REMARK 923 INTER-LIGAND FREE ENERGY PREDICTED BY IDOCK:   -4.89 KCAL/MOL
REMARK 924 INTRA-LIGAND FREE ENERGY PREDICTED BY IDOCK:    0.26 KCAL/MOL
REMARK 927      BINDING AFFINITY PREDICTED BY RF-SCORE:    0.00 PKD
ROOT
HETATM    1  N   UNL     1     -10.120  18.311  67.675  1.00  0.00    -0.338 N  
HETATM    2  S   UNL     1      -9.550  17.721  66.207  1.00  0.00    -0.198 S  
HETATM    3  H1  UNL     1      -9.321  18.254  68.305  1.00  0.00     0.000 HD 
HETATM    4  H2  UNL     1     -11.058  18.651  67.888  1.00  0.00     0.000 HD 
HETATM    5  O   UNL     1     -10.683  17.801  65.313  1.00  0.00    -0.649 OA 
HETATM    6  O   UNL     1      -8.307  18.397  65.929  1.00  0.00    -0.502 OA 
ENDROOT
BRANCH   2   7
HETATM    7  C   UNL     1      -9.224  16.024  66.557  1.00  0.00    -0.276 A  
HETATM    8  C   UNL     1      -9.991  15.015  65.970  1.00  0.00    -0.310 A  
HETATM    9  C   UNL     1      -9.686  13.680  66.239  1.00  0.00    -0.295 A  
HETATM   10 CL   UNL     1     -11.332  15.297  64.913  1.00  0.00    -0.399 Cl 
HETATM   11  C   UNL     1      -8.619  13.321  67.074  1.00  0.00    -0.161 A  
HETATM   12  N   UNL     1      -8.399  11.980  67.305  1.00  0.00    -0.169 NA 
HETATM   13  H   UNL     1      -9.023  11.315  66.846  1.00  0.00     0.000 HD 
HETATM   14  C   UNL     1      -7.352  11.443  68.148  1.00  0.00    -0.092 C  
HETATM   15  C   UNL     1      -8.192  15.688  67.453  1.00  0.00    -0.198 A  
HETATM   16  N   UNL     1      -7.201  12.284  69.323  1.00  0.00    -0.318 N  
HETATM   17  O   UNL     1      -5.445  13.716  68.176  1.00  0.00    -0.097 OA 
HETATM   18  S   UNL     1      -6.702  13.850  68.881  1.00  0.00    -0.111 S  
HETATM   19  H   UNL     1      -7.370  11.978  70.281  1.00  0.00     0.000 HD 
HETATM   20  C   UNL     1      -7.923  14.337  67.713  1.00  0.00    -0.168 A  
HETATM   21  O   UNL     1      -6.829  14.677  70.060  1.00  0.00    -0.162 OA 
BRANCH  14  22
HETATM   22  C   UNL     1      -7.623   9.936  68.493  1.00  0.00    -0.080 C  
HETATM   23  C   UNL     1      -6.493   9.457  69.463  1.00  0.00    -0.043 C  
HETATM   24  C   UNL     1      -5.693   8.462  68.587  1.00  0.00    -0.037 C  
HETATM   25  C   UNL     1      -6.021   8.767  67.122  1.00  0.00    -0.053 C  
HETATM   26  C   UNL     1      -7.527   8.838  67.381  1.00  0.00    -0.089 C  
HETATM   27  C   UNL     1      -7.623   7.429  67.985  1.00  0.00    -0.114 C  
HETATM   28  C   UNL     1      -6.492   7.187  68.674  1.00  0.00    -0.036 C  
ENDBRANCH  14  22
ENDBRANCH   2   7
TORSDOF 2
ENDMDL
MODEL      110
REMARK 921   NORMALIZED FREE ENERGY PREDICTED BY IDOCK:   -4.07 KCAL/MOL
REMARK 922        TOTAL FREE ENERGY PREDICTED BY IDOCK:   -4.61 KCAL/MOL
REMARK 923 INTER-LIGAND FREE ENERGY PREDICTED BY IDOCK:   -4.25 KCAL/MOL
REMARK 924 INTRA-LIGAND FREE ENERGY PREDICTED BY IDOCK:   -0.36 KCAL/MOL
REMARK 927      BINDING AFFINITY PREDICTED BY RF-SCORE:    0.00 PKD
ROOT
HETATM    1  N   UNL     1      -9.800  12.826  66.881  1.00  0.00    -0.231 N  
HETATM    2  S   UNL     1     -11.208  12.580  67.768  1.00  0.00    -0.289 S  
HETATM    3  H1  UNL     1      -9.714  11.996  66.296  1.00  0.00     0.000 HD 
HETATM    4  H2  UNL     1      -9.172  13.629  66.921  1.00  0.00     0.000 HD 
HETATM    5  O   UNL     1     -11.331  13.757  68.597  1.00  0.00    -0.252 OA 
HETATM    6  O   UNL     1     -12.237  12.192  66.835  1.00  0.00    -0.537 OA 
ENDROOT
BRANCH   2   7
HETATM    7  C   UNL     1     -10.802  11.204  68.792  1.00  0.00    -0.213 A  
HETATM    8  C   UNL     1     -11.612  10.858  69.876  1.00  0.00    -0.331 A  
HETATM    9  C   UNL     1     -11.283   9.743  70.647  1.00  0.00    -0.402 A  
HETATM   10 CL   UNL     1     -13.026  11.732  70.356  1.00  0.00     0.104 Cl 
HETATM   11  C   UNL     1     -10.166   8.948  70.355  1.00  0.00    -0.200 A  
HETATM   12  N   UNL     1      -9.900   7.877  71.181  1.00  0.00    -0.165 NA 
HETATM   13  H   UNL     1     -10.539   7.712  71.959  1.00  0.00     0.000 HD 
HETATM   14  C   UNL     1      -8.783   6.968  71.028  1.00  0.00    -0.139 C  
HETATM   15  C   UNL     1      -9.636  10.463  68.524  1.00  0.00    -0.161 A  
HETATM   16  N   UNL     1      -7.606   7.715  70.620  1.00  0.00    -0.079 N  
HETATM   17  O   UNL     1      -8.133   7.369  68.160  1.00  0.00    -0.121 OA 
HETATM   18  S   UNL     1      -7.847   8.435  69.097  1.00  0.00    -0.106 S  
HETATM   19  H   UNL     1      -6.751   7.797  71.171  1.00  0.00     0.000 HD 
HETATM   20  C   UNL     1      -9.328   9.357  69.329  1.00  0.00    -0.167 A  
HETATM   21  O   UNL     1      -6.753   9.356  68.891  1.00  0.00    -0.051 OA 
BRANCH  14  22
HETATM   22  C   UNL     1      -8.562   6.121  72.331  1.00  0.00    -0.119 C  
HETATM   23  C   UNL     1      -7.609   4.933  71.973  1.00  0.00    -0.088 C  
HETATM   24  C   UNL     1      -8.545   3.704  72.086  1.00  0.00    -0.101 C  
HETATM   25  C   UNL     1      -9.987   4.208  71.986  1.00  0.00    -0.250 C  
HETATM   26  C   UNL     1      -9.754   5.344  72.983  1.00  0.00    -0.165 C  
HETATM   27  C   UNL     1      -9.264   4.427  74.114  1.00  0.00    -0.115 C  
HETATM   28  C   UNL     1      -8.573   3.410  73.564  1.00  0.00    -0.074 C  
ENDBRANCH  14  22
ENDBRANCH   2   7
TORSDOF 2
ENDMDL
MODEL      111
REMARK 921   NORMALIZED FREE ENERGY PREDICTED BY IDOCK:   -3.97 KCAL/MOL
REMARK 922        TOTAL FREE ENERGY PREDICTED BY IDOCK:   -4.50 KCAL/MOL
REMARK 923 INTER-LIGAND FREE ENERGY PREDICTED BY IDOCK:   -4.49 KCAL/MOL
REMARK 924 INTRA-LIGAND FREE ENERGY PREDICTED BY IDOCK:   -0.02 KCAL/MOL
REMARK 927      BINDING AFFINITY PREDICTED BY RF-SCORE:    0.00 PKD
ROOT
HETATM    1  N   UNL     1      -6.972  10.517  63.440  1.00  0.00    -0.338 N  
HETATM    2  S   UNL     1      -8.172   9.349  63.293  1.00  0.00    -0.179 S  
HETATM    3  H1  UNL     1      -6.165  10.015  63.808  1.00  0.00     0.000 HD 
HETATM    4  H2  UNL     1      -7.037  11.509  63.210  1.00  0.00     0.000 HD 
HETATM    5  O   UNL     1      -9.316  10.060  62.771  1.00  0.00    -0.284 OA 
HETATM    6  O   UNL     1      -7.591   8.224  62.603  1.00  0.00    -0.106 OA 
ENDROOT
BRANCH   2   7
HETATM    7  C   UNL     1      -8.500   8.899  64.966  1.00  0.00    -0.176 A  
HETATM    8  C   UNL     1      -9.177   9.773  65.819  1.00  0.00    -0.191 A  
HETATM    9  C   UNL     1      -9.453   9.375  67.128  1.00  0.00    -0.185 A  
HETATM   10 CL   UNL     1      -9.710  11.358  65.372  1.00  0.00    -0.252 Cl 
HETATM   11  C   UNL     1      -9.080   8.113  67.608  1.00  0.00    -0.134 A  
HETATM   12  N   UNL     1      -9.371   7.807  68.920  1.00  0.00    -0.147 NA 
HETATM   13  H   UNL     1      -9.853   8.515  69.473  1.00  0.00     0.000 HD 
HETATM   14  C   UNL     1      -9.044   6.557  69.574  1.00  0.00    -0.140 C  
HETATM   15  C   UNL     1      -8.054   7.655  65.448  1.00  0.00    -0.128 A  
HETATM   16  N   UNL     1      -7.734   6.111  69.133  1.00  0.00    -0.098 N  
HETATM   17  O   UNL     1      -8.739   4.768  67.226  1.00  0.00    -0.105 OA 
HETATM   18  S   UNL     1      -7.739   5.788  67.462  1.00  0.00    -0.098 S  
HETATM   19  H   UNL     1      -6.922   6.004  69.742  1.00  0.00     0.000 HD 
HETATM   20  C   UNL     1      -8.334   7.293  66.773  1.00  0.00    -0.119 A  
HETATM   21  O   UNL     1      -6.360   5.608  67.067  1.00  0.00    -0.036 OA 
BRANCH  14  22
HETATM   22  C   UNL     1      -9.164   6.687  71.134  1.00  0.00    -0.159 C  
HETATM   23  C   UNL     1      -9.986   5.462  71.654  1.00  0.00    -0.239 C  
HETATM   24  C   UNL     1     -11.307   6.117  72.127  1.00  0.00    -0.347 C  
HETATM   25  C   UNL     1     -11.418   7.483  71.442  1.00  0.00    -0.291 C  
HETATM   26  C   UNL     1      -9.974   7.865  71.771  1.00  0.00    -0.228 C  
HETATM   27  C   UNL     1     -10.130   7.672  73.288  1.00  0.00    -0.393 C  
HETATM   28  C   UNL     1     -10.974   6.645  73.499  1.00  0.00    -0.114 C  
ENDBRANCH  14  22
ENDBRANCH   2   7
TORSDOF 2
ENDMDL
MODEL      112
REMARK 921   NORMALIZED FREE ENERGY PREDICTED BY IDOCK:   -3.93 KCAL/MOL
REMARK 922        TOTAL FREE ENERGY PREDICTED BY IDOCK:   -4.46 KCAL/MOL
REMARK 923 INTER-LIGAND FREE ENERGY PREDICTED BY IDOCK:   -4.64 KCAL/MOL
REMARK 924 INTRA-LIGAND FREE ENERGY PREDICTED BY IDOCK:    0.18 KCAL/MOL
REMARK 927      BINDING AFFINITY PREDICTED BY RF-SCORE:    0.00 PKD
ROOT
HETATM    1  N   UNL     1     -12.635  14.714  69.298  1.00  0.00    -0.556 N  
HETATM    2  S   UNL     1     -11.134  15.378  68.931  1.00  0.00    -0.296 S  
HETATM    3  H1  UNL     1     -12.425  13.902  69.878  1.00  0.00     0.000 HD 
HETATM    4  H2  UNL     1     -13.553  15.049  69.005  1.00  0.00     0.000 HD 
HETATM    5  O   UNL     1     -11.432  16.529  68.109  1.00  0.00    -0.251 OA 
HETATM    6  O   UNL     1     -10.404  15.491  70.169  1.00  0.00    -0.304 OA 
ENDROOT
BRANCH   2   7
HETATM    7  C   UNL     1     -10.384  14.141  67.924  1.00  0.00    -0.234 A  
HETATM    8  C   UNL     1     -11.037  13.652  66.790  1.00  0.00    -0.307 A  
HETATM    9  C   UNL     1     -10.403  12.699  65.993  1.00  0.00    -0.287 A  
HETATM   10 CL   UNL     1     -12.618  14.144  66.286  1.00  0.00    -0.411 Cl 
HETATM   11  C   UNL     1      -9.118  12.226  66.291  1.00  0.00    -0.125 A  
HETATM   12  N   UNL     1      -8.572  11.267  65.465  1.00  0.00    -0.376 NA 
HETATM   13  H   UNL     1      -9.131  10.958  64.669  1.00  0.00     0.000 HD 
HETATM   14  C   UNL     1      -7.266  10.666  65.638  1.00  0.00    -0.084 C  
HETATM   15  C   UNL     1      -9.123  13.628  68.281  1.00  0.00    -0.193 A  
HETATM   16  N   UNL     1      -7.023  10.443  67.053  1.00  0.00    -0.087 N  
HETATM   17  O   UNL     1      -5.930  12.721  67.310  1.00  0.00    -0.263 OA 
HETATM   18  S   UNL     1      -6.984  11.920  67.897  1.00  0.00    -0.094 S  
HETATM   19  H   UNL     1      -6.892   9.527  67.482  1.00  0.00     0.000 HD 
HETATM   20  C   UNL     1      -8.522  12.659  67.466  1.00  0.00    -0.176 A  
HETATM   21  O   UNL     1      -7.001  11.598  69.306  1.00  0.00    -0.110 OA 
BRANCH  14  22
HETATM   22  C   UNL     1      -7.123   9.366  64.770  1.00  0.00    -0.102 C  
HETATM   23  C   UNL     1      -8.562   8.871  64.409  1.00  0.00    -0.140 C  
HETATM   24  C   UNL     1      -8.682   7.559  65.223  1.00  0.00     0.043 C  
HETATM   25  C   UNL     1      -7.631   7.606  66.336  1.00  0.00    -0.088 C  
HETATM   26  C   UNL     1      -6.519   8.061  65.389  1.00  0.00    -0.048 C  
HETATM   27  C   UNL     1      -6.670   6.872  64.428  1.00  0.00    -0.046 C  
HETATM   28  C   UNL     1      -7.974   6.540  64.367  1.00  0.00    -0.103 C  
ENDBRANCH  14  22
ENDBRANCH   2   7
TORSDOF 2
ENDMDL
MODEL      113
REMARK 921   NORMALIZED FREE ENERGY PREDICTED BY IDOCK:   -3.90 KCAL/MOL
REMARK 922        TOTAL FREE ENERGY PREDICTED BY IDOCK:   -4.43 KCAL/MOL
REMARK 923 INTER-LIGAND FREE ENERGY PREDICTED BY IDOCK:   -4.33 KCAL/MOL
REMARK 924 INTRA-LIGAND FREE ENERGY PREDICTED BY IDOCK:   -0.10 KCAL/MOL
REMARK 927      BINDING AFFINITY PREDICTED BY RF-SCORE:    0.00 PKD
ROOT
HETATM    1  N   UNL     1      -9.622   4.485  62.656  1.00  0.00    -0.298 N  
HETATM    2  S   UNL     1      -8.250   5.058  63.442  1.00  0.00    -0.112 S  
HETATM    3  H1  UNL     1     -10.318   5.220  62.780  1.00  0.00     0.000 HD 
HETATM    4  H2  UNL     1      -9.733   3.598  62.164  1.00  0.00     0.000 HD 
HETATM    5  O   UNL     1      -7.264   4.017  63.267  1.00  0.00    -0.047 OA 
HETATM    6  O   UNL     1      -8.028   6.407  62.984  1.00  0.00    -0.104 OA 
ENDROOT
BRANCH   2   7
HETATM    7  C   UNL     1      -8.744   5.093  65.134  1.00  0.00    -0.151 A  
HETATM    8  C   UNL     1      -8.806   3.915  65.882  1.00  0.00    -0.125 A  
HETATM    9  C   UNL     1      -9.166   3.978  67.229  1.00  0.00    -0.187 A  
HETATM   10 CL   UNL     1      -8.471   2.338  65.252  1.00  0.00    -0.097 Cl 
HETATM   11  C   UNL     1      -9.454   5.197  67.859  1.00  0.00    -0.129 A  
HETATM   12  N   UNL     1      -9.823   5.169  69.186  1.00  0.00    -0.170 NA 
HETATM   13  H   UNL     1      -9.858   4.259  69.646  1.00  0.00     0.000 HD 
HETATM   14  C   UNL     1     -10.165   6.332  69.978  1.00  0.00    -0.188 C  
HETATM   15  C   UNL     1      -9.097   6.319  65.727  1.00  0.00    -0.039 A  
HETATM   16  N   UNL     1     -10.931   7.261  69.165  1.00  0.00    -0.414 N  
HETATM   17  O   UNL     1      -8.829   8.474  68.419  1.00  0.00    -0.138 OA 
HETATM   18  S   UNL     1      -9.998   7.829  67.860  1.00  0.00    -0.181 S  
HETATM   19  H   UNL     1     -11.896   7.535  69.350  1.00  0.00     0.000 HD 
HETATM   20  C   UNL     1      -9.469   6.344  67.079  1.00  0.00    -0.139 A  
HETATM   21  O   UNL     1     -10.900   8.526  66.972  1.00  0.00    -0.211 OA 
BRANCH  14  22
HETATM   22  C   UNL     1     -10.896   5.918  71.304  1.00  0.00    -0.333 C  
HETATM   23  C   UNL     1     -10.819   7.129  72.291  1.00  0.00    -0.264 C  
HETATM   24  C   UNL     1      -9.865   6.607  73.394  1.00  0.00    -0.215 C  
HETATM   25  C   UNL     1      -9.071   5.438  72.804  1.00  0.00    -0.133 C  
HETATM   26  C   UNL     1     -10.315   4.778  72.206  1.00  0.00    -0.264 C  
HETATM   27  C   UNL     1     -11.071   4.690  73.541  1.00  0.00    -0.412 C  
HETATM   28  C   UNL     1     -10.760   5.774  74.276  1.00  0.00     0.020 C  
ENDBRANCH  14  22
ENDBRANCH   2   7
TORSDOF 2
ENDMDL
MODEL      114
REMARK 921   NORMALIZED FREE ENERGY PREDICTED BY IDOCK:   -3.90 KCAL/MOL
REMARK 922        TOTAL FREE ENERGY PREDICTED BY IDOCK:   -4.43 KCAL/MOL
REMARK 923 INTER-LIGAND FREE ENERGY PREDICTED BY IDOCK:   -4.13 KCAL/MOL
REMARK 924 INTRA-LIGAND FREE ENERGY PREDICTED BY IDOCK:   -0.30 KCAL/MOL
REMARK 927      BINDING AFFINITY PREDICTED BY RF-SCORE:    0.00 PKD
ROOT
HETATM    1  N   UNL     1      -7.208   5.371  62.421  1.00  0.00    -0.043 N  
HETATM    2  S   UNL     1      -8.165   4.636  63.593  1.00  0.00    -0.114 S  
HETATM    3  H1  UNL     1      -6.330   5.579  62.896  1.00  0.00     0.000 HD 
HETATM    4  H2  UNL     1      -7.453   5.564  61.450  1.00  0.00     0.000 HD 
HETATM    5  O   UNL     1      -9.409   4.341  62.920  1.00  0.00    -0.131 OA 
HETATM    6  O   UNL     1      -7.367   3.607  64.211  1.00  0.00    -0.064 OA 
ENDROOT
BRANCH   2   7
HETATM    7  C   UNL     1      -8.442   5.934  64.754  1.00  0.00    -0.054 A  
HETATM    8  C   UNL     1      -9.220   5.716  65.894  1.00  0.00    -0.132 A  
HETATM    9  C   UNL     1      -9.391   6.752  66.812  1.00  0.00    -0.189 A  
HETATM   10 CL   UNL     1     -10.016   4.225  66.263  1.00  0.00    -0.238 Cl 
HETATM   11  C   UNL     1      -8.792   8.006  66.630  1.00  0.00    -0.145 A  
HETATM   12  N   UNL     1      -9.031   8.982  67.574  1.00  0.00    -0.123 NA 
HETATM   13  H   UNL     1      -9.627   8.736  68.365  1.00  0.00     0.000 HD 
HETATM   14  C   UNL     1      -8.501  10.328  67.529  1.00  0.00    -0.118 C  
HETATM   15  C   UNL     1      -7.889   7.205  64.516  1.00  0.00    -0.121 A  
HETATM   16  N   UNL     1      -8.517  10.807  66.158  1.00  0.00    -0.163 N  
HETATM   17  O   UNL     1      -6.166   9.944  65.739  1.00  0.00    -0.071 OA 
HETATM   18  S   UNL     1      -7.498   9.861  65.178  1.00  0.00    -0.138 S  
HETATM   19  H   UNL     1      -9.064  11.602  65.828  1.00  0.00     0.000 HD 
HETATM   20  C   UNL     1      -8.095   8.228  65.452  1.00  0.00    -0.135 A  
HETATM   21  O   UNL     1      -7.772  10.232  63.808  1.00  0.00    -0.147 OA 
BRANCH  14  22
HETATM   22  C   UNL     1      -9.266  11.270  68.526  1.00  0.00    -0.181 C  
HETATM   23  C   UNL     1     -10.023  10.365  69.552  1.00  0.00    -0.229 C  
HETATM   24  C   UNL     1     -11.508  10.599  69.178  1.00  0.00    -0.349 C  
HETATM   25  C   UNL     1     -11.544  11.151  67.750  1.00  0.00    -0.303 C  
HETATM   26  C   UNL     1     -10.440  12.174  68.021  1.00  0.00    -0.227 C  
HETATM   27  C   UNL     1     -11.167  12.843  69.197  1.00  0.00    -0.293 C  
HETATM   28  C   UNL     1     -11.851  11.895  69.866  1.00  0.00    -0.418 C  
ENDBRANCH  14  22
ENDBRANCH   2   7
TORSDOF 2
ENDMDL
MODEL      115
REMARK 921   NORMALIZED FREE ENERGY PREDICTED BY IDOCK:   -3.82 KCAL/MOL
REMARK 922        TOTAL FREE ENERGY PREDICTED BY IDOCK:   -4.34 KCAL/MOL
REMARK 923 INTER-LIGAND FREE ENERGY PREDICTED BY IDOCK:   -4.20 KCAL/MOL
REMARK 924 INTRA-LIGAND FREE ENERGY PREDICTED BY IDOCK:   -0.14 KCAL/MOL
REMARK 927      BINDING AFFINITY PREDICTED BY RF-SCORE:    0.00 PKD
ROOT
HETATM    1  N   UNL     1     -10.369  13.408  69.103  1.00  0.00    -0.431 N  
HETATM    2  S   UNL     1     -11.292  12.401  68.122  1.00  0.00    -0.315 S  
HETATM    3  H1  UNL     1      -9.404  13.141  68.913  1.00  0.00     0.000 HD 
HETATM    4  H2  UNL     1     -10.702  14.127  69.745  1.00  0.00     0.000 HD 
HETATM    5  O   UNL     1     -12.661  12.779  68.390  1.00  0.00     0.305 OA 
HETATM    6  O   UNL     1     -10.728  12.463  66.796  1.00  0.00    -0.228 OA 
ENDROOT
BRANCH   2   7
HETATM    7  C   UNL     1     -11.002  10.802  68.804  1.00  0.00    -0.247 A  
HETATM    8  C   UNL     1     -11.568  10.435  70.027  1.00  0.00    -0.301 A  
HETATM    9  C   UNL     1     -11.348   9.150  70.524  1.00  0.00    -0.300 A  
HETATM   10 CL   UNL     1     -12.540  11.480  71.006  1.00  0.00    -0.484 Cl 
HETATM   11  C   UNL     1     -10.585   8.208  69.822  1.00  0.00    -0.231 A  
HETATM   12  N   UNL     1     -10.398   6.968  70.394  1.00  0.00    -0.200 NA 
HETATM   13  H   UNL     1     -10.836   6.797  71.300  1.00  0.00     0.000 HD 
HETATM   14  C   UNL     1      -9.629   5.890  69.809  1.00  0.00    -0.153 C  
HETATM   15  C   UNL     1     -10.174   9.896  68.116  1.00  0.00    -0.210 A  
HETATM   16  N   UNL     1      -8.445   6.436  69.168  1.00  0.00    -0.121 N  
HETATM   17  O   UNL     1      -9.656   6.681  66.949  1.00  0.00    -0.146 OA 
HETATM   18  S   UNL     1      -8.877   7.465  67.884  1.00  0.00    -0.132 S  
HETATM   19  H   UNL     1      -7.486   6.230  69.449  1.00  0.00     0.000 HD 
HETATM   20  C   UNL     1      -9.962   8.618  68.652  1.00  0.00    -0.183 A  
HETATM   21  O   UNL     1      -7.674   8.157  67.480  1.00  0.00    -0.099 OA 
BRANCH  14  22
HETATM   22  C   UNL     1      -9.305   4.784  70.875  1.00  0.00    -0.209 C  
HETATM   23  C   UNL     1      -7.765   4.515  70.833  1.00  0.00    -0.064 C  
HETATM   24  C   UNL     1      -7.688   3.084  70.245  1.00  0.00    -0.043 C  
HETATM   25  C   UNL     1      -9.015   2.803  69.534  1.00  0.00    -0.170 C  
HETATM   26  C   UNL     1      -9.854   3.329  70.700  1.00  0.00    -0.033 C  
HETATM   27  C   UNL     1      -9.243   2.378  71.741  1.00  0.00    -0.165 C  
HETATM   28  C   UNL     1      -7.945   2.195  71.435  1.00  0.00    -0.040 C  
ENDBRANCH  14  22
ENDBRANCH   2   7
TORSDOF 2
ENDMDL
MODEL      116
REMARK 921   NORMALIZED FREE ENERGY PREDICTED BY IDOCK:   -3.71 KCAL/MOL
REMARK 922        TOTAL FREE ENERGY PREDICTED BY IDOCK:   -4.22 KCAL/MOL
REMARK 923 INTER-LIGAND FREE ENERGY PREDICTED BY IDOCK:   -4.19 KCAL/MOL
REMARK 924 INTRA-LIGAND FREE ENERGY PREDICTED BY IDOCK:   -0.02 KCAL/MOL
REMARK 927      BINDING AFFINITY PREDICTED BY RF-SCORE:    0.00 PKD
ROOT
HETATM    1  N   UNL     1     -11.341   7.922  72.359  1.00  0.00    -0.341 N  
HETATM    2  S   UNL     1     -10.750   7.442  70.859  1.00  0.00    -0.239 S  
HETATM    3  H1  UNL     1     -12.207   8.418  72.150  1.00  0.00     0.000 HD 
HETATM    4  H2  UNL     1     -10.925   7.753  73.275  1.00  0.00     0.000 HD 
HETATM    5  O   UNL     1      -9.523   6.739  71.155  1.00  0.00    -0.163 OA 
HETATM    6  O   UNL     1     -11.840   6.816  70.152  1.00  0.00    -0.349 OA 
ENDROOT
BRANCH   2   7
HETATM    7  C   UNL     1     -10.353   8.972  70.078  1.00  0.00    -0.206 A  
HETATM    8  C   UNL     1     -11.250  10.041  70.108  1.00  0.00    -0.304 A  
HETATM    9  C   UNL     1     -10.892  11.251  69.511  1.00  0.00    -0.207 A  
HETATM   10 CL   UNL     1     -12.817   9.982  70.839  1.00  0.00    -0.419 Cl 
HETATM   11  C   UNL     1      -9.648  11.428  68.892  1.00  0.00    -0.073 A  
HETATM   12  N   UNL     1      -9.383  12.647  68.307  1.00  0.00    -0.245 NA 
HETATM   13  H   UNL     1     -10.106  13.364  68.364  1.00  0.00     0.000 HD 
HETATM   14  C   UNL     1      -8.155  12.989  67.618  1.00  0.00    -0.172 C  
HETATM   15  C   UNL     1      -9.126   9.105  69.401  1.00  0.00    -0.148 A  
HETATM   16  N   UNL     1      -7.701  11.845  66.847  1.00  0.00    -0.280 N  
HETATM   17  O   UNL     1      -6.295  10.992  68.781  1.00  0.00    -0.046 OA 
HETATM   18  S   UNL     1      -7.326  10.539  67.871  1.00  0.00    -0.090 S  
HETATM   19  H   UNL     1      -7.618  11.827  65.830  1.00  0.00     0.000 HD 
HETATM   20  C   UNL     1      -8.806  10.330  68.799  1.00  0.00    -0.148 A  
HETATM   21  O   UNL     1      -7.140   9.383  67.024  1.00  0.00    -0.084 OA 
BRANCH  14  22
HETATM   22  C   UNL     1      -8.335  14.289  66.757  1.00  0.00     0.027 C  
HETATM   23  C   UNL     1      -7.004  15.106  66.842  1.00  0.00     0.485 C  
HETATM   24  C   UNL     1      -7.422  16.350  67.665  1.00  0.00    -0.153 C  
HETATM   25  C   UNL     1      -8.709  15.996  68.417  1.00  0.00    -0.186 C  
HETATM   26  C   UNL     1      -9.369  15.385  67.180  1.00  0.00    -0.225 C  
HETATM   27  C   UNL     1      -9.223  16.647  66.316  1.00  0.00    -0.328 C  
HETATM   28  C   UNL     1      -8.067  17.253  66.646  1.00  0.00    -0.300 C  
ENDBRANCH  14  22
ENDBRANCH   2   7
TORSDOF 2
ENDMDL
MODEL      117
REMARK 921   NORMALIZED FREE ENERGY PREDICTED BY IDOCK:   -3.68 KCAL/MOL
REMARK 922        TOTAL FREE ENERGY PREDICTED BY IDOCK:   -4.18 KCAL/MOL
REMARK 923 INTER-LIGAND FREE ENERGY PREDICTED BY IDOCK:   -4.44 KCAL/MOL
REMARK 924 INTRA-LIGAND FREE ENERGY PREDICTED BY IDOCK:    0.26 KCAL/MOL
REMARK 927      BINDING AFFINITY PREDICTED BY RF-SCORE:    0.00 PKD
ROOT
HETATM    1  N   UNL     1      -8.167   5.943  70.075  1.00  0.00    -0.118 N  
HETATM    2  S   UNL     1      -9.190   6.225  68.770  1.00  0.00    -0.124 S  
HETATM    3  H1  UNL     1      -8.621   6.402  70.864  1.00  0.00     0.000 HD 
HETATM    4  H2  UNL     1      -7.288   5.426  70.077  1.00  0.00     0.000 HD 
HETATM    5  O   UNL     1      -8.547   5.574  67.652  1.00  0.00    -0.109 OA 
HETATM    6  O   UNL     1     -10.525   5.880  69.192  1.00  0.00    -0.213 OA 
ENDROOT
BRANCH   2   7
HETATM    7  C   UNL     1      -9.083   7.971  68.548  1.00  0.00    -0.136 A  
HETATM    8  C   UNL     1      -7.868   8.573  68.213  1.00  0.00    -0.106 A  
HETATM    9  C   UNL     1      -7.823   9.953  68.009  1.00  0.00    -0.086 A  
HETATM   10 CL   UNL     1      -6.373   7.722  68.033  1.00  0.00    -0.049 Cl 
HETATM   11  C   UNL     1      -8.968  10.753  68.119  1.00  0.00    -0.140 A  
HETATM   12  N   UNL     1      -8.832  12.110  67.924  1.00  0.00    -0.169 NA 
HETATM   13  H   UNL     1      -7.901  12.463  67.699  1.00  0.00     0.000 HD 
HETATM   14  C   UNL     1      -9.908  13.075  68.013  1.00  0.00    -0.224 C  
HETATM   15  C   UNL     1     -10.231   8.763  68.733  1.00  0.00    -0.224 A  
HETATM   16  N   UNL     1     -10.788  12.715  69.111  1.00  0.00    -0.426 N  
HETATM   17  O   UNL     1     -12.261  11.318  67.585  1.00  0.00    -0.423 OA 
HETATM   18  S   UNL     1     -11.522  11.206  68.825  1.00  0.00    -0.328 S  
HETATM   19  H   UNL     1     -10.946  13.288  69.940  1.00  0.00     0.000 HD 
HETATM   20  C   UNL     1     -10.145  10.149  68.535  1.00  0.00    -0.169 A  
HETATM   21  O   UNL     1     -12.161  10.810  70.059  1.00  0.00    -0.302 OA 
BRANCH  14  22
HETATM   22  C   UNL     1      -9.349  14.538  68.118  1.00  0.00    -0.197 C  
HETATM   23  C   UNL     1      -8.232  14.701  67.035  1.00  0.00    -0.188 C  
HETATM   24  C   UNL     1      -6.946  14.819  67.890  1.00  0.00    -0.173 C  
HETATM   25  C   UNL     1      -7.255  14.239  69.273  1.00  0.00    -0.083 C  
HETATM   26  C   UNL     1      -8.575  15.001  69.397  1.00  0.00    -0.121 C  
HETATM   27  C   UNL     1      -7.946  16.387  69.192  1.00  0.00    -0.204 C  
HETATM   28  C   UNL     1      -6.931  16.265  68.316  1.00  0.00    -0.130 C  
ENDBRANCH  14  22
ENDBRANCH   2   7
TORSDOF 2
ENDMDL
MODEL      118
REMARK 921   NORMALIZED FREE ENERGY PREDICTED BY IDOCK:   -3.64 KCAL/MOL
REMARK 922        TOTAL FREE ENERGY PREDICTED BY IDOCK:   -4.13 KCAL/MOL
REMARK 923 INTER-LIGAND FREE ENERGY PREDICTED BY IDOCK:   -4.26 KCAL/MOL
REMARK 924 INTRA-LIGAND FREE ENERGY PREDICTED BY IDOCK:    0.13 KCAL/MOL
REMARK 927      BINDING AFFINITY PREDICTED BY RF-SCORE:    0.00 PKD
ROOT
HETATM    1  N   UNL     1      -9.557  12.670  68.470  1.00  0.00    -0.374 N  
HETATM    2  S   UNL     1      -8.045  11.960  68.273  1.00  0.00    -0.158 S  
HETATM    3  H1  UNL     1      -9.586  12.952  69.449  1.00  0.00     0.000 HD 
HETATM    4  H2  UNL     1     -10.284  12.793  67.764  1.00  0.00     0.000 HD 
HETATM    5  O   UNL     1      -8.004  11.561  66.885  1.00  0.00    -0.154 OA 
HETATM    6  O   UNL     1      -7.073  12.863  68.838  1.00  0.00    -0.097 OA 
ENDROOT
BRANCH   2   7
HETATM    7  C   UNL     1      -8.149  10.514  69.276  1.00  0.00    -0.148 A  
HETATM    8  C   UNL     1      -7.135  10.203  70.184  1.00  0.00    -0.157 A  
HETATM    9  C   UNL     1      -7.262   9.070  70.990  1.00  0.00    -0.114 A  
HETATM   10 CL   UNL     1      -5.689  11.132  70.391  1.00  0.00    -0.123 Cl 
HETATM   11  C   UNL     1      -8.389   8.240  70.922  1.00  0.00    -0.130 A  
HETATM   12  N   UNL     1      -8.425   7.129  71.736  1.00  0.00    -0.113 NA 
HETATM   13  H   UNL     1      -7.630   6.973  72.356  1.00  0.00     0.000 HD 
HETATM   14  C   UNL     1      -9.506   6.166  71.780  1.00  0.00    -0.150 C  
HETATM   15  C   UNL     1      -9.256   9.657  69.141  1.00  0.00    -0.168 A  
HETATM   16  N   UNL     1     -10.002   5.936  70.434  1.00  0.00    -0.184 N  
HETATM   17  O   UNL     1     -11.731   7.781  70.665  1.00  0.00    -0.266 OA 
HETATM   18  S   UNL     1     -10.661   7.364  69.784  1.00  0.00    -0.237 S  
HETATM   19  H   UNL     1      -9.961   5.042  69.946  1.00  0.00     0.000 HD 
HETATM   20  C   UNL     1      -9.344   8.518  69.955  1.00  0.00    -0.163 A  
HETATM   21  O   UNL     1     -10.885   7.119  68.377  1.00  0.00    -0.178 OA 
BRANCH  14  22
HETATM   22  C   UNL     1      -9.061   4.851  72.512  1.00  0.00    -0.145 C  
HETATM   23  C   UNL     1      -9.978   3.689  72.007  1.00  0.00    -0.232 C  
HETATM   24  C   UNL     1     -10.822   3.354  73.261  1.00  0.00    -0.287 C  
HETATM   25  C   UNL     1     -10.759   4.564  74.199  1.00  0.00    -0.319 C  
HETATM   26  C   UNL     1      -9.242   4.705  74.060  1.00  0.00    -0.114 C  
HETATM   27  C   UNL     1      -8.935   3.271  74.520  1.00  0.00    -0.098 C  
HETATM   28  C   UNL     1      -9.918   2.465  74.075  1.00  0.00    -0.149 C  
ENDBRANCH  14  22
ENDBRANCH   2   7
TORSDOF 2
ENDMDL
MODEL      119
REMARK 921   NORMALIZED FREE ENERGY PREDICTED BY IDOCK:   -3.61 KCAL/MOL
REMARK 922        TOTAL FREE ENERGY PREDICTED BY IDOCK:   -4.10 KCAL/MOL
REMARK 923 INTER-LIGAND FREE ENERGY PREDICTED BY IDOCK:   -4.02 KCAL/MOL
REMARK 924 INTRA-LIGAND FREE ENERGY PREDICTED BY IDOCK:   -0.07 KCAL/MOL
REMARK 927      BINDING AFFINITY PREDICTED BY RF-SCORE:    0.00 PKD
ROOT
HETATM    1  N   UNL     1      -7.962  11.802  66.282  1.00  0.00    -0.383 N  
HETATM    2  S   UNL     1      -7.750  12.065  67.929  1.00  0.00    -0.146 S  
HETATM    3  H1  UNL     1      -8.968  11.681  66.165  1.00  0.00     0.000 HD 
HETATM    4  H2  UNL     1      -7.243  11.771  65.558  1.00  0.00     0.000 HD 
HETATM    5  O   UNL     1      -6.325  12.236  68.094  1.00  0.00    -0.054 OA 
HETATM    6  O   UNL     1      -8.693  13.081  68.323  1.00  0.00    -0.186 OA 
ENDROOT
BRANCH   2   7
HETATM    7  C   UNL     1      -8.222  10.524  68.644  1.00  0.00    -0.130 A  
HETATM    8  C   UNL     1      -7.423   9.390  68.485  1.00  0.00    -0.080 A  
HETATM    9  C   UNL     1      -7.805   8.193  69.093  1.00  0.00    -0.107 A  
HETATM   10 CL   UNL     1      -5.959   9.348  67.563  1.00  0.00    -0.048 Cl 
HETATM   11  C   UNL     1      -8.965   8.100  69.872  1.00  0.00    -0.143 A  
HETATM   12  N   UNL     1      -9.282   6.875  70.419  1.00  0.00    -0.156 NA 
HETATM   13  H   UNL     1      -8.647   6.098  70.234  1.00  0.00     0.000 HD 
HETATM   14  C   UNL     1     -10.448   6.606  71.235  1.00  0.00    -0.215 C  
HETATM   15  C   UNL     1      -9.428  10.436  69.364  1.00  0.00    -0.204 A  
HETATM   16  N   UNL     1     -11.586   7.336  70.705  1.00  0.00    -0.347 N  
HETATM   17  O   UNL     1     -11.100   9.339  72.187  1.00  0.00    -0.247 OA 
HETATM   18  S   UNL     1     -11.319   9.014  70.793  1.00  0.00    -0.282 S  
HETATM   19  H   UNL     1     -12.431   6.902  70.331  1.00  0.00     0.000 HD 
HETATM   20  C   UNL     1      -9.789   9.213  69.948  1.00  0.00    -0.190 A  
HETATM   21  O   UNL     1     -12.364   9.645  70.020  1.00  0.00     0.131 OA 
BRANCH  14  22
HETATM   22  C   UNL     1     -10.703   5.062  71.363  1.00  0.00    -0.099 C  
HETATM   23  C   UNL     1     -11.085   4.762  72.849  1.00  0.00    -0.301 C  
HETATM   24  C   UNL     1      -9.859   3.965  73.360  1.00  0.00    -0.161 C  
HETATM   25  C   UNL     1      -8.689   4.261  72.417  1.00  0.00    -0.117 C  
HETATM   26  C   UNL     1      -9.531   4.045  71.158  1.00  0.00    -0.230 C  
HETATM   27  C   UNL     1      -9.964   2.619  71.535  1.00  0.00    -0.115 C  
HETATM   28  C   UNL     1     -10.116   2.562  72.872  1.00  0.00    -0.213 C  
ENDBRANCH  14  22
ENDBRANCH   2   7
TORSDOF 2
ENDMDL
MODEL      120
REMARK 921   NORMALIZED FREE ENERGY PREDICTED BY IDOCK:   -3.60 KCAL/MOL
REMARK 922        TOTAL FREE ENERGY PREDICTED BY IDOCK:   -4.09 KCAL/MOL
REMARK 923 INTER-LIGAND FREE ENERGY PREDICTED BY IDOCK:   -3.92 KCAL/MOL
REMARK 924 INTRA-LIGAND FREE ENERGY PREDICTED BY IDOCK:   -0.17 KCAL/MOL
REMARK 927      BINDING AFFINITY PREDICTED BY RF-SCORE:    0.00 PKD
ROOT
HETATM    1  N   UNL     1     -11.856   8.014  72.854  1.00  0.00    -0.587 N  
HETATM    2  S   UNL     1     -12.217   8.881  71.458  1.00  0.00    -0.344 S  
HETATM    3  H1  UNL     1     -10.919   8.320  73.114  1.00  0.00     0.000 HD 
HETATM    4  H2  UNL     1     -12.445   7.333  73.334  1.00  0.00     0.000 HD 
HETATM    5  O   UNL     1     -13.545   8.447  71.089  1.00  0.00    -0.166 OA 
HETATM    6  O   UNL     1     -11.911  10.264  71.724  1.00  0.00    -0.215 OA 
ENDROOT
BRANCH   2   7
HETATM    7  C   UNL     1     -11.066   8.245  70.284  1.00  0.00    -0.219 A  
HETATM    8  C   UNL     1     -10.765   8.960  69.122  1.00  0.00    -0.143 A  
HETATM    9  C   UNL     1      -9.824   8.448  68.228  1.00  0.00    -0.189 A  
HETATM   10 CL   UNL     1     -11.494  10.468  68.687  1.00  0.00    -0.316 Cl 
HETATM   11  C   UNL     1      -9.159   7.238  68.471  1.00  0.00    -0.136 A  
HETATM   12  N   UNL     1      -8.260   6.792  67.526  1.00  0.00    -0.121 NA 
HETATM   13  H   UNL     1      -8.118   7.374  66.700  1.00  0.00     0.000 HD 
HETATM   14  C   UNL     1      -7.502   5.562  67.616  1.00  0.00    -0.081 C  
HETATM   15  C   UNL     1     -10.463   6.995  70.513  1.00  0.00    -0.227 A  
HETATM   16  N   UNL     1      -8.341   4.519  68.181  1.00  0.00    -0.094 N  
HETATM   17  O   UNL     1      -7.587   5.074  70.542  1.00  0.00    -0.066 OA 
HETATM   18  S   UNL     1      -8.802   4.913  69.771  1.00  0.00    -0.100 S  
HETATM   19  H   UNL     1      -8.616   3.667  67.692  1.00  0.00     0.000 HD 
HETATM   20  C   UNL     1      -9.533   6.503  69.586  1.00  0.00    -0.145 A  
HETATM   21  O   UNL     1      -9.828   3.971  70.155  1.00  0.00    -0.210 OA 
BRANCH  14  22
HETATM   22  C   UNL     1      -6.883   5.177  66.226  1.00  0.00    -0.058 C  
HETATM   23  C   UNL     1      -7.216   6.327  65.219  1.00  0.00    -0.070 C  
HETATM   24  C   UNL     1      -8.220   5.650  64.253  1.00  0.00    -0.117 C  
HETATM   25  C   UNL     1      -8.795   4.423  64.967  1.00  0.00    -0.141 C  
HETATM   26  C   UNL     1      -7.421   3.939  65.434  1.00  0.00    -0.081 C  
HETATM   27  C   UNL     1      -6.817   3.881  64.022  1.00  0.00    -0.045 C  
HETATM   28  C   UNL     1      -7.338   4.888  63.297  1.00  0.00    -0.049 C  
ENDBRANCH  14  22
ENDBRANCH   2   7
TORSDOF 2
ENDMDL
MODEL      121
REMARK 921   NORMALIZED FREE ENERGY PREDICTED BY IDOCK:   -3.56 KCAL/MOL
REMARK 922        TOTAL FREE ENERGY PREDICTED BY IDOCK:   -4.05 KCAL/MOL
REMARK 923 INTER-LIGAND FREE ENERGY PREDICTED BY IDOCK:   -4.03 KCAL/MOL
REMARK 924 INTRA-LIGAND FREE ENERGY PREDICTED BY IDOCK:   -0.02 KCAL/MOL
REMARK 927      BINDING AFFINITY PREDICTED BY RF-SCORE:    0.00 PKD
ROOT
HETATM    1  N   UNL     1     -10.978  17.731  67.031  1.00  0.00    -0.062 N  
HETATM    2  S   UNL     1     -10.569  16.804  68.374  1.00  0.00    -0.370 S  
HETATM    3  H1  UNL     1     -11.835  17.307  66.675  1.00  0.00     0.000 HD 
HETATM    4  H2  UNL     1     -10.480  18.538  66.657  1.00  0.00     0.000 HD 
HETATM    5  O   UNL     1      -9.356  17.405  68.879  1.00  0.00    -0.258 OA 
HETATM    6  O   UNL     1     -11.755  16.680  69.184  1.00  0.00    -0.012 OA 
ENDROOT
BRANCH   2   7
HETATM    7  C   UNL     1     -10.177  15.235  67.673  1.00  0.00    -0.242 A  
HETATM    8  C   UNL     1      -9.359  15.144  66.544  1.00  0.00    -0.280 A  
HETATM    9  C   UNL     1      -9.037  13.886  66.033  1.00  0.00     0.179 A  
HETATM   10 CL   UNL     1      -8.703  16.505  65.700  1.00  0.00     0.117 Cl 
HETATM   11  C   UNL     1      -9.501  12.706  66.630  1.00  0.00    -0.244 A  
HETATM   12  N   UNL     1      -9.155  11.506  66.049  1.00  0.00    -0.227 NA 
HETATM   13  H   UNL     1      -8.568  11.538  65.215  1.00  0.00     0.000 HD 
HETATM   14  C   UNL     1      -9.560  10.202  66.531  1.00  0.00    -0.187 C  
HETATM   15  C   UNL     1     -10.711  14.067  68.247  1.00  0.00    -0.262 A  
HETATM   16  N   UNL     1     -10.935  10.266  66.996  1.00  0.00    -0.181 N  
HETATM   17  O   UNL     1     -10.199  10.833  69.359  1.00  0.00    -0.217 OA 
HETATM   18  S   UNL     1     -11.075  11.328  68.318  1.00  0.00    -0.266 S  
HETATM   19  H   UNL     1     -11.711   9.745  66.586  1.00  0.00     0.000 HD 
HETATM   20  C   UNL     1     -10.380  12.821  67.698  1.00  0.00    -0.221 A  
HETATM   21  O   UNL     1     -12.487  11.531  68.544  1.00  0.00    -0.328 OA 
BRANCH  14  22
HETATM   22  C   UNL     1      -9.323   9.098  65.441  1.00  0.00    -0.258 C  
HETATM   23  C   UNL     1      -9.131   7.731  66.178  1.00  0.00    -0.199 C  
HETATM   24  C   UNL     1      -7.636   7.416  65.922  1.00  0.00    -0.089 C  
HETATM   25  C   UNL     1      -6.944   8.730  65.546  1.00  0.00    -0.076 C  
HETATM   26  C   UNL     1      -8.035   9.126  64.551  1.00  0.00    -0.127 C  
HETATM   27  C   UNL     1      -7.916   7.845  63.710  1.00  0.00    -0.119 C  
HETATM   28  C   UNL     1      -7.628   6.822  64.537  1.00  0.00    -0.103 C  
ENDBRANCH  14  22
ENDBRANCH   2   7
TORSDOF 2
ENDMDL
MODEL      122
REMARK 921   NORMALIZED FREE ENERGY PREDICTED BY IDOCK:   -3.55 KCAL/MOL
REMARK 922        TOTAL FREE ENERGY PREDICTED BY IDOCK:   -4.03 KCAL/MOL
REMARK 923 INTER-LIGAND FREE ENERGY PREDICTED BY IDOCK:   -4.45 KCAL/MOL
REMARK 924 INTRA-LIGAND FREE ENERGY PREDICTED BY IDOCK:    0.42 KCAL/MOL
REMARK 927      BINDING AFFINITY PREDICTED BY RF-SCORE:    0.00 PKD
ROOT
HETATM    1  N   UNL     1      -9.728  10.419  66.616  1.00  0.00    -0.183 N  
HETATM    2  S   UNL     1     -11.263  11.104  66.664  1.00  0.00     0.003 S  
HETATM    3  H1  UNL     1      -9.378  10.501  67.570  1.00  0.00     0.000 HD 
HETATM    4  H2  UNL     1      -9.253  10.011  65.811  1.00  0.00     0.000 HD 
HETATM    5  O   UNL     1     -11.760  10.988  65.312  1.00  0.00     0.318 OA 
HETATM    6  O   UNL     1     -11.956  10.521  67.785  1.00  0.00    -0.226 OA 
ENDROOT
BRANCH   2   7
HETATM    7  C   UNL     1     -10.933  12.802  67.003  1.00  0.00    -0.263 A  
HETATM    8  C   UNL     1     -10.275  13.602  66.065  1.00  0.00    -0.307 A  
HETATM    9  C   UNL     1     -10.059  14.951  66.347  1.00  0.00    -0.296 A  
HETATM   10 CL   UNL     1      -9.683  13.033  64.541  1.00  0.00     0.024 Cl 
HETATM   11  C   UNL     1     -10.498  15.533  67.545  1.00  0.00    -0.282 A  
HETATM   12  N   UNL     1     -10.225  16.867  67.755  1.00  0.00    -0.296 NA 
HETATM   13  H   UNL     1      -9.723  17.367  67.020  1.00  0.00     0.000 HD 
HETATM   14  C   UNL     1     -10.595  17.615  68.938  1.00  0.00    -0.139 C  
HETATM   15  C   UNL     1     -11.319  13.349  68.240  1.00  0.00    -0.330 A  
HETATM   16  N   UNL     1     -10.419  16.777  70.112  1.00  0.00     0.037 N  
HETATM   17  O   UNL     1     -12.812  15.940  69.979  1.00  0.00    -0.217 OA 
HETATM   18  S   UNL     1     -11.459  15.432  70.053  1.00  0.00    -0.348 S  
HETATM   19  H   UNL     1      -9.762  16.969  70.868  1.00  0.00     0.000 HD 
HETATM   20  C   UNL     1     -11.073  14.705  68.498  1.00  0.00    -0.260 A  
HETATM   21  O   UNL     1     -11.040  14.532  71.103  1.00  0.00     0.038 OA 
BRANCH  14  22
HETATM   22  C   UNL     1      -9.809  18.971  69.018  1.00  0.00    -0.408 C  
HETATM   23  C   UNL     1     -10.402  19.932  67.936  1.00  0.00    -0.545 C  
HETATM   24  C   UNL     1      -9.244  20.046  66.913  1.00  0.00    -0.497 C  
HETATM   25  C   UNL     1      -8.315  18.848  67.131  1.00  0.00    -0.288 C  
HETATM   26  C   UNL     1      -8.289  19.030  68.650  1.00  0.00    -0.397 C  
HETATM   27  C   UNL     1      -7.787  20.481  68.599  1.00  0.00     0.392 C  
HETATM   28  C   UNL     1      -8.330  21.079  67.521  1.00  0.00     0.023 C  
ENDBRANCH  14  22
ENDBRANCH   2   7
TORSDOF 2
ENDMDL
MODEL      123
REMARK 921   NORMALIZED FREE ENERGY PREDICTED BY IDOCK:   -3.54 KCAL/MOL
REMARK 922        TOTAL FREE ENERGY PREDICTED BY IDOCK:   -4.02 KCAL/MOL
REMARK 923 INTER-LIGAND FREE ENERGY PREDICTED BY IDOCK:   -3.86 KCAL/MOL
REMARK 924 INTRA-LIGAND FREE ENERGY PREDICTED BY IDOCK:   -0.16 KCAL/MOL
REMARK 927      BINDING AFFINITY PREDICTED BY RF-SCORE:    0.00 PKD
ROOT
HETATM    1  N   UNL     1     -12.371   7.116  71.965  1.00  0.00    -0.440 N  
HETATM    2  S   UNL     1     -11.098   8.210  71.856  1.00  0.00    -0.308 S  
HETATM    3  H1  UNL     1     -11.924   6.215  72.131  1.00  0.00     0.000 HD 
HETATM    4  H2  UNL     1     -13.369   7.311  71.884  1.00  0.00     0.000 HD 
HETATM    5  O   UNL     1     -11.732   9.488  71.621  1.00  0.00    -0.370 OA 
HETATM    6  O   UNL     1     -10.239   7.980  72.991  1.00  0.00    -0.315 OA 
ENDROOT
BRANCH   2   7
HETATM    7  C   UNL     1     -10.266   7.711  70.385  1.00  0.00    -0.203 A  
HETATM    8  C   UNL     1      -9.873   6.382  70.204  1.00  0.00    -0.167 A  
HETATM    9  C   UNL     1      -9.248   6.010  69.014  1.00  0.00    -0.125 A  
HETATM   10 CL   UNL     1     -10.101   5.129  71.376  1.00  0.00    -0.255 Cl 
HETATM   11  C   UNL     1      -9.014   6.931  67.984  1.00  0.00    -0.121 A  
HETATM   12  N   UNL     1      -8.370   6.486  66.850  1.00  0.00    -0.112 NA 
HETATM   13  H   UNL     1      -8.105   5.501  66.815  1.00  0.00     0.000 HD 
HETATM   14  C   UNL     1      -8.042   7.308  65.704  1.00  0.00    -0.133 C  
HETATM   15  C   UNL     1      -9.978   8.667  69.394  1.00  0.00    -0.197 A  
HETATM   16  N   UNL     1      -7.611   8.618  66.159  1.00  0.00    -0.092 N  
HETATM   17  O   UNL     1      -9.979   9.530  66.044  1.00  0.00    -0.278 OA 
HETATM   18  S   UNL     1      -8.874   9.417  66.973  1.00  0.00    -0.127 S  
HETATM   19  H   UNL     1      -6.680   9.007  66.010  1.00  0.00     0.000 HD 
HETATM   20  C   UNL     1      -9.334   8.261  68.216  1.00  0.00    -0.134 A  
HETATM   21  O   UNL     1      -8.293  10.578  67.609  1.00  0.00    -0.114 OA 
BRANCH  14  22
HETATM   22  C   UNL     1      -6.992   6.594  64.779  1.00  0.00    -0.054 C  
HETATM   23  C   UNL     1      -5.802   7.584  64.555  1.00  0.00    -0.037 C  
HETATM   24  C   UNL     1      -5.942   7.946  63.055  1.00  0.00    -0.067 C  
HETATM   25  C   UNL     1      -7.376   7.615  62.630  1.00  0.00    -0.094 C  
HETATM   26  C   UNL     1      -7.352   6.240  63.298  1.00  0.00    -0.064 C  
HETATM   27  C   UNL     1      -6.116   5.744  62.532  1.00  0.00    -0.022 C  
HETATM   28  C   UNL     1      -5.287   6.788  62.345  1.00  0.00    -0.031 C  
ENDBRANCH  14  22
ENDBRANCH   2   7
TORSDOF 2
ENDMDL
MODEL      124
REMARK 921   NORMALIZED FREE ENERGY PREDICTED BY IDOCK:   -3.49 KCAL/MOL
REMARK 922        TOTAL FREE ENERGY PREDICTED BY IDOCK:   -3.96 KCAL/MOL
REMARK 923 INTER-LIGAND FREE ENERGY PREDICTED BY IDOCK:   -3.92 KCAL/MOL
REMARK 924 INTRA-LIGAND FREE ENERGY PREDICTED BY IDOCK:   -0.05 KCAL/MOL
REMARK 927      BINDING AFFINITY PREDICTED BY RF-SCORE:    0.00 PKD
ROOT
HETATM    1  N   UNL     1      -9.424   5.000  63.292  1.00  0.00    -0.330 N  
HETATM    2  S   UNL     1      -7.811   4.775  63.711  1.00  0.00    -0.091 S  
HETATM    3  H1  UNL     1      -9.571   6.007  63.359  1.00  0.00     0.000 HD 
HETATM    4  H2  UNL     1     -10.104   4.287  63.029  1.00  0.00     0.000 HD 
HETATM    5  O   UNL     1      -7.602   3.348  63.616  1.00  0.00    -0.061 OA 
HETATM    6  O   UNL     1      -7.035   5.714  62.940  1.00  0.00    -0.041 OA 
ENDROOT
BRANCH   2   7
HETATM    7  C   UNL     1      -7.770   5.242  65.410  1.00  0.00    -0.088 A  
HETATM    8  C   UNL     1      -6.663   4.938  66.207  1.00  0.00    -0.050 A  
HETATM    9  C   UNL     1      -6.645   5.352  67.539  1.00  0.00    -0.053 A  
HETATM   10 CL   UNL     1      -5.278   4.056  65.658  1.00  0.00    -0.009 Cl 
HETATM   11  C   UNL     1      -7.703   6.079  68.100  1.00  0.00    -0.102 A  
HETATM   12  N   UNL     1      -7.615   6.430  69.429  1.00  0.00    -0.093 NA 
HETATM   13  H   UNL     1      -6.775   6.149  69.936  1.00  0.00     0.000 HD 
HETATM   14  C   UNL     1      -8.623   7.168  70.162  1.00  0.00    -0.140 C  
HETATM   15  C   UNL     1      -8.874   5.910  65.971  1.00  0.00    -0.153 A  
HETATM   16  N   UNL     1      -9.942   6.723  69.748  1.00  0.00    -0.176 N  
HETATM   17  O   UNL     1     -10.064   8.497  67.935  1.00  0.00    -0.186 OA 
HETATM   18  S   UNL     1     -10.203   7.065  68.102  1.00  0.00    -0.191 S  
HETATM   19  H   UNL     1     -10.619   6.268  70.360  1.00  0.00     0.000 HD 
HETATM   20  C   UNL     1      -8.828   6.297  67.318  1.00  0.00    -0.107 A  
HETATM   21  O   UNL     1     -11.408   6.367  67.715  1.00  0.00    -0.266 OA 
BRANCH  14  22
HETATM   22  C   UNL     1      -8.387   7.060  71.711  1.00  0.00    -0.110 C  
HETATM   23  C   UNL     1      -9.242   5.863  72.242  1.00  0.00    -0.149 C  
HETATM   24  C   UNL     1     -10.327   6.572  73.091  1.00  0.00    -0.252 C  
HETATM   25  C   UNL     1     -10.388   8.033  72.636  1.00  0.00    -0.398 C  
HETATM   26  C   UNL     1      -8.869   8.201  72.668  1.00  0.00    -0.285 C  
HETATM   27  C   UNL     1      -8.722   7.787  74.140  1.00  0.00    -0.293 C  
HETATM   28  C   UNL     1      -9.637   6.836  74.405  1.00  0.00    -0.296 C  
ENDBRANCH  14  22
ENDBRANCH   2   7
TORSDOF 2
ENDMDL
MODEL      125
REMARK 921   NORMALIZED FREE ENERGY PREDICTED BY IDOCK:   -3.45 KCAL/MOL
REMARK 922        TOTAL FREE ENERGY PREDICTED BY IDOCK:   -3.93 KCAL/MOL
REMARK 923 INTER-LIGAND FREE ENERGY PREDICTED BY IDOCK:   -3.62 KCAL/MOL
REMARK 924 INTRA-LIGAND FREE ENERGY PREDICTED BY IDOCK:   -0.31 KCAL/MOL
REMARK 927      BINDING AFFINITY PREDICTED BY RF-SCORE:    0.00 PKD
ROOT
HETATM    1  N   UNL     1     -10.657   5.694  65.926  1.00  0.00    -0.449 N  
HETATM    2  S   UNL     1      -9.009   5.589  66.243  1.00  0.00    -0.144 S  
HETATM    3  H1  UNL     1     -10.729   6.333  65.135  1.00  0.00     0.000 HD 
HETATM    4  H2  UNL     1     -11.417   5.223  66.417  1.00  0.00     0.000 HD 
HETATM    5  O   UNL     1      -8.907   4.683  67.364  1.00  0.00    -0.104 OA 
HETATM    6  O   UNL     1      -8.349   5.328  64.988  1.00  0.00    -0.133 OA 
ENDROOT
BRANCH   2   7
HETATM    7  C   UNL     1      -8.601   7.214  66.789  1.00  0.00    -0.124 A  
HETATM    8  C   UNL     1      -7.410   7.457  67.477  1.00  0.00    -0.102 A  
HETATM    9  C   UNL     1      -7.098   8.761  67.865  1.00  0.00    -0.079 A  
HETATM   10 CL   UNL     1      -6.262   6.235  67.905  1.00  0.00    -0.027 Cl 
HETATM   11  C   UNL     1      -7.943   9.840  67.571  1.00  0.00    -0.106 A  
HETATM   12  N   UNL     1      -7.571  11.092  68.011  1.00  0.00    -0.097 NA 
HETATM   13  H   UNL     1      -6.691  11.170  68.521  1.00  0.00     0.000 HD 
HETATM   14  C   UNL     1      -8.334  12.305  67.803  1.00  0.00    -0.162 C  
HETATM   15  C   UNL     1      -9.497   8.271  66.545  1.00  0.00    -0.284 A  
HETATM   16  N   UNL     1      -9.749  12.016  67.952  1.00  0.00    -0.189 N  
HETATM   17  O   UNL     1      -9.995  11.522  65.473  1.00  0.00    -0.223 OA 
HETATM   18  S   UNL     1     -10.267  10.917  66.760  1.00  0.00    -0.240 S  
HETATM   19  H   UNL     1     -10.351  12.417  68.671  1.00  0.00     0.000 HD 
HETATM   20  C   UNL     1      -9.159   9.566  66.963  1.00  0.00    -0.134 A  
HETATM   21  O   UNL     1     -11.596  10.490  67.134  1.00  0.00    -0.251 OA 
BRANCH  14  22
HETATM   22  C   UNL     1      -7.831  13.456  68.745  1.00  0.00    -0.009 C  
HETATM   23  C   UNL     1      -8.071  14.815  68.010  1.00  0.00    -0.140 C  
HETATM   24  C   UNL     1      -6.630  15.292  67.701  1.00  0.00    -0.196 C  
HETATM   25  C   UNL     1      -5.712  14.069  67.776  1.00  0.00    -0.071 C  
HETATM   26  C   UNL     1      -6.312  13.587  69.097  1.00  0.00    -0.101 C  
HETATM   27  C   UNL     1      -6.030  14.894  69.854  1.00  0.00    -0.132 C  
HETATM   28  C   UNL     1      -6.177  15.920  68.995  1.00  0.00    -0.125 C  
ENDBRANCH  14  22
ENDBRANCH   2   7
TORSDOF 2
ENDMDL
MODEL      126
REMARK 921   NORMALIZED FREE ENERGY PREDICTED BY IDOCK:   -3.43 KCAL/MOL
REMARK 922        TOTAL FREE ENERGY PREDICTED BY IDOCK:   -3.90 KCAL/MOL
REMARK 923 INTER-LIGAND FREE ENERGY PREDICTED BY IDOCK:   -3.85 KCAL/MOL
REMARK 924 INTRA-LIGAND FREE ENERGY PREDICTED BY IDOCK:   -0.05 KCAL/MOL
REMARK 927      BINDING AFFINITY PREDICTED BY RF-SCORE:    0.00 PKD
ROOT
HETATM    1  N   UNL     1      -7.568   2.686  63.965  1.00  0.00    -0.066 N  
HETATM    2  S   UNL     1      -6.924   3.223  65.423  1.00  0.00    -0.054 S  
HETATM    3  H1  UNL     1      -7.215   3.342  63.268  1.00  0.00     0.000 HD 
HETATM    4  H2  UNL     1      -8.177   1.882  63.811  1.00  0.00     0.000 HD 
HETATM    5  O   UNL     1      -7.425   2.293  66.410  1.00  0.00    -0.064 OA 
HETATM    6  O   UNL     1      -5.513   3.431  65.215  1.00  0.00    -0.009 OA 
ENDROOT
BRANCH   2   7
HETATM    7  C   UNL     1      -7.714   4.781  65.660  1.00  0.00    -0.090 A  
HETATM    8  C   UNL     1      -7.642   5.773  64.679  1.00  0.00    -0.083 A  
HETATM    9  C   UNL     1      -8.307   6.983  64.880  1.00  0.00    -0.016 A  
HETATM   10 CL   UNL     1      -6.763   5.618  63.196  1.00  0.00    -0.032 Cl 
HETATM   11  C   UNL     1      -9.059   7.228  66.036  1.00  0.00    -0.075 A  
HETATM   12  N   UNL     1      -9.666   8.458  66.166  1.00  0.00    -0.425 NA 
HETATM   13  H   UNL     1      -9.544   9.126  65.405  1.00  0.00     0.000 HD 
HETATM   14  C   UNL     1     -10.465   8.875  67.300  1.00  0.00    -0.277 C  
HETATM   15  C   UNL     1      -8.404   5.032  66.860  1.00  0.00    -0.107 A  
HETATM   16  N   UNL     1      -9.863   8.374  68.524  1.00  0.00    -0.168 N  
HETATM   17  O   UNL     1     -11.239   6.242  68.428  1.00  0.00    -0.335 OA 
HETATM   18  S   UNL     1      -9.862   6.672  68.541  1.00  0.00    -0.143 S  
HETATM   19  H   UNL     1      -9.492   8.961  69.271  1.00  0.00     0.000 HD 
HETATM   20  C   UNL     1      -9.048   6.265  67.035  1.00  0.00    -0.123 A  
HETATM   21  O   UNL     1      -9.025   6.265  69.647  1.00  0.00    -0.134 OA 
BRANCH  14  22
HETATM   22  C   UNL     1     -10.674  10.431  67.302  1.00  0.00    -0.331 C  
HETATM   23  C   UNL     1     -10.341  10.960  65.868  1.00  0.00    -0.310 C  
HETATM   24  C   UNL     1      -9.039  11.766  66.099  1.00  0.00    -0.189 C  
HETATM   25  C   UNL     1      -8.423  11.284  67.416  1.00  0.00    -0.137 C  
HETATM   26  C   UNL     1      -9.753  11.354  68.168  1.00  0.00    -0.194 C  
HETATM   27  C   UNL     1     -10.004  12.837  67.852  1.00  0.00    -0.229 C  
HETATM   28  C   UNL     1      -9.528  13.093  66.619  1.00  0.00    -0.260 C  
ENDBRANCH  14  22
ENDBRANCH   2   7
TORSDOF 2
ENDMDL
MODEL      127
REMARK 921   NORMALIZED FREE ENERGY PREDICTED BY IDOCK:   -3.42 KCAL/MOL
REMARK 922        TOTAL FREE ENERGY PREDICTED BY IDOCK:   -3.89 KCAL/MOL
REMARK 923 INTER-LIGAND FREE ENERGY PREDICTED BY IDOCK:   -4.43 KCAL/MOL
REMARK 924 INTRA-LIGAND FREE ENERGY PREDICTED BY IDOCK:    0.54 KCAL/MOL
REMARK 927      BINDING AFFINITY PREDICTED BY RF-SCORE:    0.00 PKD
ROOT
HETATM    1  N   UNL     1     -10.550  14.838  69.962  1.00  0.00    -0.466 N  
HETATM    2  S   UNL     1     -11.798  14.156  69.066  1.00  0.00    -0.353 S  
HETATM    3  H1  UNL     1      -9.813  15.023  69.282  1.00  0.00     0.000 HD 
HETATM    4  H2  UNL     1     -10.534  15.026  70.965  1.00  0.00     0.000 HD 
HETATM    5  O   UNL     1     -12.843  13.894  70.030  1.00  0.00    -0.165 OA 
HETATM    6  O   UNL     1     -12.012  15.003  67.919  1.00  0.00    -0.291 OA 
ENDROOT
BRANCH   2   7
HETATM    7  C   UNL     1     -11.117  12.619  68.536  1.00  0.00    -0.266 A  
HETATM    8  C   UNL     1     -11.046  12.301  67.178  1.00  0.00    -0.278 A  
HETATM    9  C   UNL     1     -10.469  11.092  66.788  1.00  0.00    -0.297 A  
HETATM   10 CL   UNL     1     -11.640  13.313  65.906  1.00  0.00    -0.359 Cl 
HETATM   11  C   UNL     1      -9.944  10.190  67.723  1.00  0.00    -0.168 A  
HETATM   12  N   UNL     1      -9.412   9.008  67.255  1.00  0.00    -0.145 NA 
HETATM   13  H   UNL     1      -9.419   8.855  66.246  1.00  0.00     0.000 HD 
HETATM   14  C   UNL     1      -8.843   7.967  68.085  1.00  0.00    -0.125 C  
HETATM   15  C   UNL     1     -10.660  11.697  69.496  1.00  0.00     0.085 A  
HETATM   16  N   UNL     1      -9.637   7.827  69.294  1.00  0.00    -0.159 N  
HETATM   17  O   UNL     1      -8.194   9.507  70.536  1.00  0.00    -0.181 OA 
HETATM   18  S   UNL     1      -9.583   9.255  70.217  1.00  0.00    -0.253 S  
HETATM   19  H   UNL     1     -10.154   6.987  69.554  1.00  0.00     0.000 HD 
HETATM   20  C   UNL     1     -10.101  10.484  69.069  1.00  0.00    -0.217 A  
HETATM   21  O   UNL     1     -10.589   9.127  71.246  1.00  0.00    -0.274 OA 
BRANCH  14  22
HETATM   22  C   UNL     1      -8.690   6.625  67.283  1.00  0.00    -0.118 C  
HETATM   23  C   UNL     1      -7.162   6.356  67.089  1.00  0.00    -0.075 C  
HETATM   24  C   UNL     1      -6.974   6.557  65.564  1.00  0.00    -0.053 C  
HETATM   25  C   UNL     1      -8.162   7.379  65.056  1.00  0.00    -0.101 C  
HETATM   26  C   UNL     1      -9.188   6.526  65.802  1.00  0.00     0.051 C  
HETATM   27  C   UNL     1      -8.749   5.201  65.159  1.00  0.00    -0.151 C  
HETATM   28  C   UNL     1      -7.416   5.243  64.973  1.00  0.00    -0.073 C  
ENDBRANCH  14  22
ENDBRANCH   2   7
TORSDOF 2
ENDMDL
MODEL      128
REMARK 921   NORMALIZED FREE ENERGY PREDICTED BY IDOCK:   -3.38 KCAL/MOL
REMARK 922        TOTAL FREE ENERGY PREDICTED BY IDOCK:   -3.85 KCAL/MOL
REMARK 923 INTER-LIGAND FREE ENERGY PREDICTED BY IDOCK:   -3.77 KCAL/MOL
REMARK 924 INTRA-LIGAND FREE ENERGY PREDICTED BY IDOCK:   -0.08 KCAL/MOL
REMARK 927      BINDING AFFINITY PREDICTED BY RF-SCORE:    0.00 PKD
ROOT
HETATM    1  N   UNL     1      -5.748   3.726  65.489  1.00  0.00    -0.017 N  
HETATM    2  S   UNL     1      -6.280   4.325  66.967  1.00  0.00    -0.037 S  
HETATM    3  H1  UNL     1      -5.174   4.472  65.097  1.00  0.00     0.000 HD 
HETATM    4  H2  UNL     1      -5.954   2.816  65.075  1.00  0.00     0.000 HD 
HETATM    5  O   UNL     1      -7.094   3.268  67.522  1.00  0.00    -0.053 OA 
HETATM    6  O   UNL     1      -5.126   4.844  67.658  1.00  0.00    -0.006 OA 
ENDROOT
BRANCH   2   7
HETATM    7  C   UNL     1      -7.330   5.663  66.502  1.00  0.00    -0.079 A  
HETATM    8  C   UNL     1      -8.628   5.425  66.045  1.00  0.00    -0.127 A  
HETATM    9  C   UNL     1      -9.447   6.506  65.718  1.00  0.00     0.190 A  
HETATM   10 CL   UNL     1      -9.318   3.851  65.840  1.00  0.00    -0.155 Cl 
HETATM   11  C   UNL     1      -9.008   7.830  65.848  1.00  0.00    -0.113 A  
HETATM   12  N   UNL     1      -9.872   8.839  65.482  1.00  0.00    -0.375 NA 
HETATM   13  H   UNL     1     -10.795   8.568  65.143  1.00  0.00     0.000 HD 
HETATM   14  C   UNL     1      -9.571  10.254  65.543  1.00  0.00    -0.242 C  
HETATM   15  C   UNL     1      -6.844   6.981  66.574  1.00  0.00    -0.061 A  
HETATM   16  N   UNL     1      -8.193  10.471  65.136  1.00  0.00    -0.219 N  
HETATM   17  O   UNL     1      -7.365  10.265  67.527  1.00  0.00    -0.088 OA 
HETATM   18  S   UNL     1      -7.120   9.708  66.214  1.00  0.00    -0.095 S  
HETATM   19  H   UNL     1      -7.908  11.008  64.316  1.00  0.00     0.000 HD 
HETATM   20  C   UNL     1      -7.689   8.043  66.222  1.00  0.00    -0.091 A  
HETATM   21  O   UNL     1      -5.812   9.750  65.601  1.00  0.00    -0.056 OA 
BRANCH  14  22
HETATM   22  C   UNL     1     -10.605  11.088  64.707  1.00  0.00    -0.350 C  
HETATM   23  C   UNL     1      -9.913  12.426  64.287  1.00  0.00    -0.232 C  
HETATM   24  C   UNL     1     -10.684  13.481  65.119  1.00  0.00    -0.349 C  
HETATM   25  C   UNL     1     -11.365  12.749  66.279  1.00  0.00    -0.365 C  
HETATM   26  C   UNL     1     -11.908  11.638  65.378  1.00  0.00     0.126 C  
HETATM   27  C   UNL     1     -12.657  12.591  64.433  1.00  0.00    -0.497 C  
HETATM   28  C   UNL     1     -11.937  13.723  64.317  1.00  0.00    -0.481 C  
ENDBRANCH  14  22
ENDBRANCH   2   7
TORSDOF 2
ENDMDL
MODEL      129
REMARK 921   NORMALIZED FREE ENERGY PREDICTED BY IDOCK:   -3.26 KCAL/MOL
REMARK 922        TOTAL FREE ENERGY PREDICTED BY IDOCK:   -3.71 KCAL/MOL
REMARK 923 INTER-LIGAND FREE ENERGY PREDICTED BY IDOCK:   -3.29 KCAL/MOL
REMARK 924 INTRA-LIGAND FREE ENERGY PREDICTED BY IDOCK:   -0.42 KCAL/MOL
REMARK 927      BINDING AFFINITY PREDICTED BY RF-SCORE:    0.00 PKD
ROOT
HETATM    1  N   UNL     1     -10.450   7.354  72.480  1.00  0.00    -0.219 N  
HETATM    2  S   UNL     1     -10.858   8.419  71.244  1.00  0.00    -0.253 S  
HETATM    3  H1  UNL     1      -9.432   7.301  72.452  1.00  0.00     0.000 HD 
HETATM    4  H2  UNL     1     -11.081   6.870  73.119  1.00  0.00     0.000 HD 
HETATM    5  O   UNL     1     -12.300   8.495  71.285  1.00  0.00    -0.307 OA 
HETATM    6  O   UNL     1     -10.026   9.587  71.395  1.00  0.00    -0.225 OA 
ENDROOT
BRANCH   2   7
HETATM    7  C   UNL     1     -10.377   7.546  69.790  1.00  0.00    -0.221 A  
HETATM    8  C   UNL     1     -10.452   8.155  68.535  1.00  0.00    -0.162 A  
HETATM    9  C   UNL     1     -10.031   7.451  67.407  1.00  0.00    -0.239 A  
HETATM   10 CL   UNL     1     -11.051   9.756  68.261  1.00  0.00    -0.211 Cl 
HETATM   11  C   UNL     1      -9.520   6.149  67.498  1.00  0.00    -0.112 A  
HETATM   12  N   UNL     1      -9.147   5.516  66.332  1.00  0.00    -0.139 NA 
HETATM   13  H   UNL     1      -9.255   6.035  65.459  1.00  0.00     0.000 HD 
HETATM   14  C   UNL     1      -8.614   4.173  66.250  1.00  0.00    -0.113 C  
HETATM   15  C   UNL     1      -9.933   6.215  69.896  1.00  0.00    -0.215 A  
HETATM   16  N   UNL     1      -9.312   3.319  67.196  1.00  0.00    -0.253 N  
HETATM   17  O   UNL     1      -7.612   3.805  69.018  1.00  0.00    -0.053 OA 
HETATM   18  S   UNL     1      -9.041   3.843  68.792  1.00  0.00    -0.151 S  
HETATM   19  H   UNL     1      -9.885   2.515  66.939  1.00  0.00     0.000 HD 
HETATM   20  C   UNL     1      -9.532   5.532  68.740  1.00  0.00    -0.129 A  
HETATM   21  O   UNL     1      -9.964   3.116  69.633  1.00  0.00     0.131 OA 
BRANCH  14  22
HETATM   22  C   UNL     1      -8.661   3.635  64.775  1.00  0.00    -0.114 C  
HETATM   23  C   UNL     1      -8.188   2.145  64.794  1.00  0.00    -0.079 C  
HETATM   24  C   UNL     1      -6.826   2.213  64.060  1.00  0.00    -0.035 C  
HETATM   25  C   UNL     1      -6.345   3.667  64.110  1.00  0.00    -0.023 C  
HETATM   26  C   UNL     1      -7.705   4.225  63.686  1.00  0.00    -0.071 C  
HETATM   27  C   UNL     1      -7.780   3.411  62.384  1.00  0.00    -0.058 C  
HETATM   28  C   UNL     1      -7.206   2.213  62.601  1.00  0.00    -0.036 C  
ENDBRANCH  14  22
ENDBRANCH   2   7
TORSDOF 2
ENDMDL
MODEL      130
REMARK 921   NORMALIZED FREE ENERGY PREDICTED BY IDOCK:   -3.24 KCAL/MOL
REMARK 922        TOTAL FREE ENERGY PREDICTED BY IDOCK:   -3.69 KCAL/MOL
REMARK 923 INTER-LIGAND FREE ENERGY PREDICTED BY IDOCK:   -4.24 KCAL/MOL
REMARK 924 INTRA-LIGAND FREE ENERGY PREDICTED BY IDOCK:    0.55 KCAL/MOL
REMARK 927      BINDING AFFINITY PREDICTED BY RF-SCORE:    0.00 PKD
ROOT
HETATM    1  N   UNL     1      -5.477   3.326  71.093  1.00  0.00    -0.008 N  
HETATM    2  S   UNL     1      -7.155   3.234  71.030  1.00  0.00    -0.033 S  
HETATM    3  H1  UNL     1      -5.279   3.918  71.900  1.00  0.00     0.000 HD 
HETATM    4  H2  UNL     1      -4.805   2.888  70.463  1.00  0.00     0.000 HD 
HETATM    5  O   UNL     1      -7.434   2.396  69.887  1.00  0.00    -0.043 OA 
HETATM    6  O   UNL     1      -7.613   2.897  72.355  1.00  0.00    -0.050 OA 
ENDROOT
BRANCH   2   7
HETATM    7  C   UNL     1      -7.633   4.887  70.652  1.00  0.00    -0.066 A  
HETATM    8  C   UNL     1      -6.757   5.952  70.876  1.00  0.00    -0.057 A  
HETATM    9  C   UNL     1      -7.151   7.246  70.533  1.00  0.00    -0.062 A  
HETATM   10 CL   UNL     1      -5.180   5.789  71.571  1.00  0.00    -0.016 Cl 
HETATM   11  C   UNL     1      -8.400   7.507  69.956  1.00  0.00    -0.136 A  
HETATM   12  N   UNL     1      -8.720   8.817  69.668  1.00  0.00    -0.133 NA 
HETATM   13  H   UNL     1      -8.023   9.530  69.883  1.00  0.00     0.000 HD 
HETATM   14  C   UNL     1      -9.970   9.258  69.084  1.00  0.00    -0.179 C  
HETATM   15  C   UNL     1      -8.919   5.136  70.139  1.00  0.00    -0.151 A  
HETATM   16  N   UNL     1     -11.064   8.486  69.648  1.00  0.00    -0.438 N  
HETATM   17  O   UNL     1     -10.899   6.747  67.805  1.00  0.00    -0.244 OA 
HETATM   18  S   UNL     1     -10.906   6.840  69.249  1.00  0.00    -0.262 S  
HETATM   19  H   UNL     1     -11.823   8.878  70.206  1.00  0.00     0.000 HD 
HETATM   20  C   UNL     1      -9.288   6.450  69.820  1.00  0.00    -0.146 A  
HETATM   21  O   UNL     1     -11.869   6.121  70.053  1.00  0.00    -0.243 OA 
BRANCH  14  22
HETATM   22  C   UNL     1     -10.153  10.809  69.248  1.00  0.00    -0.200 C  
HETATM   23  C   UNL     1     -11.677  11.128  69.105  1.00  0.00    -0.408 C  
HETATM   24  C   UNL     1     -11.738  11.896  67.761  1.00  0.00    -0.362 C  
HETATM   25  C   UNL     1     -10.463  11.563  66.980  1.00  0.00    -0.263 C  
HETATM   26  C   UNL     1      -9.555  11.794  68.189  1.00  0.00    -0.193 C  
HETATM   27  C   UNL     1     -10.033  13.232  68.440  1.00  0.00    -0.226 C  
HETATM   28  C   UNL     1     -11.343  13.301  68.135  1.00  0.00    -0.323 C  
ENDBRANCH  14  22
ENDBRANCH   2   7
TORSDOF 2
ENDMDL
MODEL      131
REMARK 921   NORMALIZED FREE ENERGY PREDICTED BY IDOCK:   -3.23 KCAL/MOL
REMARK 922        TOTAL FREE ENERGY PREDICTED BY IDOCK:   -3.68 KCAL/MOL
REMARK 923 INTER-LIGAND FREE ENERGY PREDICTED BY IDOCK:   -3.92 KCAL/MOL
REMARK 924 INTRA-LIGAND FREE ENERGY PREDICTED BY IDOCK:    0.24 KCAL/MOL
REMARK 927      BINDING AFFINITY PREDICTED BY RF-SCORE:    0.00 PKD
ROOT
HETATM    1  N   UNL     1      -6.993   2.392  68.665  1.00  0.00    -0.043 N  
HETATM    2  S   UNL     1      -8.232   2.771  67.593  1.00  0.00    -0.082 S  
HETATM    3  H1  UNL     1      -7.431   2.411  69.586  1.00  0.00     0.000 HD 
HETATM    4  H2  UNL     1      -6.018   2.188  68.443  1.00  0.00     0.000 HD 
HETATM    5  O   UNL     1      -7.611   2.744  66.289  1.00  0.00    -0.074 OA 
HETATM    6  O   UNL     1      -9.354   1.928  67.924  1.00  0.00    -0.173 OA 
ENDROOT
BRANCH   2   7
HETATM    7  C   UNL     1      -8.619   4.441  68.002  1.00  0.00    -0.102 A  
HETATM    8  C   UNL     1      -9.215   4.756  69.226  1.00  0.00    -0.118 A  
HETATM    9  C   UNL     1      -9.477   6.091  69.536  1.00  0.00    -0.161 A  
HETATM   10 CL   UNL     1      -9.675   3.588  70.417  1.00  0.00    -0.234 Cl 
HETATM   11  C   UNL     1      -9.145   7.131  68.658  1.00  0.00    -0.133 A  
HETATM   12  N   UNL     1      -9.458   8.420  69.031  1.00  0.00    -0.150 NA 
HETATM   13  H   UNL     1      -9.909   8.551  69.937  1.00  0.00     0.000 HD 
HETATM   14  C   UNL     1      -9.195   9.602  68.237  1.00  0.00    -0.129 C  
HETATM   15  C   UNL     1      -8.341   5.463  67.076  1.00  0.00    -0.107 A  
HETATM   16  N   UNL     1      -9.448   9.308  66.837  1.00  0.00    -0.153 N  
HETATM   17  O   UNL     1      -7.036   8.607  66.461  1.00  0.00    -0.077 OA 
HETATM   18  S   UNL     1      -8.382   8.108  66.273  1.00  0.00    -0.125 S  
HETATM   19  H   UNL     1     -10.166   9.760  66.270  1.00  0.00     0.000 HD 
HETATM   20  C   UNL     1      -8.632   6.792  67.414  1.00  0.00    -0.120 A  
HETATM   21  O   UNL     1      -8.866   7.696  64.975  1.00  0.00     0.074 OA 
BRANCH  14  22
HETATM   22  C   UNL     1     -10.010  10.833  68.771  1.00  0.00    -0.201 C  
HETATM   23  C   UNL     1     -11.464  10.726  68.206  1.00  0.00    -0.353 C  
HETATM   24  C   UNL     1     -11.529  11.912  67.212  1.00  0.00    -0.385 C  
HETATM   25  C   UNL     1     -10.090  12.303  66.863  1.00  0.00    -0.224 C  
HETATM   26  C   UNL     1      -9.636  12.286  68.324  1.00  0.00    -0.212 C  
HETATM   27  C   UNL     1     -10.688  13.299  68.800  1.00  0.00    -0.253 C  
HETATM   28  C   UNL     1     -11.816  13.101  68.092  1.00  0.00    -0.386 C  
ENDBRANCH  14  22
ENDBRANCH   2   7
TORSDOF 2
ENDMDL
MODEL      132
REMARK 921   NORMALIZED FREE ENERGY PREDICTED BY IDOCK:   -3.22 KCAL/MOL
REMARK 922        TOTAL FREE ENERGY PREDICTED BY IDOCK:   -3.67 KCAL/MOL
REMARK 923 INTER-LIGAND FREE ENERGY PREDICTED BY IDOCK:   -3.24 KCAL/MOL
REMARK 924 INTRA-LIGAND FREE ENERGY PREDICTED BY IDOCK:   -0.43 KCAL/MOL
REMARK 927      BINDING AFFINITY PREDICTED BY RF-SCORE:    0.00 PKD
ROOT
HETATM    1  N   UNL     1     -10.375   2.865  64.638  1.00  0.00    -0.372 N  
HETATM    2  S   UNL     1      -8.931   3.619  64.220  1.00  0.00    -0.126 S  
HETATM    3  H1  UNL     1     -11.022   3.629  64.829  1.00  0.00     0.000 HD 
HETATM    4  H2  UNL     1     -10.562   1.863  64.690  1.00  0.00     0.000 HD 
HETATM    5  O   UNL     1      -8.015   2.535  63.949  1.00  0.00    -0.078 OA 
HETATM    6  O   UNL     1      -9.245   4.620  63.231  1.00  0.00    -0.127 OA 
ENDROOT
BRANCH   2   7
HETATM    7  C   UNL     1      -8.445   4.412  65.717  1.00  0.00    -0.114 A  
HETATM    8  C   UNL     1      -7.347   5.274  65.743  1.00  0.00    -0.080 A  
HETATM    9  C   UNL     1      -7.008   5.915  66.935  1.00  0.00    -0.068 A  
HETATM   10 CL   UNL     1      -6.340   5.615  64.377  1.00  0.00    -0.032 Cl 
HETATM   11  C   UNL     1      -7.750   5.728  68.110  1.00  0.00    -0.096 A  
HETATM   12  N   UNL     1      -7.334   6.381  69.250  1.00  0.00    -0.090 NA 
HETATM   13  H   UNL     1      -6.509   6.977  69.177  1.00  0.00     0.000 HD 
HETATM   14  C   UNL     1      -7.978   6.286  70.543  1.00  0.00    -0.112 C  
HETATM   15  C   UNL     1      -9.162   4.155  66.901  1.00  0.00    -0.169 A  
HETATM   16  N   UNL     1      -8.416   4.919  70.764  1.00  0.00    -0.107 N  
HETATM   17  O   UNL     1     -10.693   5.393  69.745  1.00  0.00    -0.315 OA 
HETATM   18  S   UNL     1      -9.586   4.468  69.614  1.00  0.00    -0.213 S  
HETATM   19  H   UNL     1      -8.070   4.312  71.507  1.00  0.00     0.000 HD 
HETATM   20  C   UNL     1      -8.784   4.804  68.085  1.00  0.00    -0.102 A  
HETATM   21  O   UNL     1      -9.769   3.040  69.740  1.00  0.00    -0.094 OA 
BRANCH  14  22
HETATM   22  C   UNL     1      -7.044   6.832  71.681  1.00  0.00    -0.076 C  
HETATM   23  C   UNL     1      -7.248   5.929  72.942  1.00  0.00    -0.090 C  
HETATM   24  C   UNL     1      -7.960   6.886  73.930  1.00  0.00    -0.124 C  
HETATM   25  C   UNL     1      -8.570   8.028  73.112  1.00  0.00    -0.281 C  
HETATM   26  C   UNL     1      -7.292   8.248  72.300  1.00  0.00    -0.131 C  
HETATM   27  C   UNL     1      -6.396   8.480  73.526  1.00  0.00    -0.117 C  
HETATM   28  C   UNL     1      -6.832   7.690  74.525  1.00  0.00    -0.124 C  
ENDBRANCH  14  22
ENDBRANCH   2   7
TORSDOF 2
ENDMDL
MODEL      133
REMARK 921   NORMALIZED FREE ENERGY PREDICTED BY IDOCK:   -3.21 KCAL/MOL
REMARK 922        TOTAL FREE ENERGY PREDICTED BY IDOCK:   -3.66 KCAL/MOL
REMARK 923 INTER-LIGAND FREE ENERGY PREDICTED BY IDOCK:   -3.98 KCAL/MOL
REMARK 924 INTRA-LIGAND FREE ENERGY PREDICTED BY IDOCK:    0.32 KCAL/MOL
REMARK 927      BINDING AFFINITY PREDICTED BY RF-SCORE:    0.00 PKD
ROOT
HETATM    1  N   UNL     1      -9.605   4.631  72.684  1.00  0.00    -0.134 N  
HETATM    2  S   UNL     1      -8.295   5.081  71.731  1.00  0.00    -0.118 S  
HETATM    3  H1  UNL     1     -10.364   4.468  72.022  1.00  0.00     0.000 HD 
HETATM    4  H2  UNL     1      -9.634   4.541  73.700  1.00  0.00     0.000 HD 
HETATM    5  O   UNL     1      -7.220   5.313  72.669  1.00  0.00    -0.085 OA 
HETATM    6  O   UNL     1      -8.187   4.112  70.668  1.00  0.00    -0.065 OA 
ENDROOT
BRANCH   2   7
HETATM    7  C   UNL     1      -8.803   6.629  71.058  1.00  0.00    -0.142 A  
HETATM    8  C   UNL     1     -10.155   6.902  70.839  1.00  0.00    -0.194 A  
HETATM    9  C   UNL     1     -10.529   8.149  70.338  1.00  0.00    -0.217 A  
HETATM   10 CL   UNL     1     -11.439   5.781  71.141  1.00  0.00    -0.159 Cl 
HETATM   11  C   UNL     1      -9.584   9.146  70.060  1.00  0.00    -0.197 A  
HETATM   12  N   UNL     1     -10.035  10.342  69.546  1.00  0.00    -0.318 NA 
HETATM   13  H   UNL     1     -11.040  10.444  69.404  1.00  0.00     0.000 HD 
HETATM   14  C   UNL     1      -9.192  11.466  69.194  1.00  0.00     0.179 C  
HETATM   15  C   UNL     1      -7.831   7.589  70.719  1.00  0.00    -0.098 A  
HETATM   16  N   UNL     1      -7.969  10.977  68.582  1.00  0.00    -0.135 N  
HETATM   17  O   UNL     1      -6.784  10.884  70.826  1.00  0.00    -0.220 OA 
HETATM   18  S   UNL     1      -7.077  10.040  69.687  1.00  0.00    -0.122 S  
HETATM   19  H   UNL     1      -7.683  11.170  67.622  1.00  0.00     0.000 HD 
HETATM   20  C   UNL     1      -8.241   8.826  70.203  1.00  0.00    -0.117 A  
HETATM   21  O   UNL     1      -6.029   9.388  68.933  1.00  0.00    -0.042 OA 
BRANCH  14  22
HETATM   22  C   UNL     1      -9.969  12.495  68.297  1.00  0.00    -0.229 C  
HETATM   23  C   UNL     1      -9.237  13.873  68.408  1.00  0.00    -0.194 C  
HETATM   24  C   UNL     1     -10.260  14.736  69.188  1.00  0.00    -0.224 C  
HETATM   25  C   UNL     1     -11.221  13.782  69.904  1.00  0.00    -0.056 C  
HETATM   26  C   UNL     1     -11.431  12.917  68.660  1.00  0.00    -0.346 C  
HETATM   27  C   UNL     1     -11.908  14.078  67.773  1.00  0.00    -0.419 C  
HETATM   28  C   UNL     1     -11.231  15.187  68.127  1.00  0.00    -0.326 C  
ENDBRANCH  14  22
ENDBRANCH   2   7
TORSDOF 2
ENDMDL
MODEL      134
REMARK 921   NORMALIZED FREE ENERGY PREDICTED BY IDOCK:   -3.13 KCAL/MOL
REMARK 922        TOTAL FREE ENERGY PREDICTED BY IDOCK:   -3.56 KCAL/MOL
REMARK 923 INTER-LIGAND FREE ENERGY PREDICTED BY IDOCK:   -3.85 KCAL/MOL
REMARK 924 INTRA-LIGAND FREE ENERGY PREDICTED BY IDOCK:    0.28 KCAL/MOL
REMARK 927      BINDING AFFINITY PREDICTED BY RF-SCORE:    0.00 PKD
ROOT
HETATM    1  N   UNL     1     -10.494   2.117  63.836  1.00  0.00    -0.359 N  
HETATM    2  S   UNL     1      -9.065   2.978  63.622  1.00  0.00    -0.097 S  
HETATM    3  H1  UNL     1     -11.204   2.830  64.002  1.00  0.00     0.000 HD 
HETATM    4  H2  UNL     1     -10.623   1.106  63.805  1.00  0.00     0.000 HD 
HETATM    5  O   UNL     1      -8.059   1.967  63.386  1.00  0.00    -0.070 OA 
HETATM    6  O   UNL     1      -9.336   4.024  62.668  1.00  0.00    -0.110 OA 
ENDROOT
BRANCH   2   7
HETATM    7  C   UNL     1      -8.788   3.694  65.209  1.00  0.00    -0.122 A  
HETATM    8  C   UNL     1      -7.965   3.060  66.143  1.00  0.00    -0.082 A  
HETATM    9  C   UNL     1      -7.737   3.669  67.377  1.00  0.00    -0.078 A  
HETATM   10 CL   UNL     1      -7.192   1.533  65.886  1.00  0.00    -0.053 Cl 
HETATM   11  C   UNL     1      -8.300   4.910  67.703  1.00  0.00    -0.105 A  
HETATM   12  N   UNL     1      -8.042   5.431  68.953  1.00  0.00    -0.093 NA 
HETATM   13  H   UNL     1      -7.443   4.888  69.575  1.00  0.00     0.000 HD 
HETATM   14  C   UNL     1      -8.556   6.690  69.450  1.00  0.00    -0.135 C  
HETATM   15  C   UNL     1      -9.420   4.906  65.541  1.00  0.00    -0.155 A  
HETATM   16  N   UNL     1      -9.927   6.862  69.003  1.00  0.00    -0.155 N  
HETATM   17  O   UNL     1      -9.181   8.077  66.902  1.00  0.00    -0.139 OA 
HETATM   18  S   UNL     1     -10.000   6.953  67.305  1.00  0.00    -0.191 S  
HETATM   19  H   UNL     1     -10.736   6.920  69.622  1.00  0.00     0.000 HD 
HETATM   20  C   UNL     1      -9.181   5.482  66.797  1.00  0.00    -0.129 A  
HETATM   21  O   UNL     1     -11.395   6.859  66.941  1.00  0.00    -0.269 OA 
BRANCH  14  22
HETATM   22  C   UNL     1      -8.391   6.792  71.008  1.00  0.00    -0.127 C  
HETATM   23  C   UNL     1      -9.814   6.671  71.647  1.00  0.00    -0.177 C  
HETATM   24  C   UNL     1     -10.053   8.094  72.210  1.00  0.00    -0.338 C  
HETATM   25  C   UNL     1      -9.097   9.046  71.485  1.00  0.00    -0.231 C  
HETATM   26  C   UNL     1      -7.893   8.121  71.668  1.00  0.00    -0.130 C  
HETATM   27  C   UNL     1      -8.010   8.055  73.198  1.00  0.00    -0.218 C  
HETATM   28  C   UNL     1      -9.315   8.088  73.525  1.00  0.00    -0.285 C  
ENDBRANCH  14  22
ENDBRANCH   2   7
TORSDOF 2
ENDMDL
MODEL      135
REMARK 921   NORMALIZED FREE ENERGY PREDICTED BY IDOCK:   -3.13 KCAL/MOL
REMARK 922        TOTAL FREE ENERGY PREDICTED BY IDOCK:   -3.56 KCAL/MOL
REMARK 923 INTER-LIGAND FREE ENERGY PREDICTED BY IDOCK:   -3.48 KCAL/MOL
REMARK 924 INTRA-LIGAND FREE ENERGY PREDICTED BY IDOCK:   -0.08 KCAL/MOL
REMARK 927      BINDING AFFINITY PREDICTED BY RF-SCORE:    0.00 PKD
ROOT
HETATM    1  N   UNL     1      -9.841  12.428  67.681  1.00  0.00    -0.194 N  
HETATM    2  S   UNL     1      -8.276  11.811  67.672  1.00  0.00    -0.154 S  
HETATM    3  H1  UNL     1      -9.903  12.963  68.547  1.00  0.00     0.000 HD 
HETATM    4  H2  UNL     1     -10.566  12.297  66.976  1.00  0.00     0.000 HD 
HETATM    5  O   UNL     1      -8.187  11.053  66.445  1.00  0.00    -0.158 OA 
HETATM    6  O   UNL     1      -7.384  12.906  67.961  1.00  0.00    -0.094 OA 
ENDROOT
BRANCH   2   7
HETATM    7  C   UNL     1      -8.281  10.690  69.032  1.00  0.00    -0.151 A  
HETATM    8  C   UNL     1      -7.093  10.364  69.691  1.00  0.00    -0.135 A  
HETATM    9  C   UNL     1      -7.133   9.501  70.787  1.00  0.00    -0.106 A  
HETATM   10 CL   UNL     1      -5.531  10.956  69.239  1.00  0.00    -0.041 Cl 
HETATM   11  C   UNL     1      -8.338   8.960  71.256  1.00  0.00    -0.169 A  
HETATM   12  N   UNL     1      -8.287   8.098  72.330  1.00  0.00    -0.144 NA 
HETATM   13  H   UNL     1      -7.371   7.905  72.736  1.00  0.00     0.000 HD 
HETATM   14  C   UNL     1      -9.434   7.446  72.927  1.00  0.00    -0.170 C  
HETATM   15  C   UNL     1      -9.492  10.104  69.442  1.00  0.00    -0.240 A  
HETATM   16  N   UNL     1     -10.357   7.042  71.880  1.00  0.00    -0.193 N  
HETATM   17  O   UNL     1     -11.620   9.240  72.029  1.00  0.00    -0.356 OA 
HETATM   18  S   UNL     1     -10.959   8.401  71.052  1.00  0.00    -0.255 S  
HETATM   19  H   UNL     1     -10.610   6.076  71.671  1.00  0.00     0.000 HD 
HETATM   20  C   UNL     1      -9.494   9.228  70.537  1.00  0.00    -0.264 A  
HETATM   21  O   UNL     1     -11.649   7.906  69.882  1.00  0.00     0.029 OA 
BRANCH  14  22
HETATM   22  C   UNL     1      -8.989   6.261  73.856  1.00  0.00    -0.136 C  
HETATM   23  C   UNL     1      -7.426   6.265  73.921  1.00  0.00    -0.086 C  
HETATM   24  C   UNL     1      -7.052   4.974  73.152  1.00  0.00    -0.084 C  
HETATM   25  C   UNL     1      -8.255   4.584  72.287  1.00  0.00    -0.109 C  
HETATM   26  C   UNL     1      -9.253   4.778  73.430  1.00  0.00    -0.116 C  
HETATM   27  C   UNL     1      -8.553   3.796  74.383  1.00  0.00    -0.091 C  
HETATM   28  C   UNL     1      -7.225   3.883  74.178  1.00  0.00    -0.061 C  
ENDBRANCH  14  22
ENDBRANCH   2   7
TORSDOF 2
ENDMDL
MODEL      136
REMARK 921   NORMALIZED FREE ENERGY PREDICTED BY IDOCK:   -2.99 KCAL/MOL
REMARK 922        TOTAL FREE ENERGY PREDICTED BY IDOCK:   -3.41 KCAL/MOL
REMARK 923 INTER-LIGAND FREE ENERGY PREDICTED BY IDOCK:   -3.48 KCAL/MOL
REMARK 924 INTRA-LIGAND FREE ENERGY PREDICTED BY IDOCK:    0.07 KCAL/MOL
REMARK 927      BINDING AFFINITY PREDICTED BY RF-SCORE:    0.00 PKD
ROOT
HETATM    1  N   UNL     1      -7.594   2.764  63.979  1.00  0.00    -0.067 N  
HETATM    2  S   UNL     1      -7.296   3.099  65.600  1.00  0.00    -0.073 S  
HETATM    3  H1  UNL     1      -7.024   3.436  63.466  1.00  0.00     0.000 HD 
HETATM    4  H2  UNL     1      -8.208   2.047  63.594  1.00  0.00     0.000 HD 
HETATM    5  O   UNL     1      -8.103   2.146  66.326  1.00  0.00    -0.079 OA 
HETATM    6  O   UNL     1      -5.865   3.171  65.765  1.00  0.00    -0.018 OA 
ENDROOT
BRANCH   2   7
HETATM    7  C   UNL     1      -7.988   4.706  65.811  1.00  0.00    -0.099 A  
HETATM    8  C   UNL     1      -8.688   5.033  66.974  1.00  0.00    -0.103 A  
HETATM    9  C   UNL     1      -9.194   6.325  67.127  1.00  0.00    -0.125 A  
HETATM   10 CL   UNL     1      -8.994   3.931  68.273  1.00  0.00    -0.145 Cl 
HETATM   11  C   UNL     1      -9.007   7.311  66.149  1.00  0.00    -0.149 A  
HETATM   12  N   UNL     1      -9.558   8.555  66.369  1.00  0.00    -0.231 NA 
HETATM   13  H   UNL     1     -10.068   8.696  67.241  1.00  0.00     0.000 HD 
HETATM   14  C   UNL     1      -9.468   9.676  65.458  1.00  0.00    -0.266 C  
HETATM   15  C   UNL     1      -7.848   5.659  64.786  1.00  0.00    -0.112 A  
HETATM   16  N   UNL     1      -9.598   9.199  64.092  1.00  0.00    -0.072 N  
HETATM   17  O   UNL     1      -7.085   8.906  63.866  1.00  0.00    -0.090 OA 
HETATM   18  S   UNL     1      -8.312   8.157  63.695  1.00  0.00     0.099 S  
HETATM   19  H   UNL     1     -10.355   9.453  63.458  1.00  0.00     0.000 HD 
HETATM   20  C   UNL     1      -8.383   6.943  64.966  1.00  0.00    -0.049 A  
HETATM   21  O   UNL     1      -8.653   7.532  62.436  1.00  0.00    -0.024 OA 
BRANCH  14  22
HETATM   22  C   UNL     1     -10.510  10.790  65.829  1.00  0.00    -0.256 C  
HETATM   23  C   UNL     1      -9.835  12.179  65.578  1.00  0.00    -0.240 C  
HETATM   24  C   UNL     1      -9.669  12.738  67.013  1.00  0.00    -0.224 C  
HETATM   25  C   UNL     1      -9.747  11.555  67.983  1.00  0.00    -0.187 C  
HETATM   26  C   UNL     1     -10.988  10.968  67.309  1.00  0.00    -0.356 C  
HETATM   27  C   UNL     1     -11.837  12.239  67.467  1.00  0.00    -0.331 C  
HETATM   28  C   UNL     1     -11.027  13.307  67.335  1.00  0.00    -0.287 C  
ENDBRANCH  14  22
ENDBRANCH   2   7
TORSDOF 2
ENDMDL
MODEL      137
REMARK 921   NORMALIZED FREE ENERGY PREDICTED BY IDOCK:   -2.97 KCAL/MOL
REMARK 922        TOTAL FREE ENERGY PREDICTED BY IDOCK:   -3.39 KCAL/MOL
REMARK 923 INTER-LIGAND FREE ENERGY PREDICTED BY IDOCK:   -3.54 KCAL/MOL
REMARK 924 INTRA-LIGAND FREE ENERGY PREDICTED BY IDOCK:    0.15 KCAL/MOL
REMARK 927      BINDING AFFINITY PREDICTED BY RF-SCORE:    0.00 PKD
ROOT
HETATM    1  N   UNL     1      -9.764   8.053  72.378  1.00  0.00    -0.214 N  
HETATM    2  S   UNL     1      -9.711   9.131  71.089  1.00  0.00    -0.266 S  
HETATM    3  H1  UNL     1      -8.859   7.584  72.362  1.00  0.00     0.000 HD 
HETATM    4  H2  UNL     1     -10.533   7.902  73.032  1.00  0.00     0.000 HD 
HETATM    5  O   UNL     1     -10.994   9.796  71.112  1.00  0.00    -0.348 OA 
HETATM    6  O   UNL     1      -8.471   9.860  71.193  1.00  0.00     0.111 OA 
ENDROOT
BRANCH   2   7
HETATM    7  C   UNL     1      -9.647   8.071  69.683  1.00  0.00    -0.168 A  
HETATM    8  C   UNL     1     -10.574   7.038  69.526  1.00  0.00    -0.234 A  
HETATM    9  C   UNL     1     -10.520   6.237  68.385  1.00  0.00    -0.273 A  
HETATM   10 CL   UNL     1     -11.815   6.657  70.671  1.00  0.00    -0.453 Cl 
HETATM   11  C   UNL     1      -9.566   6.449  67.380  1.00  0.00    -0.120 A  
HETATM   12  N   UNL     1      -9.567   5.599  66.296  1.00  0.00    -0.168 NA 
HETATM   13  H   UNL     1     -10.272   4.861  66.276  1.00  0.00     0.000 HD 
HETATM   14  C   UNL     1      -8.645   5.672  65.182  1.00  0.00    -0.130 C  
HETATM   15  C   UNL     1      -8.637   8.257  68.721  1.00  0.00    -0.133 A  
HETATM   16  N   UNL     1      -7.321   6.010  65.674  1.00  0.00    -0.074 N  
HETATM   17  O   UNL     1      -7.755   8.495  65.385  1.00  0.00    -0.088 OA 
HETATM   18  S   UNL     1      -7.322   7.551  66.394  1.00  0.00    -0.084 S  
HETATM   19  H   UNL     1      -6.502   5.406  65.598  1.00  0.00     0.000 HD 
HETATM   20  C   UNL     1      -8.602   7.424  67.594  1.00  0.00    -0.119 A  
HETATM   21  O   UNL     1      -6.057   7.695  67.077  1.00  0.00    -0.048 OA 
BRANCH  14  22
HETATM   22  C   UNL     1      -8.676   4.349  64.336  1.00  0.00    -0.145 C  
HETATM   23  C   UNL     1      -9.091   4.725  62.876  1.00  0.00    -0.061 C  
HETATM   24  C   UNL     1     -10.501   4.094  62.752  1.00  0.00    -0.099 C  
HETATM   25  C   UNL     1     -11.030   3.862  64.171  1.00  0.00    -0.062 C  
HETATM   26  C   UNL     1      -9.723   3.230  64.652  1.00  0.00    -0.149 C  
HETATM   27  C   UNL     1      -9.703   2.134  63.575  1.00  0.00    -0.116 C  
HETATM   28  C   UNL     1     -10.218   2.646  62.441  1.00  0.00    -0.101 C  
ENDBRANCH  14  22
ENDBRANCH   2   7
TORSDOF 2
ENDMDL
MODEL      138
REMARK 921   NORMALIZED FREE ENERGY PREDICTED BY IDOCK:   -2.96 KCAL/MOL
REMARK 922        TOTAL FREE ENERGY PREDICTED BY IDOCK:   -3.38 KCAL/MOL
REMARK 923 INTER-LIGAND FREE ENERGY PREDICTED BY IDOCK:   -3.61 KCAL/MOL
REMARK 924 INTRA-LIGAND FREE ENERGY PREDICTED BY IDOCK:    0.23 KCAL/MOL
REMARK 927      BINDING AFFINITY PREDICTED BY RF-SCORE:    0.00 PKD
ROOT
HETATM    1  N   UNL     1     -10.532   8.093  66.600  1.00  0.00    -0.420 N  
HETATM    2  S   UNL     1      -9.671   8.309  68.028  1.00  0.00    -0.167 S  
HETATM    3  H1  UNL     1      -9.873   8.337  65.861  1.00  0.00     0.000 HD 
HETATM    4  H2  UNL     1     -11.499   7.786  66.496  1.00  0.00     0.000 HD 
HETATM    5  O   UNL     1     -10.605   7.964  69.076  1.00  0.00    -0.219 OA 
HETATM    6  O   UNL     1      -8.410   7.629  67.873  1.00  0.00    -0.121 OA 
ENDROOT
BRANCH   2   7
HETATM    7  C   UNL     1      -9.392  10.049  68.068  1.00  0.00    -0.130 A  
HETATM    8  C   UNL     1     -10.417  10.927  68.430  1.00  0.00    -0.183 A  
HETATM    9  C   UNL     1     -10.156  12.297  68.486  1.00  0.00    -0.192 A  
HETATM   10 CL   UNL     1     -12.031  10.438  68.817  1.00  0.00    -0.013 Cl 
HETATM   11  C   UNL     1      -8.886  12.818  68.203  1.00  0.00    -0.194 A  
HETATM   12  N   UNL     1      -8.719  14.185  68.260  1.00  0.00    -0.176 NA 
HETATM   13  H   UNL     1      -9.530  14.748  68.517  1.00  0.00     0.000 HD 
HETATM   14  C   UNL     1      -7.481  14.882  67.984  1.00  0.00    -0.126 C  
HETATM   15  C   UNL     1      -8.129  10.556  67.711  1.00  0.00    -0.106 A  
HETATM   16  N   UNL     1      -6.807  14.245  66.866  1.00  0.00     0.307 N  
HETATM   17  O   UNL     1      -5.512  12.705  68.415  1.00  0.00    -0.052 OA 
HETATM   18  S   UNL     1      -6.377  12.645  67.256  1.00  0.00     0.009 S  
HETATM   19  H   UNL     1      -6.618  14.694  65.970  1.00  0.00     0.000 HD 
HETATM   20  C   UNL     1      -7.907  11.940  67.763  1.00  0.00    -0.138 A  
HETATM   21  O   UNL     1      -5.959  12.013  66.025  1.00  0.00     0.257 OA 
BRANCH  14  22
HETATM   22  C   UNL     1      -7.733  16.416  67.765  1.00  0.00    -0.162 C  
HETATM   23  C   UNL     1      -8.856  16.862  68.759  1.00  0.00    -0.255 C  
HETATM   24  C   UNL     1     -10.042  17.172  67.812  1.00  0.00    -0.306 C  
HETATM   25  C   UNL     1      -9.775  16.456  66.485  1.00  0.00    -0.287 C  
HETATM   26  C   UNL     1      -8.325  16.938  66.413  1.00  0.00    -0.333 C  
HETATM   27  C   UNL     1      -8.679  18.430  66.504  1.00  0.00    -0.291 C  
HETATM   28  C   UNL     1      -9.747  18.563  67.313  1.00  0.00    -0.313 C  
ENDBRANCH  14  22
ENDBRANCH   2   7
TORSDOF 2
ENDMDL
MODEL      139
REMARK 921   NORMALIZED FREE ENERGY PREDICTED BY IDOCK:   -2.95 KCAL/MOL
REMARK 922        TOTAL FREE ENERGY PREDICTED BY IDOCK:   -3.36 KCAL/MOL
REMARK 923 INTER-LIGAND FREE ENERGY PREDICTED BY IDOCK:   -3.25 KCAL/MOL
REMARK 924 INTRA-LIGAND FREE ENERGY PREDICTED BY IDOCK:   -0.11 KCAL/MOL
REMARK 927      BINDING AFFINITY PREDICTED BY RF-SCORE:    0.00 PKD
ROOT
HETATM    1  N   UNL     1      -9.073  13.333  68.954  1.00  0.00    -0.373 N  
HETATM    2  S   UNL     1     -10.055  12.120  68.329  1.00  0.00    -0.210 S  
HETATM    3  H1  UNL     1      -8.191  13.238  68.451  1.00  0.00     0.000 HD 
HETATM    4  H2  UNL     1      -9.308  14.013  69.677  1.00  0.00     0.000 HD 
HETATM    5  O   UNL     1     -11.305  12.254  69.042  1.00  0.00    -0.244 OA 
HETATM    6  O   UNL     1      -9.982  12.210  66.892  1.00  0.00    -0.201 OA 
ENDROOT
BRANCH   2   7
HETATM    7  C   UNL     1      -9.255  10.642  68.861  1.00  0.00    -0.183 A  
HETATM    8  C   UNL     1      -7.966  10.332  68.421  1.00  0.00    -0.108 A  
HETATM    9  C   UNL     1      -7.344   9.173  68.887  1.00  0.00    -0.074 A  
HETATM   10 CL   UNL     1      -7.056  11.294  67.306  1.00  0.00    -0.105 Cl 
HETATM   11  C   UNL     1      -7.974   8.315  69.799  1.00  0.00    -0.106 A  
HETATM   12  N   UNL     1      -7.299   7.179  70.192  1.00  0.00    -0.078 NA 
HETATM   13  H   UNL     1      -6.368   7.027  69.805  1.00  0.00     0.000 HD 
HETATM   14  C   UNL     1      -7.810   6.186  71.114  1.00  0.00    -0.111 C  
HETATM   15  C   UNL     1      -9.932   9.759  69.721  1.00  0.00    -0.265 A  
HETATM   16  N   UNL     1      -9.227   5.983  70.866  1.00  0.00    -0.153 N  
HETATM   17  O   UNL     1      -9.865   7.772  72.552  1.00  0.00    -0.178 OA 
HETATM   18  S   UNL     1     -10.102   7.411  71.170  1.00  0.00    -0.184 S  
HETATM   19  H   UNL     1      -9.641   5.105  70.554  1.00  0.00     0.000 HD 
HETATM   20  C   UNL     1      -9.284   8.595  70.158  1.00  0.00    -0.159 A  
HETATM   21  O   UNL     1     -11.436   7.202  70.656  1.00  0.00    -0.287 OA 
BRANCH  14  22
HETATM   22  C   UNL     1      -6.970   4.862  71.041  1.00  0.00    -0.047 C  
HETATM   23  C   UNL     1      -5.765   5.113  70.075  1.00  0.00    -0.016 C  
HETATM   24  C   UNL     1      -6.113   4.218  68.860  1.00  0.00    -0.030 C  
HETATM   25  C   UNL     1      -7.615   3.923  68.917  1.00  0.00    -0.054 C  
HETATM   26  C   UNL     1      -7.581   3.569  70.405  1.00  0.00    -0.040 C  
HETATM   27  C   UNL     1      -6.517   2.471  70.253  1.00  0.00    -0.028 C  
HETATM   28  C   UNL     1      -5.658   2.845  69.286  1.00  0.00    -0.018 C  
ENDBRANCH  14  22
ENDBRANCH   2   7
TORSDOF 2
ENDMDL
MODEL      140
REMARK 921   NORMALIZED FREE ENERGY PREDICTED BY IDOCK:   -2.89 KCAL/MOL
REMARK 922        TOTAL FREE ENERGY PREDICTED BY IDOCK:   -3.30 KCAL/MOL
REMARK 923 INTER-LIGAND FREE ENERGY PREDICTED BY IDOCK:   -3.65 KCAL/MOL
REMARK 924 INTRA-LIGAND FREE ENERGY PREDICTED BY IDOCK:    0.35 KCAL/MOL
REMARK 927      BINDING AFFINITY PREDICTED BY RF-SCORE:    0.00 PKD
ROOT
HETATM    1  N   UNL     1      -8.224   5.628  69.056  1.00  0.00    -0.100 N  
HETATM    2  S   UNL     1      -9.473   6.743  69.219  1.00  0.00    -0.141 S  
HETATM    3  H1  UNL     1      -7.666   5.738  69.902  1.00  0.00     0.000 HD 
HETATM    4  H2  UNL     1      -8.061   4.984  68.282  1.00  0.00     0.000 HD 
HETATM    5  O   UNL     1     -10.264   6.586  68.020  1.00  0.00    -0.141 OA 
HETATM    6  O   UNL     1     -10.035   6.564  70.535  1.00  0.00    -0.182 OA 
ENDROOT
BRANCH   2   7
HETATM    7  C   UNL     1      -8.637   8.293  69.149  1.00  0.00    -0.138 A  
HETATM    8  C   UNL     1      -8.072   8.851  70.298  1.00  0.00    -0.123 A  
HETATM    9  C   UNL     1      -7.386  10.063  70.204  1.00  0.00    -0.171 A  
HETATM   10 CL   UNL     1      -8.166   8.143  71.875  1.00  0.00    -0.161 Cl 
HETATM   11  C   UNL     1      -7.235  10.732  68.982  1.00  0.00    -0.096 A  
HETATM   12  N   UNL     1      -6.563  11.935  68.981  1.00  0.00    -0.084 NA 
HETATM   13  H   UNL     1      -6.200  12.272  69.872  1.00  0.00     0.000 HD 
HETATM   14  C   UNL     1      -6.332  12.755  67.810  1.00  0.00    -0.137 C  
HETATM   15  C   UNL     1      -8.558   8.982  67.925  1.00  0.00    -0.125 A  
HETATM   16  N   UNL     1      -7.511  12.730  66.963  1.00  0.00    -0.377 N  
HETATM   17  O   UNL     1      -6.631  10.740  65.653  1.00  0.00    -0.106 OA 
HETATM   18  S   UNL     1      -7.806  11.155  66.390  1.00  0.00    -0.099 S  
HETATM   19  H   UNL     1      -8.084  13.544  66.741  1.00  0.00     0.000 HD 
HETATM   20  C   UNL     1      -7.875  10.205  67.870  1.00  0.00    -0.101 A  
HETATM   21  O   UNL     1      -9.118  11.169  65.785  1.00  0.00    -0.200 OA 
BRANCH  14  22
HETATM   22  C   UNL     1      -5.889  14.206  68.217  1.00  0.00    -0.116 C  
HETATM   23  C   UNL     1      -6.417  14.479  69.663  1.00  0.00    -0.148 C  
HETATM   24  C   UNL     1      -7.506  15.555  69.428  1.00  0.00    -0.219 C  
HETATM   25  C   UNL     1      -7.912  15.488  67.953  1.00  0.00    -0.146 C  
HETATM   26  C   UNL     1      -6.464  15.451  67.463  1.00  0.00    -0.174 C  
HETATM   27  C   UNL     1      -6.057  16.757  68.161  1.00  0.00    -0.132 C  
HETATM   28  C   UNL     1      -6.724  16.840  69.327  1.00  0.00    -0.229 C  
ENDBRANCH  14  22
ENDBRANCH   2   7
TORSDOF 2
ENDMDL
MODEL      141
REMARK 921   NORMALIZED FREE ENERGY PREDICTED BY IDOCK:   -2.64 KCAL/MOL
REMARK 922        TOTAL FREE ENERGY PREDICTED BY IDOCK:   -3.02 KCAL/MOL
REMARK 923 INTER-LIGAND FREE ENERGY PREDICTED BY IDOCK:   -3.39 KCAL/MOL
REMARK 924 INTRA-LIGAND FREE ENERGY PREDICTED BY IDOCK:    0.37 KCAL/MOL
REMARK 927      BINDING AFFINITY PREDICTED BY RF-SCORE:    0.00 PKD
ROOT
HETATM    1  N   UNL     1      -7.048  10.688  63.660  1.00  0.00    -0.346 N  
HETATM    2  S   UNL     1      -8.630  10.164  63.887  1.00  0.00    -0.208 S  
HETATM    3  H1  UNL     1      -6.520   9.839  63.460  1.00  0.00     0.000 HD 
HETATM    4  H2  UNL     1      -6.695  11.644  63.712  1.00  0.00     0.000 HD 
HETATM    5  O   UNL     1      -9.378  11.366  64.171  1.00  0.00    -0.162 OA 
HETATM    6  O   UNL     1      -8.957   9.303  62.778  1.00  0.00    -0.227 OA 
ENDROOT
BRANCH   2   7
HETATM    7  C   UNL     1      -8.525   9.200  65.360  1.00  0.00    -0.149 A  
HETATM    8  C   UNL     1      -8.030   7.894  65.323  1.00  0.00    -0.126 A  
HETATM    9  C   UNL     1      -7.926   7.169  66.510  1.00  0.00    -0.112 A  
HETATM   10 CL   UNL     1      -7.529   7.080  63.881  1.00  0.00    -0.088 Cl 
HETATM   11  C   UNL     1      -8.293   7.720  67.745  1.00  0.00    -0.125 A  
HETATM   12  N   UNL     1      -8.179   6.927  68.868  1.00  0.00    -0.120 NA 
HETATM   13  H   UNL     1      -7.824   5.980  68.741  1.00  0.00     0.000 HD 
HETATM   14  C   UNL     1      -8.527   7.337  70.212  1.00  0.00    -0.137 C  
HETATM   15  C   UNL     1      -8.965   9.748  66.578  1.00  0.00    -0.172 A  
HETATM   16  N   UNL     1      -9.731   8.149  70.173  1.00  0.00    -0.175 N  
HETATM   17  O   UNL     1      -8.383  10.289  69.945  1.00  0.00    -0.143 OA 
HETATM   18  S   UNL     1      -9.464   9.580  69.292  1.00  0.00    -0.178 S  
HETATM   19  H   UNL     1     -10.615   7.896  70.614  1.00  0.00     0.000 HD 
HETATM   20  C   UNL     1      -8.861   8.985  67.750  1.00  0.00    -0.124 A  
HETATM   21  O   UNL     1     -10.757  10.190  69.082  1.00  0.00    -0.203 OA 
BRANCH  14  22
HETATM   22  C   UNL     1      -8.643   6.097  71.168  1.00  0.00    -0.125 C  
HETATM   23  C   UNL     1      -7.294   5.969  71.950  1.00  0.00    -0.094 C  
HETATM   24  C   UNL     1      -6.687   4.669  71.365  1.00  0.00    -0.031 C  
HETATM   25  C   UNL     1      -7.370   4.403  70.021  1.00  0.00    -0.046 C  
HETATM   26  C   UNL     1      -8.771   4.652  70.581  1.00  0.00    -0.129 C  
HETATM   27  C   UNL     1      -8.660   3.593  71.688  1.00  0.00    -0.114 C  
HETATM   28  C   UNL     1      -7.387   3.573  72.127  1.00  0.00    -0.055 C  
ENDBRANCH  14  22
ENDBRANCH   2   7
TORSDOF 2
ENDMDL
MODEL      142
REMARK 921   NORMALIZED FREE ENERGY PREDICTED BY IDOCK:   -2.58 KCAL/MOL
REMARK 922        TOTAL FREE ENERGY PREDICTED BY IDOCK:   -2.95 KCAL/MOL
REMARK 923 INTER-LIGAND FREE ENERGY PREDICTED BY IDOCK:   -2.84 KCAL/MOL
REMARK 924 INTRA-LIGAND FREE ENERGY PREDICTED BY IDOCK:   -0.11 KCAL/MOL
REMARK 927      BINDING AFFINITY PREDICTED BY RF-SCORE:    0.00 PKD
ROOT
HETATM    1  N   UNL     1      -8.417  12.234  68.519  1.00  0.00    -0.312 N  
HETATM    2  S   UNL     1      -9.423  11.483  67.400  1.00  0.00    -0.166 S  
HETATM    3  H1  UNL     1      -7.511  12.291  68.057  1.00  0.00     0.000 HD 
HETATM    4  H2  UNL     1      -8.661  12.560  69.455  1.00  0.00     0.000 HD 
HETATM    5  O   UNL     1     -10.708  11.402  68.055  1.00  0.00    -0.182 OA 
HETATM    6  O   UNL     1      -9.247  12.167  66.143  1.00  0.00    -0.220 OA 
ENDROOT
BRANCH   2   7
HETATM    7  C   UNL     1      -8.745   9.860  67.278  1.00  0.00    -0.128 A  
HETATM    8  C   UNL     1      -7.443   9.664  66.811  1.00  0.00    -0.094 A  
HETATM    9  C   UNL     1      -6.922   8.371  66.759  1.00  0.00    -0.073 A  
HETATM   10 CL   UNL     1      -6.400  10.934  66.268  1.00  0.00    -0.128 Cl 
HETATM   11  C   UNL     1      -7.666   7.260  67.178  1.00  0.00    -0.112 A  
HETATM   12  N   UNL     1      -7.084   6.014  67.073  1.00  0.00    -0.069 NA 
HETATM   13  H   UNL     1      -6.135   5.968  66.703  1.00  0.00     0.000 HD 
HETATM   14  C   UNL     1      -7.718   4.768  67.448  1.00  0.00    -0.090 C  
HETATM   15  C   UNL     1      -9.534   8.752  67.637  1.00  0.00    -0.168 A  
HETATM   16  N   UNL     1      -9.120   4.806  67.068  1.00  0.00    -0.115 N  
HETATM   17  O   UNL     1      -9.794   5.746  69.328  1.00  0.00    -0.151 OA 
HETATM   18  S   UNL     1      -9.940   6.032  67.917  1.00  0.00    -0.144 S  
HETATM   19  H   UNL     1      -9.553   4.183  66.386  1.00  0.00     0.000 HD 
HETATM   20  C   UNL     1      -8.984   7.465  67.558  1.00  0.00    -0.126 A  
HETATM   21  O   UNL     1     -11.238   6.172  67.298  1.00  0.00    -0.288 OA 
BRANCH  14  22
HETATM   22  C   UNL     1      -6.945   3.539  66.850  1.00  0.00    -0.054 C  
HETATM   23  C   UNL     1      -5.648   4.079  66.162  1.00  0.00    -0.018 C  
HETATM   24  C   UNL     1      -5.934   3.831  64.660  1.00  0.00    -0.022 C  
HETATM   25  C   UNL     1      -7.449   3.671  64.497  1.00  0.00    -0.072 C  
HETATM   26  C   UNL     1      -7.564   2.706  65.678  1.00  0.00    -0.076 C  
HETATM   27  C   UNL     1      -6.550   1.695  65.121  1.00  0.00    -0.023 C  
HETATM   28  C   UNL     1      -5.591   2.376  64.466  1.00  0.00    -0.009 C  
ENDBRANCH  14  22
ENDBRANCH   2   7
TORSDOF 2
ENDMDL
MODEL      143
REMARK 921   NORMALIZED FREE ENERGY PREDICTED BY IDOCK:   -2.49 KCAL/MOL
REMARK 922        TOTAL FREE ENERGY PREDICTED BY IDOCK:   -2.85 KCAL/MOL
REMARK 923 INTER-LIGAND FREE ENERGY PREDICTED BY IDOCK:   -3.58 KCAL/MOL
REMARK 924 INTRA-LIGAND FREE ENERGY PREDICTED BY IDOCK:    0.73 KCAL/MOL
REMARK 927      BINDING AFFINITY PREDICTED BY RF-SCORE:    0.00 PKD
ROOT
HETATM    1  N   UNL     1      -6.309   3.825  65.303  1.00  0.00    -0.031 N  
HETATM    2  S   UNL     1      -6.812   4.421  66.793  1.00  0.00    -0.052 S  
HETATM    3  H1  UNL     1      -5.588   4.476  64.994  1.00  0.00     0.000 HD 
HETATM    4  H2  UNL     1      -6.651   2.996  64.817  1.00  0.00     0.000 HD 
HETATM    5  O   UNL     1      -7.835   3.499  67.232  1.00  0.00    -0.078 OA 
HETATM    6  O   UNL     1      -5.627   4.676  67.573  1.00  0.00    -0.015 OA 
ENDROOT
BRANCH   2   7
HETATM    7  C   UNL     1      -7.574   5.955  66.375  1.00  0.00    -0.091 A  
HETATM    8  C   UNL     1      -7.499   6.456  65.073  1.00  0.00    -0.084 A  
HETATM    9  C   UNL     1      -8.142   7.655  64.763  1.00  0.00    -0.121 A  
HETATM   10 CL   UNL     1      -6.641   5.690  63.779  1.00  0.00    -0.035 Cl 
HETATM   11  C   UNL     1      -8.875   8.367  65.722  1.00  0.00    -0.165 A  
HETATM   12  N   UNL     1      -9.461   9.554  65.339  1.00  0.00    -0.279 NA 
HETATM   13  H   UNL     1      -9.338   9.849  64.370  1.00  0.00     0.000 HD 
HETATM   14  C   UNL     1     -10.239  10.414  66.206  1.00  0.00    -0.222 C  
HETATM   15  C   UNL     1      -8.246   6.688  67.370  1.00  0.00    -0.121 A  
HETATM   16  N   UNL     1      -9.630  10.447  67.524  1.00  0.00    -0.155 N  
HETATM   17  O   UNL     1     -11.041   8.491  68.318  1.00  0.00     0.119 OA 
HETATM   18  S   UNL     1      -9.656   8.902  68.238  1.00  0.00    -0.148 S  
HETATM   19  H   UNL     1      -9.240  11.282  67.963  1.00  0.00     0.000 HD 
HETATM   20  C   UNL     1      -8.867   7.898  67.027  1.00  0.00    -0.130 A  
HETATM   21  O   UNL     1      -8.812   8.968  69.409  1.00  0.00    -0.137 OA 
BRANCH  14  22
HETATM   22  C   UNL     1     -10.424  11.838  65.571  1.00  0.00    -0.311 C  
HETATM   23  C   UNL     1     -11.691  12.489  66.216  1.00  0.00    -0.462 C  
HETATM   24  C   UNL     1     -12.693  12.522  65.036  1.00  0.00    -0.302 C  
HETATM   25  C   UNL     1     -12.216  11.504  63.995  1.00  0.00    -0.033 C  
HETATM   26  C   UNL     1     -10.767  11.990  64.051  1.00  0.00    -0.426 C  
HETATM   27  C   UNL     1     -11.105  13.448  63.704  1.00  0.00     0.082 C  
HETATM   28  C   UNL     1     -12.293  13.751  64.261  1.00  0.00    -0.384 C  
ENDBRANCH  14  22
ENDBRANCH   2   7
TORSDOF 2
ENDMDL
MODEL      144
REMARK 921   NORMALIZED FREE ENERGY PREDICTED BY IDOCK:   -2.00 KCAL/MOL
REMARK 922        TOTAL FREE ENERGY PREDICTED BY IDOCK:   -2.31 KCAL/MOL
REMARK 923 INTER-LIGAND FREE ENERGY PREDICTED BY IDOCK:   -2.61 KCAL/MOL
REMARK 924 INTRA-LIGAND FREE ENERGY PREDICTED BY IDOCK:    0.30 KCAL/MOL
REMARK 927      BINDING AFFINITY PREDICTED BY RF-SCORE:    0.00 PKD
ROOT
HETATM    1  N   UNL     1     -12.315  14.888  63.769  1.00  0.00    -1.071 N  
HETATM    2  S   UNL     1     -11.204  15.442  64.904  1.00  0.00    -0.356 S  
HETATM    3  H1  UNL     1     -13.211  14.904  64.254  1.00  0.00     0.000 HD 
HETATM    4  H2  UNL     1     -12.132  14.601  62.807  1.00  0.00     0.000 HD 
HETATM    5  O   UNL     1      -9.933  15.420  64.216  1.00  0.00     0.530 OA 
HETATM    6  O   UNL     1     -11.744  16.651  65.475  1.00  0.00     0.748 OA 
ENDROOT
BRANCH   2   7
HETATM    7  C   UNL     1     -11.211  14.169  66.124  1.00  0.00    -0.326 A  
HETATM    8  C   UNL     1     -10.912  12.849  65.779  1.00  0.00    -0.278 A  
HETATM    9  C   UNL     1     -10.891  11.870  66.773  1.00  0.00    -0.307 A  
HETATM   10 CL   UNL     1     -10.565  12.316  64.169  1.00  0.00    -0.371 Cl 
HETATM   11  C   UNL     1     -11.148  12.177  68.116  1.00  0.00    -0.248 A  
HETATM   12  N   UNL     1     -11.128  11.147  69.031  1.00  0.00    -0.222 NA 
HETATM   13  H   UNL     1     -10.918  10.212  68.683  1.00  0.00     0.000 HD 
HETATM   14  C   UNL     1     -11.384  11.291  70.449  1.00  0.00     0.025 C  
HETATM   15  C   UNL     1     -11.541  14.488  67.454  1.00  0.00    -0.406 A  
HETATM   16  N   UNL     1     -12.458  12.249  70.650  1.00  0.00    -0.285 N  
HETATM   17  O   UNL     1     -10.817  14.180  70.823  1.00  0.00     0.508 OA 
HETATM   18  S   UNL     1     -12.003  13.790  70.089  1.00  0.00    -0.324 S  
HETATM   19  H   UNL     1     -13.360  12.029  71.071  1.00  0.00     0.000 HD 
HETATM   20  C   UNL     1     -11.525  13.476  68.425  1.00  0.00    -0.311 A  
HETATM   21  O   UNL     1     -13.197  14.603  70.085  1.00  0.00    -0.060 OA 
BRANCH  14  22
HETATM   22  C   UNL     1     -11.660   9.898  71.117  1.00  0.00    -0.468 C  
HETATM   23  C   UNL     1     -12.447   9.021  70.088  1.00  0.00     0.746 C  
HETATM   24  C   UNL     1     -13.847   8.907  70.741  1.00  0.00     0.337 C  
HETATM   25  C   UNL     1     -13.980  10.048  71.753  1.00  0.00     0.039 C  
HETATM   26  C   UNL     1     -12.602   9.788  72.363  1.00  0.00    -0.126 C  
HETATM   27  C   UNL     1     -12.888   8.320  72.713  1.00  0.00     0.022 C  
HETATM   28  C   UNL     1     -13.680   7.804  71.754  1.00  0.00    -0.410 C  
ENDBRANCH  14  22
ENDBRANCH   2   7
TORSDOF 2
ENDMDL
MODEL      145
REMARK 921   NORMALIZED FREE ENERGY PREDICTED BY IDOCK:   -1.95 KCAL/MOL
REMARK 922        TOTAL FREE ENERGY PREDICTED BY IDOCK:   -2.24 KCAL/MOL
REMARK 923 INTER-LIGAND FREE ENERGY PREDICTED BY IDOCK:   -2.76 KCAL/MOL
REMARK 924 INTRA-LIGAND FREE ENERGY PREDICTED BY IDOCK:    0.51 KCAL/MOL
REMARK 927      BINDING AFFINITY PREDICTED BY RF-SCORE:    0.00 PKD
ROOT
HETATM    1  N   UNL     1      -5.201   9.491  64.609  1.00  0.00    -0.049 N  
HETATM    2  S   UNL     1      -6.693   8.873  65.081  1.00  0.00    -0.072 S  
HETATM    3  H1  UNL     1      -4.755   9.783  65.478  1.00  0.00     0.000 HD 
HETATM    4  H2  UNL     1      -4.826   9.558  63.663  1.00  0.00     0.000 HD 
HETATM    5  O   UNL     1      -7.325   8.458  63.849  1.00  0.00    -0.093 OA 
HETATM    6  O   UNL     1      -6.449   7.951  66.163  1.00  0.00    -0.045 OA 
ENDROOT
BRANCH   2   7
HETATM    7  C   UNL     1      -7.535  10.291  65.702  1.00  0.00    -0.149 A  
HETATM    8  C   UNL     1      -6.881  11.201  66.534  1.00  0.00    -0.126 A  
HETATM    9  C   UNL     1      -7.563  12.333  66.982  1.00  0.00    -0.071 A  
HETATM   10 CL   UNL     1      -5.246  11.028  67.077  1.00  0.00    -0.049 Cl 
HETATM   11  C   UNL     1      -8.889  12.590  66.607  1.00  0.00    -0.142 A  
HETATM   12  N   UNL     1      -9.497  13.719  67.111  1.00  0.00    -0.235 NA 
HETATM   13  H   UNL     1      -8.945  14.317  67.726  1.00  0.00     0.000 HD 
HETATM   14  C   UNL     1     -10.860  14.122  66.834  1.00  0.00    -0.296 C  
HETATM   15  C   UNL     1      -8.888  10.493  65.370  1.00  0.00    -0.203 A  
HETATM   16  N   UNL     1     -11.714  12.947  66.803  1.00  0.00    -0.366 N  
HETATM   17  O   UNL     1     -11.367  12.656  64.304  1.00  0.00    -0.321 OA 
HETATM   18  S   UNL     1     -11.258  11.905  65.537  1.00  0.00    -0.264 S  
HETATM   19  H   UNL     1     -12.481  12.771  67.451  1.00  0.00     0.000 HD 
HETATM   20  C   UNL     1      -9.548  11.633  65.850  1.00  0.00    -0.229 A  
HETATM   21  O   UNL     1     -11.971  10.665  65.739  1.00  0.00     1.234 OA 
BRANCH  14  22
HETATM   22  C   UNL     1     -11.343  15.216  67.851  1.00  0.00    -0.346 C  
HETATM   23  C   UNL     1     -10.350  16.421  67.766  1.00  0.00    -0.287 C  
HETATM   24  C   UNL     1      -9.629  16.363  69.136  1.00  0.00    -0.249 C  
HETATM   25  C   UNL     1      -9.821  14.952  69.700  1.00  0.00    -0.010 C  
HETATM   26  C   UNL     1     -11.318  14.934  69.390  1.00  0.00    -0.312 C  
HETATM   27  C   UNL     1     -11.633  16.206  70.191  1.00  0.00    -0.254 C  
HETATM   28  C   UNL     1     -10.589  17.049  70.074  1.00  0.00     0.176 C  
ENDBRANCH  14  22
ENDBRANCH   2   7
TORSDOF 2
ENDMDL
MODEL      146
REMARK 921   NORMALIZED FREE ENERGY PREDICTED BY IDOCK:   -1.56 KCAL/MOL
REMARK 922        TOTAL FREE ENERGY PREDICTED BY IDOCK:   -1.82 KCAL/MOL
REMARK 923 INTER-LIGAND FREE ENERGY PREDICTED BY IDOCK:   -2.27 KCAL/MOL
REMARK 924 INTRA-LIGAND FREE ENERGY PREDICTED BY IDOCK:    0.45 KCAL/MOL
REMARK 927      BINDING AFFINITY PREDICTED BY RF-SCORE:    0.00 PKD
ROOT
HETATM    1  N   UNL     1      -5.407   9.621  64.596  1.00  0.00    -0.058 N  
HETATM    2  S   UNL     1      -6.650   8.702  65.258  1.00  0.00    -0.064 S  
HETATM    3  H1  UNL     1      -4.810   9.859  65.387  1.00  0.00     0.000 HD 
HETATM    4  H2  UNL     1      -5.279   9.882  63.618  1.00  0.00     0.000 HD 
HETATM    5  O   UNL     1      -7.496   8.364  64.136  1.00  0.00    -0.101 OA 
HETATM    6  O   UNL     1      -6.039   7.692  66.086  1.00  0.00    -0.037 OA 
ENDROOT
BRANCH   2   7
HETATM    7  C   UNL     1      -7.501   9.857  66.282  1.00  0.00    -0.102 A  
HETATM    8  C   UNL     1      -6.848  10.992  66.770  1.00  0.00    -0.128 A  
HETATM    9  C   UNL     1      -7.558  11.906  67.549  1.00  0.00    -0.140 A  
HETATM   10 CL   UNL     1      -5.182  11.359  66.484  1.00  0.00    -0.124 Cl 
HETATM   11  C   UNL     1      -8.916  11.725  67.846  1.00  0.00    -0.180 A  
HETATM   12  N   UNL     1      -9.536  12.665  68.641  1.00  0.00    -0.408 NA 
HETATM   13  H   UNL     1      -8.974  13.452  68.966  1.00  0.00     0.000 HD 
HETATM   14  C   UNL     1     -10.924  12.620  69.050  1.00  0.00    -0.191 C  
HETATM   15  C   UNL     1      -8.844   9.620  66.626  1.00  0.00    -0.153 A  
HETATM   16  N   UNL     1     -11.295  11.248  69.347  1.00  0.00    -0.267 N  
HETATM   17  O   UNL     1     -12.060  10.848  66.959  1.00  0.00     0.300 OA 
HETATM   18  S   UNL     1     -11.177  10.277  67.954  1.00  0.00    -0.099 S  
HETATM   19  H   UNL     1     -11.587  10.911  70.265  1.00  0.00     0.000 HD 
HETATM   20  C   UNL     1      -9.522  10.552  67.424  1.00  0.00    -0.153 A  
HETATM   21  O   UNL     1     -11.305   8.905  68.388  1.00  0.00     0.319 OA 
BRANCH  14  22
HETATM   22  C   UNL     1     -11.195  13.609  70.239  1.00  0.00     0.243 C  
HETATM   23  C   UNL     1     -12.717  13.966  70.227  1.00  0.00    -0.244 C  
HETATM   24  C   UNL     1     -12.712  15.459  69.813  1.00  0.00    -0.034 C  
HETATM   25  C   UNL     1     -11.366  15.748  69.141  1.00  0.00    -0.349 C  
HETATM   26  C   UNL     1     -10.565  15.042  70.237  1.00  0.00    -0.115 C  
HETATM   27  C   UNL     1     -11.131  15.896  71.382  1.00  0.00    -0.152 C  
HETATM   28  C   UNL     1     -12.415  16.186  71.100  1.00  0.00    -0.032 C  
ENDBRANCH  14  22
ENDBRANCH   2   7
TORSDOF 2
ENDMDL
MODEL      147
REMARK 921   NORMALIZED FREE ENERGY PREDICTED BY IDOCK:   -1.39 KCAL/MOL
REMARK 922        TOTAL FREE ENERGY PREDICTED BY IDOCK:   -1.62 KCAL/MOL
REMARK 923 INTER-LIGAND FREE ENERGY PREDICTED BY IDOCK:   -1.95 KCAL/MOL
REMARK 924 INTRA-LIGAND FREE ENERGY PREDICTED BY IDOCK:    0.33 KCAL/MOL
REMARK 927      BINDING AFFINITY PREDICTED BY RF-SCORE:    0.00 PKD
ROOT
HETATM    1  N   UNL     1     -12.275  11.255  65.664  1.00  0.00     1.442 N  
HETATM    2  S   UNL     1     -11.556  11.398  67.178  1.00  0.00     0.037 S  
HETATM    3  H1  UNL     1     -11.495  11.135  65.018  1.00  0.00     0.000 HD 
HETATM    4  H2  UNL     1     -13.270  11.281  65.442  1.00  0.00     0.000 HD 
HETATM    5  O   UNL     1     -12.661  11.567  68.095  1.00  0.00     0.123 OA 
HETATM    6  O   UNL     1     -10.614  10.314  67.307  1.00  0.00    -0.239 OA 
ENDROOT
BRANCH   2   7
HETATM    7  C   UNL     1     -10.678  12.922  67.061  1.00  0.00    -0.257 A  
HETATM    8  C   UNL     1      -9.622  13.069  66.159  1.00  0.00    -0.202 A  
HETATM    9  C   UNL     1      -8.969  14.298  66.064  1.00  0.00     0.259 A  
HETATM   10 CL   UNL     1      -9.039  11.810  65.125  1.00  0.00     0.065 Cl 
HETATM   11  C   UNL     1      -9.353  15.399  66.843  1.00  0.00    -0.236 A  
HETATM   12  N   UNL     1      -8.641  16.571  66.704  1.00  0.00    -0.226 NA 
HETATM   13  H   UNL     1      -7.874  16.579  66.031  1.00  0.00     0.000 HD 
HETATM   14  C   UNL     1      -8.898  17.791  67.439  1.00  0.00    -0.240 C  
HETATM   15  C   UNL     1     -11.034  13.992  67.903  1.00  0.00    -0.261 A  
HETATM   16  N   UNL     1      -9.246  17.463  68.811  1.00  0.00    -0.267 N  
HETATM   17  O   UNL     1     -11.721  17.365  68.248  1.00  0.00     0.554 OA 
HETATM   18  S   UNL     1     -10.688  16.560  68.866  1.00  0.00    -0.349 S  
HETATM   19  H   UNL     1      -8.702  17.737  69.629  1.00  0.00     0.000 HD 
HETATM   20  C   UNL     1     -10.346  15.209  67.792  1.00  0.00    -0.243 A  
HETATM   21  O   UNL     1     -10.817  16.060  70.216  1.00  0.00    -0.324 OA 
BRANCH  14  22
HETATM   22  C   UNL     1      -7.688  18.785  67.325  1.00  0.00    -0.241 C  
HETATM   23  C   UNL     1      -6.388  18.001  67.705  1.00  0.00    -0.179 C  
HETATM   24  C   UNL     1      -5.983  18.650  69.051  1.00  0.00    -0.235 C  
HETATM   25  C   UNL     1      -7.223  19.343  69.623  1.00  0.00    -0.112 C  
HETATM   26  C   UNL     1      -7.574  20.010  68.293  1.00  0.00    -0.258 C  
HETATM   27  C   UNL     1      -6.217  20.714  68.137  1.00  0.00    -0.350 C  
HETATM   28  C   UNL     1      -5.263  19.908  68.640  1.00  0.00    -0.211 C  
ENDBRANCH  14  22
ENDBRANCH   2   7
TORSDOF 2
ENDMDL
MODEL      148
REMARK 921   NORMALIZED FREE ENERGY PREDICTED BY IDOCK:    0.73 KCAL/MOL
REMARK 922        TOTAL FREE ENERGY PREDICTED BY IDOCK:    0.74 KCAL/MOL
REMARK 923 INTER-LIGAND FREE ENERGY PREDICTED BY IDOCK:    0.30 KCAL/MOL
REMARK 924 INTRA-LIGAND FREE ENERGY PREDICTED BY IDOCK:    0.44 KCAL/MOL
REMARK 927      BINDING AFFINITY PREDICTED BY RF-SCORE:    0.00 PKD
ROOT
HETATM    1  N   UNL     1      -7.292  11.686  65.623  1.00  0.00     0.153 N  
HETATM    2  S   UNL     1      -7.660  10.181  64.968  1.00  0.00    -0.128 S  
HETATM    3  H1  UNL     1      -6.667  11.484  66.402  1.00  0.00     0.000 HD 
HETATM    4  H2  UNL     1      -7.623  12.599  65.309  1.00  0.00     0.000 HD 
HETATM    5  O   UNL     1      -8.547  10.467  63.864  1.00  0.00    -0.170 OA 
HETATM    6  O   UNL     1      -6.413   9.480  64.786  1.00  0.00    -0.076 OA 
ENDROOT
BRANCH   2   7
HETATM    7  C   UNL     1      -8.584   9.402  66.251  1.00  0.00    -0.131 A  
HETATM    8  C   UNL     1      -9.947   9.663  66.407  1.00  0.00    -0.255 A  
HETATM    9  C   UNL     1     -10.660   9.004  67.409  1.00  0.00    -0.309 A  
HETATM   10 CL   UNL     1     -10.845  10.777  65.434  1.00  0.00    -0.142 Cl 
HETATM   11  C   UNL     1     -10.048   8.073  68.259  1.00  0.00    -0.196 A  
HETATM   12  N   UNL     1     -10.819   7.483  69.237  1.00  0.00    -0.386 NA 
HETATM   13  H   UNL     1     -11.802   7.750  69.286  1.00  0.00     0.000 HD 
HETATM   14  C   UNL     1     -10.339   6.514  70.201  1.00  0.00    -0.201 C  
HETATM   15  C   UNL     1      -7.934   8.523  67.137  1.00  0.00    -0.101 A  
HETATM   16  N   UNL     1      -9.005   6.887  70.636  1.00  0.00    -0.151 N  
HETATM   17  O   UNL     1      -7.927   5.494  68.806  1.00  0.00    -0.093 OA 
HETATM   18  S   UNL     1      -7.912   6.843  69.332  1.00  0.00    -0.116 S  
HETATM   19  H   UNL     1      -8.756   7.140  71.592  1.00  0.00     0.000 HD 
HETATM   20  C   UNL     1      -8.677   7.890  68.143  1.00  0.00    -0.126 A  
HETATM   21  O   UNL     1      -6.692   7.469  69.787  1.00  0.00    -0.042 OA 
BRANCH  14  22
HETATM   22  C   UNL     1     -11.356   6.346  71.385  1.00  0.00    -0.354 C  
HETATM   23  C   UNL     1     -12.782   6.161  70.769  1.00  0.00     1.179 C  
HETATM   24  C   UNL     1     -13.497   7.474  71.171  1.00  0.00    -0.228 C  
HETATM   25  C   UNL     1     -12.417   8.507  71.505  1.00  0.00    -0.353 C  
HETATM   26  C   UNL     1     -11.624   7.530  72.374  1.00  0.00    -0.356 C  
HETATM   27  C   UNL     1     -12.797   7.210  73.314  1.00  0.00     2.293 C  
HETATM   28  C   UNL     1     -13.933   7.224  72.592  1.00  0.00     0.590 C  
ENDBRANCH  14  22
ENDBRANCH   2   7
TORSDOF 2
ENDMDL
MODEL      149
REMARK 921   NORMALIZED FREE ENERGY PREDICTED BY IDOCK:    8.86 KCAL/MOL
REMARK 922        TOTAL FREE ENERGY PREDICTED BY IDOCK:    9.83 KCAL/MOL
REMARK 923 INTER-LIGAND FREE ENERGY PREDICTED BY IDOCK:    9.38 KCAL/MOL
REMARK 924 INTRA-LIGAND FREE ENERGY PREDICTED BY IDOCK:    0.44 KCAL/MOL
REMARK 927      BINDING AFFINITY PREDICTED BY RF-SCORE:    0.00 PKD
ROOT
HETATM    1  N   UNL     1     -10.592  13.414  73.526  1.00  0.00     8.656 N  
HETATM    2  S   UNL     1     -11.835  14.431  73.027  1.00  0.00     0.617 S  
HETATM    3  H1  UNL     1      -9.736  13.922  73.305  1.00  0.00     0.000 HD 
HETATM    4  H2  UNL     1     -10.677  12.492  73.955  1.00  0.00     0.000 HD 
HETATM    5  O   UNL     1     -13.048  13.711  73.340  1.00  0.00    -0.234 OA 
HETATM    6  O   UNL     1     -11.560  15.738  73.570  1.00  0.00    -0.212 OA 
ENDROOT
BRANCH   2   7
HETATM    7  C   UNL     1     -11.637  14.475  71.276  1.00  0.00    -0.110 A  
HETATM    8  C   UNL     1     -12.751  14.498  70.433  1.00  0.00    -0.322 A  
HETATM    9  C   UNL     1     -12.563  14.568  69.053  1.00  0.00     0.213 A  
HETATM   10 CL   UNL     1     -14.392  14.436  70.982  1.00  0.00    -0.037 Cl 
HETATM   11  C   UNL     1     -11.283  14.631  68.485  1.00  0.00    -0.271 A  
HETATM   12  N   UNL     1     -11.185  14.676  67.111  1.00  0.00    -0.333 NA 
HETATM   13  H   UNL     1     -12.054  14.671  66.577  1.00  0.00     0.000 HD 
HETATM   14  C   UNL     1      -9.944  14.730  66.368  1.00  0.00    -0.277 C  
HETATM   15  C   UNL     1     -10.343  14.466  70.725  1.00  0.00     1.395 A  
HETATM   16  N   UNL     1      -8.961  13.874  67.009  1.00  0.00    -0.237 N  
HETATM   17  O   UNL     1      -8.104  15.787  68.443  1.00  0.00    -0.135 OA 
HETATM   18  S   UNL     1      -8.604  14.435  68.576  1.00  0.00    -0.165 S  
HETATM   19  H   UNL     1      -8.541  13.050  66.579  1.00  0.00     0.000 HD 
HETATM   20  C   UNL     1     -10.191  14.522  69.332  1.00  0.00    -0.035 A  
HETATM   21  O   UNL     1      -7.835  13.399  69.226  1.00  0.00     0.214 OA 
BRANCH  14  22
HETATM   22  C   UNL     1     -10.176  14.386  64.854  1.00  0.00    -0.357 C  
HETATM   23  C   UNL     1     -11.409  15.211  64.360  1.00  0.00    -0.211 C  
HETATM   24  C   UNL     1     -12.477  14.114  64.125  1.00  0.00    -0.267 C  
HETATM   25  C   UNL     1     -12.053  12.876  64.920  1.00  0.00    -0.479 C  
HETATM   26  C   UNL     1     -10.607  12.943  64.426  1.00  0.00    -0.418 C  
HETATM   27  C   UNL     1     -10.976  12.896  62.936  1.00  0.00     1.317 C  
HETATM   28  C   UNL     1     -12.132  13.564  62.764  1.00  0.00     1.074 C  
ENDBRANCH  14  22
ENDBRANCH   2   7
TORSDOF 2
ENDMDL
MODEL      150
REMARK 921   NORMALIZED FREE ENERGY PREDICTED BY IDOCK:   12.10 KCAL/MOL
REMARK 922        TOTAL FREE ENERGY PREDICTED BY IDOCK:   13.45 KCAL/MOL
REMARK 923 INTER-LIGAND FREE ENERGY PREDICTED BY IDOCK:   13.29 KCAL/MOL
REMARK 924 INTRA-LIGAND FREE ENERGY PREDICTED BY IDOCK:    0.16 KCAL/MOL
REMARK 927      BINDING AFFINITY PREDICTED BY RF-SCORE:    0.00 PKD
ROOT
HETATM    1  N   UNL     1      -9.329  12.010  70.140  1.00  0.00     2.511 N  
HETATM    2  S   UNL     1      -8.508  10.878  69.205  1.00  0.00     0.012 S  
HETATM    3  H1  UNL     1      -8.944  11.900  71.077  1.00  0.00     0.000 HD 
HETATM    4  H2  UNL     1     -10.052  12.662  69.836  1.00  0.00     0.000 HD 
HETATM    5  O   UNL     1      -9.053  11.034  67.876  1.00  0.00    -0.141 OA 
HETATM    6  O   UNL     1      -7.101  11.040  69.478  1.00  0.00    -0.126 OA 
ENDROOT
BRANCH   2   7
HETATM    7  C   UNL     1      -9.057   9.339  69.866  1.00  0.00    -0.191 A  
HETATM    8  C   UNL     1      -8.138   8.357  70.241  1.00  0.00    -0.104 A  
HETATM    9  C   UNL     1      -8.601   7.163  70.795  1.00  0.00    -0.146 A  
HETATM   10 CL   UNL     1      -6.423   8.504  70.062  1.00  0.00    -0.038 Cl 
HETATM   11  C   UNL     1      -9.967   6.925  70.998  1.00  0.00    -0.188 A  
HETATM   12  N   UNL     1     -10.342   5.710  71.529  1.00  0.00    -0.214 NA 
HETATM   13  H   UNL     1      -9.600   5.047  71.757  1.00  0.00     0.000 HD 
HETATM   14  C   UNL     1     -11.706   5.302  71.789  1.00  0.00     0.607 C  
HETATM   15  C   UNL     1     -10.436   9.094  69.996  1.00  0.00    -0.244 A  
HETATM   16  N   UNL     1     -12.563   5.774  70.715  1.00  0.00     1.857 N  
HETATM   17  O   UNL     1     -13.052   7.942  71.944  1.00  0.00    -0.317 OA 
HETATM   18  S   UNL     1     -12.576   7.475  70.659  1.00  0.00     0.236 S  
HETATM   19  H   UNL     1     -13.086   5.169  70.082  1.00  0.00     0.000 HD 
HETATM   20  C   UNL     1     -10.867   7.877  70.541  1.00  0.00    -0.241 A  
HETATM   21  O   UNL     1     -13.228   7.848  69.424  1.00  0.00     3.885 OA 
BRANCH  14  22
HETATM   22  C   UNL     1     -11.798   3.752  72.023  1.00  0.00     2.780 C  
HETATM   23  C   UNL     1     -13.010   3.483  72.974  1.00  0.00     1.692 C  
HETATM   24  C   UNL     1     -12.319   3.005  74.276  1.00  0.00     2.278 C  
HETATM   25  C   UNL     1     -10.863   3.478  74.228  1.00  0.00    -0.142 C  
HETATM   26  C   UNL     1     -10.661   2.998  72.790  1.00  0.00    -0.169 C  
HETATM   27  C   UNL     1     -11.061   1.543  73.080  1.00  0.00    -0.245 C  
HETATM   28  C   UNL     1     -12.031   1.549  74.013  1.00  0.00    -0.062 C  
ENDBRANCH  14  22
ENDBRANCH   2   7
TORSDOF 2
ENDMDL
MODEL      151
REMARK 921   NORMALIZED FREE ENERGY PREDICTED BY IDOCK:   23.05 KCAL/MOL
REMARK 922        TOTAL FREE ENERGY PREDICTED BY IDOCK:   25.68 KCAL/MOL
REMARK 923 INTER-LIGAND FREE ENERGY PREDICTED BY IDOCK:   24.87 KCAL/MOL
REMARK 924 INTRA-LIGAND FREE ENERGY PREDICTED BY IDOCK:    0.81 KCAL/MOL
REMARK 927      BINDING AFFINITY PREDICTED BY RF-SCORE:    0.00 PKD
ROOT
HETATM    1  N   UNL     1      -5.628  10.238  64.393  1.00  0.00    -0.119 N  
HETATM    2  S   UNL     1      -6.860  10.144  65.535  1.00  0.00    -0.135 S  
HETATM    3  H1  UNL     1      -4.810  10.547  64.918  1.00  0.00     0.000 HD 
HETATM    4  H2  UNL     1      -5.686  10.031  63.396  1.00  0.00     0.000 HD 
HETATM    5  O   UNL     1      -8.018   9.707  64.790  1.00  0.00    -0.117 OA 
HETATM    6  O   UNL     1      -6.345   9.399  66.657  1.00  0.00    -0.064 OA 
ENDROOT
BRANCH   2   7
HETATM    7  C   UNL     1      -7.093  11.826  66.010  1.00  0.00     0.696 A  
HETATM    8  C   UNL     1      -6.562  12.864  65.241  1.00  0.00     8.002 A  
HETATM    9  C   UNL     1      -6.794  14.186  65.624  1.00  0.00     8.619 A  
HETATM   10 CL   UNL     1      -5.607  12.635  63.817  1.00  0.00     7.652 Cl 
HETATM   11  C   UNL     1      -7.558  14.503  66.755  1.00  0.00     0.622 A  
HETATM   12  N   UNL     1      -7.720  15.834  67.075  1.00  0.00    -0.222 NA 
HETATM   13  H   UNL     1      -7.281  16.522  66.464  1.00  0.00     0.000 HD 
HETATM   14  C   UNL     1      -8.467  16.329  68.213  1.00  0.00    -0.187 C  
HETATM   15  C   UNL     1      -7.804  12.120  67.188  1.00  0.00    -0.160 A  
HETATM   16  N   UNL     1      -8.234  15.463  69.356  1.00  0.00    -0.249 N  
HETATM   17  O   UNL     1     -10.232  14.010  68.769  1.00  0.00    -0.231 OA 
HETATM   18  S   UNL     1      -8.816  13.894  69.050  1.00  0.00     0.347 S  
HETATM   19  H   UNL     1      -7.784  15.756  70.223  1.00  0.00     0.000 HD 
HETATM   20  C   UNL     1      -8.005  13.459  67.551  1.00  0.00    -0.183 A  
HETATM   21  O   UNL     1      -8.318  13.049  70.112  1.00  0.00     2.681 OA 
BRANCH  14  22
HETATM   22  C   UNL     1      -8.131  17.837  68.495  1.00  0.00    -0.297 C  
HETATM   23  C   UNL     1      -9.483  18.603  68.667  1.00  0.00    -0.396 C  
HETATM   24  C   UNL     1      -9.526  19.501  67.406  1.00  0.00    -0.415 C  
HETATM   25  C   UNL     1      -8.565  18.898  66.376  1.00  0.00    -0.301 C  
HETATM   26  C   UNL     1      -7.442  18.715  67.398  1.00  0.00    -0.226 C  
HETATM   27  C   UNL     1      -7.403  20.192  67.816  1.00  0.00    -0.333 C  
HETATM   28  C   UNL     1      -8.658  20.677  67.774  1.00  0.00    -0.112 C  
ENDBRANCH  14  22
ENDBRANCH   2   7
TORSDOF 2
ENDMDL
MODEL      152
REMARK 921   NORMALIZED FREE ENERGY PREDICTED BY IDOCK:   27.16 KCAL/MOL
REMARK 922        TOTAL FREE ENERGY PREDICTED BY IDOCK:   30.26 KCAL/MOL
REMARK 923 INTER-LIGAND FREE ENERGY PREDICTED BY IDOCK:   29.64 KCAL/MOL
REMARK 924 INTRA-LIGAND FREE ENERGY PREDICTED BY IDOCK:    0.62 KCAL/MOL
REMARK 927      BINDING AFFINITY PREDICTED BY RF-SCORE:    0.00 PKD
ROOT
HETATM    1  N   UNL     1     -12.180  13.808  64.098  1.00  0.00    -0.605 N  
HETATM    2  S   UNL     1     -11.536  15.135  64.906  1.00  0.00    -0.330 S  
HETATM    3  H1  UNL     1     -12.777  13.350  64.786  1.00  0.00     0.000 HD 
HETATM    4  H2  UNL     1     -12.010  13.524  63.133  1.00  0.00     0.000 HD 
HETATM    5  O   UNL     1     -10.689  15.784  63.931  1.00  0.00     0.501 OA 
HETATM    6  O   UNL     1     -12.633  15.820  65.542  1.00  0.00     1.182 OA 
ENDROOT
BRANCH   2   7
HETATM    7  C   UNL     1     -10.517  14.396  66.140  1.00  0.00    -0.291 A  
HETATM    8  C   UNL     1     -10.859  14.480  67.492  1.00  0.00    -0.289 A  
HETATM    9  C   UNL     1     -10.052  13.855  68.442  1.00  0.00    -0.237 A  
HETATM   10 CL   UNL     1     -12.241  15.328  68.098  1.00  0.00     0.053 Cl 
HETATM   11  C   UNL     1      -8.909  13.131  68.077  1.00  0.00    -0.191 A  
HETATM   12  N   UNL     1      -8.154  12.562  69.080  1.00  0.00    -0.233 NA 
HETATM   13  H   UNL     1      -8.473  12.692  70.041  1.00  0.00     0.000 HD 
HETATM   14  C   UNL     1      -6.942  11.796  68.876  1.00  0.00    -0.109 C  
HETATM   15  C   UNL     1      -9.336  13.734  65.757  1.00  0.00     0.120 A  
HETATM   16  N   UNL     1      -6.162  12.404  67.812  1.00  0.00    -0.095 N  
HETATM   17  O   UNL     1      -7.286  10.963  66.049  1.00  0.00    -0.134 OA 
HETATM   18  S   UNL     1      -7.012  12.355  66.339  1.00  0.00     1.386 S  
HETATM   19  H   UNL     1      -5.231  12.805  67.932  1.00  0.00     0.000 HD 
HETATM   20  C   UNL     1      -8.539  13.130  66.740  1.00  0.00    -0.036 A  
HETATM   21  O   UNL     1      -6.291  13.198  65.412  1.00  0.00     6.317 OA 
BRANCH  14  22
HETATM   22  C   UNL     1      -6.144  11.633  70.218  1.00  0.00    -0.128 C  
HETATM   23  C   UNL     1      -6.305  10.152  70.693  1.00  0.00    -0.093 C  
HETATM   24  C   UNL     1      -7.180  10.297  71.963  1.00  0.00     3.018 C  
HETATM   25  C   UNL     1      -7.879  11.658  71.891  1.00  0.00    11.780 C  
HETATM   26  C   UNL     1      -6.596  12.397  71.507  1.00  0.00     3.453 C  
HETATM   27  C   UNL     1      -5.802  11.926  72.736  1.00  0.00     2.199 C  
HETATM   28  C   UNL     1      -6.192  10.673  73.037  1.00  0.00     2.408 C  
ENDBRANCH  14  22
ENDBRANCH   2   7
TORSDOF 2
ENDMDL
MODEL      153
REMARK 921   NORMALIZED FREE ENERGY PREDICTED BY IDOCK:   56.05 KCAL/MOL
REMARK 922        TOTAL FREE ENERGY PREDICTED BY IDOCK:   62.54 KCAL/MOL
REMARK 923 INTER-LIGAND FREE ENERGY PREDICTED BY IDOCK:   61.26 KCAL/MOL
REMARK 924 INTRA-LIGAND FREE ENERGY PREDICTED BY IDOCK:    1.28 KCAL/MOL
REMARK 927      BINDING AFFINITY PREDICTED BY RF-SCORE:    0.00 PKD
ROOT
HETATM    1  N   UNL     1     -11.499  16.007  73.695  1.00  0.00     0.369 N  
HETATM    2  S   UNL     1      -9.858  15.774  73.414  1.00  0.00     9.859 S  
HETATM    3  H1  UNL     1     -11.963  15.581  72.892  1.00  0.00     0.000 HD 
HETATM    4  H2  UNL     1     -11.935  16.471  74.492  1.00  0.00     0.000 HD 
HETATM    5  O   UNL     1      -9.201  16.376  74.552  1.00  0.00    15.804 OA 
HETATM    6  O   UNL     1      -9.676  14.384  73.074  1.00  0.00     5.249 OA 
ENDROOT
BRANCH   2   7
HETATM    7  C   UNL     1      -9.550  16.766  71.990  1.00  0.00     8.392 A  
HETATM    8  C   UNL     1     -10.606  17.343  71.282  1.00  0.00     2.363 A  
HETATM    9  C   UNL     1     -10.329  18.153  70.180  1.00  0.00     1.265 A  
HETATM   10 CL   UNL     1     -12.279  17.122  71.670  1.00  0.00     2.046 Cl 
HETATM   11  C   UNL     1      -9.016  18.416  69.770  1.00  0.00     1.122 A  
HETATM   12  N   UNL     1      -8.830  19.208  68.658  1.00  0.00    -0.363 NA 
HETATM   13  H   UNL     1      -9.663  19.572  68.194  1.00  0.00     0.000 HD 
HETATM   14  C   UNL     1      -7.544  19.564  68.097  1.00  0.00    -0.303 C  
HETATM   15  C   UNL     1      -8.226  16.959  71.554  1.00  0.00     9.287 A  
HETATM   16  N   UNL     1      -6.652  18.420  68.169  1.00  0.00    -0.213 N  
HETATM   17  O   UNL     1      -5.779  19.137  70.444  1.00  0.00    -0.236 OA 
HETATM   18  S   UNL     1      -6.363  17.985  69.789  1.00  0.00    -0.036 S  
HETATM   19  H   UNL     1      -6.254  17.942  67.361  1.00  0.00     0.000 HD 
HETATM   20  C   UNL     1      -7.985  17.766  70.433  1.00  0.00     3.381 A  
HETATM   21  O   UNL     1      -5.695  16.704  69.765  1.00  0.00    -0.172 OA 
BRANCH  14  22
HETATM   22  C   UNL     1      -7.701  20.139  66.644  1.00  0.00    -0.331 C  
HETATM   23  C   UNL     1      -8.307  19.011  65.746  1.00  0.00     0.224 C  
HETATM   24  C   UNL     1      -7.129  18.659  64.804  1.00  0.00     1.378 C  
HETATM   25  C   UNL     1      -5.841  19.158  65.466  1.00  0.00    -0.221 C  
HETATM   26  C   UNL     1      -6.438  20.525  65.803  1.00  0.00    -0.265 C  
HETATM   27  C   UNL     1      -6.821  20.863  64.354  1.00  0.00     0.039 C  
HETATM   28  C   UNL     1      -7.193  19.724  63.739  1.00  0.00     2.619 C  
ENDBRANCH  14  22
ENDBRANCH   2   7
TORSDOF 2
ENDMDL
