MODEL        1
REMARK 921   NORMALIZED FREE ENERGY PREDICTED BY IDOCK:   -7.38 KCAL/MOL
REMARK 922        TOTAL FREE ENERGY PREDICTED BY IDOCK:   -8.92 KCAL/MOL
REMARK 923 INTER-LIGAND FREE ENERGY PREDICTED BY IDOCK:   -8.68 KCAL/MOL
REMARK 924 INTRA-LIGAND FREE ENERGY PREDICTED BY IDOCK:   -0.24 KCAL/MOL
REMARK 927      BINDING AFFINITY PREDICTED BY RF-SCORE:    0.00 PKD
ROOT
HETATM    1  N   UNL     1     -14.092  16.027  73.204  1.00  0.00    -0.562 N  
HETATM    2  S   UNL     1     -12.432  15.781  73.232  1.00  0.00    -0.572 S  
HETATM    3  H2  UNL     1     -14.591  16.906  73.342  1.00  0.00     0.000 HD 
HETATM    4  H1  UNL     1     -14.494  15.108  73.020  1.00  0.00     0.000 HD 
HETATM    5  O   UNL     1     -11.861  17.086  73.494  1.00  0.00    -0.254 OA 
HETATM    6  O   UNL     1     -12.174  14.657  74.088  1.00  0.00    -0.483 OA 
ENDROOT
BRANCH   2   7
HETATM    7  C   UNL     1     -12.078  15.328  71.563  1.00  0.00    -0.359 A  
HETATM    8  C   UNL     1     -11.324  16.203  70.773  1.00  0.00    -0.397 A  
HETATM    9  C   UNL     1     -11.045  15.854  69.445  1.00  0.00    -0.322 A  
HETATM   10  C   UNL     1     -11.480  14.657  68.874  1.00  0.00    -0.298 A  
HETATM   11  N   UNL     1     -11.116  14.262  67.587  1.00  0.00    -0.283 NA 
HETATM   12  C   UNL     1     -12.212  13.788  69.694  1.00  0.00    -0.359 A  
HETATM   13  H   UNL     1     -11.053  13.274  67.339  1.00  0.00     0.000 HD 
HETATM   14  C   UNL     1     -10.831  15.294  66.612  1.00  0.00    -0.310 C  
HETATM   15  C   UNL     1     -12.520  14.114  71.027  1.00  0.00    -0.367 A  
HETATM   16  N   UNL     1      -9.707  16.041  67.119  1.00  0.00    -0.226 N  
HETATM   17 CL   UNL     1     -13.449  12.953  71.909  1.00  0.00    -0.525 Cl 
HETATM   18  O   UNL     1      -8.843  17.206  69.157  1.00  0.00    -0.159 OA 
HETATM   19  S   UNL     1     -10.086  16.959  68.463  1.00  0.00    -0.317 S  
HETATM   20  O   UNL     1     -10.968  18.023  68.046  1.00  0.00    -0.265 OA 
HETATM   21  H   UNL     1      -8.777  16.012  66.702  1.00  0.00     0.000 HD 
BRANCH  14  22
HETATM   22  C   UNL     1     -10.424  14.662  65.269  1.00  0.00    -0.420 C  
BRANCH  22  23
HETATM   23  C   UNL     1     -11.148  13.345  64.955  1.00  0.00    -0.348 C  
HETATM   24  C   UNL     1     -12.205  13.456  63.857  1.00  0.00    -0.478 C  
HETATM   25  C   UNL     1     -12.419  12.010  63.442  1.00  0.00    -0.625 C  
HETATM   26  C   UNL     1     -11.024  11.401  63.465  1.00  0.00    -0.406 C  
HETATM   27  C   UNL     1     -10.197  12.262  64.422  1.00  0.00    -0.341 C  
ENDBRANCH  22  23
ENDBRANCH  14  22
ENDBRANCH   2   7
TORSDOF 3
ENDMDL
MODEL        2
REMARK 921   NORMALIZED FREE ENERGY PREDICTED BY IDOCK:   -7.38 KCAL/MOL
REMARK 922        TOTAL FREE ENERGY PREDICTED BY IDOCK:   -8.91 KCAL/MOL
REMARK 923 INTER-LIGAND FREE ENERGY PREDICTED BY IDOCK:   -8.56 KCAL/MOL
REMARK 924 INTRA-LIGAND FREE ENERGY PREDICTED BY IDOCK:   -0.34 KCAL/MOL
REMARK 927      BINDING AFFINITY PREDICTED BY RF-SCORE:    0.00 PKD
ROOT
HETATM    1  N   UNL     1      -9.529   8.221  65.552  1.00  0.00    -0.400 N  
HETATM    2  S   UNL     1      -9.988   7.755  67.098  1.00  0.00    -0.258 S  
HETATM    3  H2  UNL     1      -9.963   7.951  64.669  1.00  0.00     0.000 HD 
HETATM    4  H1  UNL     1      -8.724   8.833  65.687  1.00  0.00     0.000 HD 
HETATM    5  O   UNL     1     -11.131   6.888  66.908  1.00  0.00    -0.379 OA 
HETATM    6  O   UNL     1      -8.808   7.311  67.786  1.00  0.00    -0.125 OA 
ENDROOT
BRANCH   2   7
HETATM    7  C   UNL     1     -10.536   9.273  67.815  1.00  0.00    -0.246 A  
HETATM    8  C   UNL     1     -10.798  10.359  66.973  1.00  0.00    -0.269 A  
HETATM    9  C   UNL     1     -11.226  11.569  67.534  1.00  0.00    -0.298 A  
HETATM   10  C   UNL     1     -11.417  11.736  68.907  1.00  0.00    -0.297 A  
HETATM   11  N   UNL     1     -11.942  12.906  69.456  1.00  0.00    -0.308 NA 
HETATM   12  C   UNL     1     -11.172  10.625  69.724  1.00  0.00    -0.363 A  
HETATM   13  H   UNL     1     -12.468  12.886  70.330  1.00  0.00     0.000 HD 
HETATM   14  C   UNL     1     -11.719  14.151  68.750  1.00  0.00    -0.345 C  
HETATM   15  C   UNL     1     -10.728   9.401  69.194  1.00  0.00    -0.197 A  
HETATM   16  N   UNL     1     -12.349  14.013  67.461  1.00  0.00    -0.521 N  
HETATM   17 CL   UNL     1     -10.447   8.127  70.328  1.00  0.00    -0.214 Cl 
HETATM   18  O   UNL     1     -12.532  12.492  65.483  1.00  0.00    -0.646 OA 
HETATM   19  S   UNL     1     -11.562  12.928  66.463  1.00  0.00    -0.390 S  
HETATM   20  O   UNL     1     -10.288  13.498  66.095  1.00  0.00    -0.284 OA 
HETATM   21  H   UNL     1     -13.188  14.524  67.186  1.00  0.00     0.000 HD 
BRANCH  14  22
HETATM   22  C   UNL     1     -12.394  15.315  69.496  1.00  0.00    -0.210 C  
BRANCH  22  23
HETATM   23  C   UNL     1     -12.493  15.111  71.015  1.00  0.00    -0.419 C  
HETATM   24  C   UNL     1     -11.664  16.096  71.837  1.00  0.00    -0.575 C  
HETATM   25  C   UNL     1     -12.274  15.982  73.223  1.00  0.00    -0.632 C  
HETATM   26  C   UNL     1     -13.770  15.863  72.967  1.00  0.00    -0.558 C  
HETATM   27  C   UNL     1     -13.920  15.319  71.545  1.00  0.00    -0.627 C  
ENDBRANCH  22  23
ENDBRANCH  14  22
ENDBRANCH   2   7
TORSDOF 3
ENDMDL
MODEL        3
REMARK 921   NORMALIZED FREE ENERGY PREDICTED BY IDOCK:   -7.24 KCAL/MOL
REMARK 922        TOTAL FREE ENERGY PREDICTED BY IDOCK:   -8.75 KCAL/MOL
REMARK 923 INTER-LIGAND FREE ENERGY PREDICTED BY IDOCK:   -8.42 KCAL/MOL
REMARK 924 INTRA-LIGAND FREE ENERGY PREDICTED BY IDOCK:   -0.33 KCAL/MOL
REMARK 927      BINDING AFFINITY PREDICTED BY RF-SCORE:    0.00 PKD
ROOT
HETATM    1  N   UNL     1     -10.505  18.285  67.141  1.00  0.00    -0.395 N  
HETATM    2  S   UNL     1     -10.200  17.030  66.068  1.00  0.00    -0.278 S  
HETATM    3  H2  UNL     1     -11.168  19.051  67.025  1.00  0.00     0.000 HD 
HETATM    4  H1  UNL     1      -9.884  18.115  67.931  1.00  0.00     0.000 HD 
HETATM    5  O   UNL     1     -11.082  17.271  64.945  1.00  0.00    -0.807 OA 
HETATM    6  O   UNL     1      -8.776  16.934  65.904  1.00  0.00    -0.516 OA 
ENDROOT
BRANCH   2   7
HETATM    7  C   UNL     1     -10.776  15.615  66.952  1.00  0.00    -0.307 A  
HETATM    8  C   UNL     1     -11.218  15.777  68.269  1.00  0.00    -0.356 A  
HETATM    9  C   UNL     1     -11.669  14.658  68.980  1.00  0.00    -0.306 A  
HETATM   10  C   UNL     1     -11.709  13.378  68.423  1.00  0.00    -0.355 A  
HETATM   11  N   UNL     1     -12.254  12.283  69.093  1.00  0.00    -0.128 NA 
HETATM   12  C   UNL     1     -11.284  13.248  67.094  1.00  0.00    -0.327 A  
HETATM   13  H   UNL     1     -12.671  11.507  68.578  1.00  0.00     0.000 HD 
HETATM   14  C   UNL     1     -12.213  12.279  70.541  1.00  0.00    -0.300 C  
HETATM   15  C   UNL     1     -10.813  14.349  66.358  1.00  0.00    -0.314 A  
HETATM   16  N   UNL     1     -12.977  13.420  70.978  1.00  0.00    -0.234 N  
HETATM   17 CL   UNL     1     -10.303  14.030  64.737  1.00  0.00    -0.451 Cl 
HETATM   18  O   UNL     1     -13.274  15.878  70.622  1.00  0.00    -0.447 OA 
HETATM   19  S   UNL     1     -12.233  14.876  70.635  1.00  0.00    -0.348 S  
HETATM   20  O   UNL     1     -11.058  14.987  71.468  1.00  0.00    -0.283 OA 
HETATM   21  H   UNL     1     -13.880  13.347  71.449  1.00  0.00     0.000 HD 
BRANCH  14  22
HETATM   22  C   UNL     1     -12.883  11.008  71.091  1.00  0.00    -0.491 C  
BRANCH  22  23
HETATM   23  C   UNL     1     -11.893   9.936  71.568  1.00  0.00    -0.445 C  
HETATM   24  C   UNL     1     -12.553   8.694  72.165  1.00  0.00    -0.451 C  
HETATM   25  C   UNL     1     -11.439   7.662  72.124  1.00  0.00    -0.345 C  
HETATM   26  C   UNL     1     -10.740   7.916  70.794  1.00  0.00    -0.230 C  
HETATM   27  C   UNL     1     -11.041   9.369  70.423  1.00  0.00    -0.311 C  
ENDBRANCH  22  23
ENDBRANCH  14  22
ENDBRANCH   2   7
TORSDOF 3
ENDMDL
MODEL        4
REMARK 921   NORMALIZED FREE ENERGY PREDICTED BY IDOCK:   -7.24 KCAL/MOL
REMARK 922        TOTAL FREE ENERGY PREDICTED BY IDOCK:   -8.75 KCAL/MOL
REMARK 923 INTER-LIGAND FREE ENERGY PREDICTED BY IDOCK:   -8.33 KCAL/MOL
REMARK 924 INTRA-LIGAND FREE ENERGY PREDICTED BY IDOCK:   -0.42 KCAL/MOL
REMARK 927      BINDING AFFINITY PREDICTED BY RF-SCORE:    0.00 PKD
ROOT
HETATM    1  N   UNL     1     -10.513  18.041  66.946  1.00  0.00    -0.360 N  
HETATM    2  S   UNL     1     -10.214  16.713  65.964  1.00  0.00    -0.332 S  
HETATM    3  H2  UNL     1     -11.176  18.799  66.779  1.00  0.00     0.000 HD 
HETATM    4  H1  UNL     1      -9.890  17.926  67.745  1.00  0.00     0.000 HD 
HETATM    5  O   UNL     1     -11.098  16.876  64.829  1.00  0.00    -0.764 OA 
HETATM    6  O   UNL     1      -8.791  16.603  65.803  1.00  0.00    -0.493 OA 
ENDROOT
BRANCH   2   7
HETATM    7  C   UNL     1     -10.789  15.365  66.947  1.00  0.00    -0.313 A  
HETATM    8  C   UNL     1     -11.227  15.621  68.251  1.00  0.00    -0.353 A  
HETATM    9  C   UNL     1     -11.678  14.555  69.041  1.00  0.00    -0.311 A  
HETATM   10  C   UNL     1     -11.722  13.239  68.575  1.00  0.00    -0.352 A  
HETATM   11  N   UNL     1     -12.267  12.196  69.323  1.00  0.00    -0.139 NA 
HETATM   12  C   UNL     1     -11.301  13.015  67.258  1.00  0.00    -0.348 A  
HETATM   13  H   UNL     1     -12.686  11.386  68.865  1.00  0.00     0.000 HD 
HETATM   14  C   UNL     1     -12.221  12.294  70.767  1.00  0.00    -0.260 C  
HETATM   15  C   UNL     1     -10.830  14.060  66.444  1.00  0.00    -0.299 A  
HETATM   16  N   UNL     1     -12.983  13.465  71.125  1.00  0.00    -0.276 N  
HETATM   17 CL   UNL     1     -10.325  13.626  64.849  1.00  0.00    -0.410 Cl 
HETATM   18  O   UNL     1     -13.277  15.892  70.596  1.00  0.00    -0.447 OA 
HETATM   19  S   UNL     1     -12.237  14.891  70.678  1.00  0.00    -0.348 S  
HETATM   20  O   UNL     1     -11.060  15.059  71.497  1.00  0.00    -0.283 OA 
HETATM   21  H   UNL     1     -13.884  13.426  71.602  1.00  0.00     0.000 HD 
BRANCH  14  22
HETATM   22  C   UNL     1     -12.892  11.066  71.407  1.00  0.00    -0.548 C  
BRANCH  22  23
HETATM   23  C   UNL     1     -12.277   9.726  70.982  1.00  0.00    -0.436 C  
HETATM   24  C   UNL     1     -10.854   9.499  71.489  1.00  0.00    -0.321 C  
HETATM   25  C   UNL     1     -10.671   7.999  71.335  1.00  0.00    -0.270 C  
HETATM   26  C   UNL     1     -12.014   7.412  71.748  1.00  0.00    -0.338 C  
HETATM   27  C   UNL     1     -13.048   8.520  71.539  1.00  0.00    -0.325 C  
ENDBRANCH  22  23
ENDBRANCH  14  22
ENDBRANCH   2   7
TORSDOF 3
ENDMDL
MODEL        5
REMARK 921   NORMALIZED FREE ENERGY PREDICTED BY IDOCK:   -7.19 KCAL/MOL
REMARK 922        TOTAL FREE ENERGY PREDICTED BY IDOCK:   -8.69 KCAL/MOL
REMARK 923 INTER-LIGAND FREE ENERGY PREDICTED BY IDOCK:   -8.26 KCAL/MOL
REMARK 924 INTRA-LIGAND FREE ENERGY PREDICTED BY IDOCK:   -0.43 KCAL/MOL
REMARK 927      BINDING AFFINITY PREDICTED BY RF-SCORE:    0.00 PKD
ROOT
HETATM    1  N   UNL     1     -10.646  11.009  63.132  1.00  0.00    -0.778 N  
HETATM    2  S   UNL     1     -11.277  12.308  63.988  1.00  0.00    -0.433 S  
HETATM    3  H2  UNL     1      -9.768  10.976  62.613  1.00  0.00     0.000 HD 
HETATM    4  H1  UNL     1     -11.330  10.260  63.242  1.00  0.00     0.000 HD 
HETATM    5  O   UNL     1     -10.307  13.371  63.831  1.00  0.00    -0.275 OA 
HETATM    6  O   UNL     1     -12.647  12.469  63.586  1.00  0.00    -0.671 OA 
ENDROOT
BRANCH   2   7
HETATM    7  C   UNL     1     -11.230  11.733  65.656  1.00  0.00    -0.267 A  
HETATM    8  C   UNL     1     -10.635  10.496  65.926  1.00  0.00    -0.149 A  
HETATM    9  C   UNL     1     -10.600  10.029  67.246  1.00  0.00    -0.257 A  
HETATM   10  C   UNL     1     -11.125  10.756  68.316  1.00  0.00    -0.271 A  
HETATM   11  N   UNL     1     -10.999  10.341  69.642  1.00  0.00    -0.252 NA 
HETATM   12  C   UNL     1     -11.693  12.003  68.021  1.00  0.00    -0.398 A  
HETATM   13  H   UNL     1     -10.977  11.020  70.404  1.00  0.00     0.000 HD 
HETATM   14  C   UNL     1     -10.899   8.921  69.905  1.00  0.00    -0.211 C  
HETATM   15  C   UNL     1     -11.756  12.494  66.705  1.00  0.00    -0.384 A  
HETATM   16  N   UNL     1      -9.706   8.461  69.241  1.00  0.00    -0.174 N  
HETATM   17 CL   UNL     1     -12.504  14.038  66.494  1.00  0.00    -0.437 Cl 
HETATM   18  O   UNL     1      -8.492   8.519  67.054  1.00  0.00    -0.112 OA 
HETATM   19  S   UNL     1      -9.839   8.474  67.575  1.00  0.00    -0.193 S  
HETATM   20  O   UNL     1     -10.787   7.454  67.193  1.00  0.00    -0.331 OA 
HETATM   21  H   UNL     1      -8.866   8.159  69.735  1.00  0.00     0.000 HD 
BRANCH  14  22
HETATM   22  C   UNL     1     -10.740   8.669  71.415  1.00  0.00    -0.338 C  
BRANCH  22  23
HETATM   23  C   UNL     1     -12.040   8.259  72.121  1.00  0.00    -0.425 C  
HETATM   24  C   UNL     1     -13.060   9.388  72.262  1.00  0.00    -0.509 C  
HETATM   25  C   UNL     1     -14.354   8.646  72.550  1.00  0.00    -0.347 C  
HETATM   26  C   UNL     1     -14.295   7.423  71.644  1.00  0.00    -0.614 C  
HETATM   27  C   UNL     1     -12.813   7.178  71.351  1.00  0.00    -0.431 C  
ENDBRANCH  22  23
ENDBRANCH  14  22
ENDBRANCH   2   7
TORSDOF 3
ENDMDL
MODEL        6
REMARK 921   NORMALIZED FREE ENERGY PREDICTED BY IDOCK:   -6.71 KCAL/MOL
REMARK 922        TOTAL FREE ENERGY PREDICTED BY IDOCK:   -8.13 KCAL/MOL
REMARK 923 INTER-LIGAND FREE ENERGY PREDICTED BY IDOCK:   -7.76 KCAL/MOL
REMARK 924 INTRA-LIGAND FREE ENERGY PREDICTED BY IDOCK:   -0.36 KCAL/MOL
REMARK 927      BINDING AFFINITY PREDICTED BY RF-SCORE:    0.00 PKD
ROOT
HETATM    1  N   UNL     1     -11.623   9.526  69.256  1.00  0.00    -0.380 N  
HETATM    2  S   UNL     1     -12.225  10.352  70.588  1.00  0.00    -0.368 S  
HETATM    3  H2  UNL     1     -12.141   8.931  68.609  1.00  0.00     0.000 HD 
HETATM    4  H1  UNL     1     -10.628   9.749  69.234  1.00  0.00     0.000 HD 
HETATM    5  O   UNL     1     -13.638  10.036  70.621  1.00  0.00    -0.194 OA 
HETATM    6  O   UNL     1     -11.362  10.070  71.701  1.00  0.00    -0.233 OA 
ENDROOT
BRANCH   2   7
HETATM    7  C   UNL     1     -12.029  12.042  70.119  1.00  0.00    -0.321 A  
HETATM    8  C   UNL     1     -11.314  12.339  68.954  1.00  0.00    -0.337 A  
HETATM    9  C   UNL     1     -11.147  13.678  68.579  1.00  0.00    -0.275 A  
HETATM   10  C   UNL     1     -11.678  14.739  69.317  1.00  0.00    -0.316 A  
HETATM   11  N   UNL     1     -11.602  16.064  68.890  1.00  0.00    -0.374 NA 
HETATM   12  C   UNL     1     -12.411  14.412  70.465  1.00  0.00    -0.413 A  
HETATM   13  H   UNL     1     -12.314  16.744  69.159  1.00  0.00     0.000 HD 
HETATM   14  C   UNL     1     -10.483  16.448  68.053  1.00  0.00    -0.303 C  
HETATM   15  C   UNL     1     -12.585  13.079  70.876  1.00  0.00    -0.280 A  
HETATM   16  N   UNL     1     -10.578  15.660  66.851  1.00  0.00    -0.309 N  
HETATM   17 CL   UNL     1     -13.494  12.832  72.326  1.00  0.00    -0.656 Cl 
HETATM   18  O   UNL     1     -10.878  13.320  66.018  1.00  0.00    -0.272 OA 
HETATM   19  S   UNL     1     -10.253  14.040  67.104  1.00  0.00    -0.260 S  
HETATM   20  O   UNL     1      -8.851  13.907  67.420  1.00  0.00    -0.185 OA 
HETATM   21  H   UNL     1     -10.818  16.049  65.939  1.00  0.00     0.000 HD 
BRANCH  14  22
HETATM   22  C   UNL     1     -10.591  17.934  67.667  1.00  0.00    -0.398 C  
BRANCH  22  23
HETATM   23  C   UNL     1      -9.245  18.593  67.336  1.00  0.00    -0.292 C  
HETATM   24  C   UNL     1      -9.330  20.095  67.070  1.00  0.00    -0.523 C  
HETATM   25  C   UNL     1      -7.890  20.552  67.225  1.00  0.00    -0.367 C  
HETATM   26  C   UNL     1      -7.364  19.746  68.406  1.00  0.00    -0.348 C  
HETATM   27  C   UNL     1      -8.240  18.495  68.493  1.00  0.00    -0.360 C  
ENDBRANCH  22  23
ENDBRANCH  14  22
ENDBRANCH   2   7
TORSDOF 3
ENDMDL
MODEL        7
REMARK 921   NORMALIZED FREE ENERGY PREDICTED BY IDOCK:   -6.71 KCAL/MOL
REMARK 922        TOTAL FREE ENERGY PREDICTED BY IDOCK:   -8.12 KCAL/MOL
REMARK 923 INTER-LIGAND FREE ENERGY PREDICTED BY IDOCK:   -7.70 KCAL/MOL
REMARK 924 INTRA-LIGAND FREE ENERGY PREDICTED BY IDOCK:   -0.42 KCAL/MOL
REMARK 927      BINDING AFFINITY PREDICTED BY RF-SCORE:    0.00 PKD
ROOT
HETATM    1  N   UNL     1      -9.595   7.085  67.225  1.00  0.00    -0.135 N  
HETATM    2  S   UNL     1     -10.156   6.902  68.796  1.00  0.00    -0.173 S  
HETATM    3  H2  UNL     1     -10.001   6.697  66.373  1.00  0.00     0.000 HD 
HETATM    4  H1  UNL     1      -8.762   7.667  67.306  1.00  0.00     0.000 HD 
HETATM    5  O   UNL     1     -11.339   6.076  68.681  1.00  0.00    -0.251 OA 
HETATM    6  O   UNL     1      -9.040   6.516  69.614  1.00  0.00    -0.140 OA 
ENDROOT
BRANCH   2   7
HETATM    7  C   UNL     1     -10.646   8.543  69.227  1.00  0.00    -0.181 A  
HETATM    8  C   UNL     1     -10.636   9.531  68.236  1.00  0.00    -0.260 A  
HETATM    9  C   UNL     1     -11.016  10.837  68.571  1.00  0.00    -0.243 A  
HETATM   10  C   UNL     1     -11.421  11.196  69.858  1.00  0.00    -0.306 A  
HETATM   11  N   UNL     1     -11.897  12.470  70.168  1.00  0.00    -0.510 NA 
HETATM   12  C   UNL     1     -11.445  10.183  70.825  1.00  0.00    -0.442 A  
HETATM   13  H   UNL     1     -12.565  12.610  70.927  1.00  0.00     0.000 HD 
HETATM   14  C   UNL     1     -11.418  13.588  69.382  1.00  0.00    -0.282 C  
HETATM   15  C   UNL     1     -11.057   8.865  70.524  1.00  0.00    -0.251 A  
HETATM   16  N   UNL     1     -11.829  13.342  68.022  1.00  0.00    -0.357 N  
HETATM   17 CL   UNL     1     -11.119   7.728  71.825  1.00  0.00    -0.270 Cl 
HETATM   18  O   UNL     1     -11.839  11.601  66.225  1.00  0.00    -0.437 OA 
HETATM   19  S   UNL     1     -11.009  12.070  67.313  1.00  0.00    -0.279 S  
HETATM   20  O   UNL     1      -9.635  12.471  67.124  1.00  0.00    -0.199 OA 
HETATM   21  H   UNL     1     -12.546  13.887  67.542  1.00  0.00     0.000 HD 
BRANCH  14  22
HETATM   22  C   UNL     1     -12.077  14.895  69.857  1.00  0.00    -0.379 C  
BRANCH  22  23
HETATM   23  C   UNL     1     -12.485  14.887  71.337  1.00  0.00    -0.403 C  
HETATM   24  C   UNL     1     -11.734  15.899  72.201  1.00  0.00    -0.586 C  
HETATM   25  C   UNL     1     -12.605  16.004  73.440  1.00  0.00    -0.673 C  
HETATM   26  C   UNL     1     -14.030  15.971  72.902  1.00  0.00    -0.316 C  
HETATM   27  C   UNL     1     -13.958  15.269  71.544  1.00  0.00    -0.627 C  
ENDBRANCH  22  23
ENDBRANCH  14  22
ENDBRANCH   2   7
TORSDOF 3
ENDMDL
MODEL        8
REMARK 921   NORMALIZED FREE ENERGY PREDICTED BY IDOCK:   -6.70 KCAL/MOL
REMARK 922        TOTAL FREE ENERGY PREDICTED BY IDOCK:   -8.11 KCAL/MOL
REMARK 923 INTER-LIGAND FREE ENERGY PREDICTED BY IDOCK:   -8.01 KCAL/MOL
REMARK 924 INTRA-LIGAND FREE ENERGY PREDICTED BY IDOCK:   -0.10 KCAL/MOL
REMARK 927      BINDING AFFINITY PREDICTED BY RF-SCORE:    0.00 PKD
ROOT
HETATM    1  N   UNL     1      -7.320  10.631  63.948  1.00  0.00    -0.343 N  
HETATM    2  S   UNL     1      -8.961  10.579  63.596  1.00  0.00    -0.231 S  
HETATM    3  H2  UNL     1      -6.641  11.326  63.636  1.00  0.00     0.000 HD 
HETATM    4  H1  UNL     1      -7.149   9.819  64.540  1.00  0.00     0.000 HD 
HETATM    5  O   UNL     1      -9.203  11.733  62.755  1.00  0.00    -0.331 OA 
HETATM    6  O   UNL     1      -9.269   9.246  63.159  1.00  0.00    -0.075 OA 
ENDROOT
BRANCH   2   7
HETATM    7  C   UNL     1      -9.705  10.856  65.173  1.00  0.00    -0.262 A  
HETATM    8  C   UNL     1     -10.254  12.113  65.447  1.00  0.00    -0.299 A  
HETATM    9  C   UNL     1     -10.840  12.343  66.698  1.00  0.00    -0.246 A  
HETATM   10  C   UNL     1     -10.911  11.361  67.689  1.00  0.00    -0.250 A  
HETATM   11  N   UNL     1     -11.584  11.556  68.894  1.00  0.00    -0.290 NA 
HETATM   12  C   UNL     1     -10.375  10.104  67.379  1.00  0.00    -0.289 A  
HETATM   13  H   UNL     1     -12.001  10.771  69.396  1.00  0.00     0.000 HD 
HETATM   14  C   UNL     1     -11.676  12.905  69.414  1.00  0.00    -0.321 C  
HETATM   15  C   UNL     1      -9.768   9.845  66.137  1.00  0.00    -0.236 A  
HETATM   16  N   UNL     1     -12.403  13.675  68.436  1.00  0.00    -0.324 N  
HETATM   17 CL   UNL     1      -9.133   8.254  65.908  1.00  0.00    -0.221 Cl 
HETATM   18  O   UNL     1     -12.508  14.210  65.995  1.00  0.00    -0.467 OA 
HETATM   19  S   UNL     1     -11.538  13.927  67.029  1.00  0.00    -0.391 S  
HETATM   20  O   UNL     1     -10.440  14.816  67.329  1.00  0.00    -0.260 OA 
HETATM   21  H   UNL     1     -13.348  14.030  68.587  1.00  0.00     0.000 HD 
BRANCH  14  22
HETATM   22  C   UNL     1     -12.474  12.917  70.729  1.00  0.00    -0.370 C  
BRANCH  22  23
HETATM   23  C   UNL     1     -12.800  14.324  71.250  1.00  0.00    -0.422 C  
HETATM   24  C   UNL     1     -13.587  14.342  72.560  1.00  0.00    -0.620 C  
HETATM   25  C   UNL     1     -13.379  15.759  73.064  1.00  0.00    -0.679 C  
HETATM   26  C   UNL     1     -11.923  16.065  72.737  1.00  0.00    -0.623 C  
HETATM   27  C   UNL     1     -11.540  15.136  71.583  1.00  0.00    -0.463 C  
ENDBRANCH  22  23
ENDBRANCH  14  22
ENDBRANCH   2   7
TORSDOF 3
ENDMDL
MODEL        9
REMARK 921   NORMALIZED FREE ENERGY PREDICTED BY IDOCK:   -6.69 KCAL/MOL
REMARK 922        TOTAL FREE ENERGY PREDICTED BY IDOCK:   -8.10 KCAL/MOL
REMARK 923 INTER-LIGAND FREE ENERGY PREDICTED BY IDOCK:   -7.69 KCAL/MOL
REMARK 924 INTRA-LIGAND FREE ENERGY PREDICTED BY IDOCK:   -0.42 KCAL/MOL
REMARK 927      BINDING AFFINITY PREDICTED BY RF-SCORE:    0.00 PKD
ROOT
HETATM    1  N   UNL     1      -5.790  18.148  65.642  1.00  0.00    -0.203 N  
HETATM    2  S   UNL     1      -6.865  19.367  66.065  1.00  0.00    -0.266 S  
HETATM    3  H2  UNL     1      -4.836  18.019  65.980  1.00  0.00     0.000 HD 
HETATM    4  H1  UNL     1      -6.297  17.566  64.976  1.00  0.00     0.000 HD 
HETATM    5  O   UNL     1      -6.145  20.194  67.010  1.00  0.00    -0.176 OA 
HETATM    6  O   UNL     1      -7.410  19.906  64.850  1.00  0.00    -0.245 OA 
ENDROOT
BRANCH   2   7
HETATM    7  C   UNL     1      -8.131  18.487  66.925  1.00  0.00    -0.245 A  
HETATM    8  C   UNL     1      -7.977  17.111  67.126  1.00  0.00    -0.216 A  
HETATM    9  C   UNL     1      -8.981  16.404  67.801  1.00  0.00    -0.198 A  
HETATM   10  C   UNL     1     -10.132  17.019  68.296  1.00  0.00    -0.306 A  
HETATM   11  N   UNL     1     -11.081  16.337  69.057  1.00  0.00    -0.325 NA 
HETATM   12  C   UNL     1     -10.249  18.402  68.102  1.00  0.00    -0.410 A  
HETATM   13  H   UNL     1     -11.648  16.826  69.750  1.00  0.00     0.000 HD 
HETATM   14  C   UNL     1     -11.239  14.914  68.836  1.00  0.00    -0.269 C  
HETATM   15  C   UNL     1      -9.267  19.138  67.417  1.00  0.00    -0.298 A  
HETATM   16  N   UNL     1      -9.973  14.305  69.159  1.00  0.00    -0.422 N  
HETATM   17 CL   UNL     1      -9.560  20.832  67.236  1.00  0.00    -0.572 Cl 
HETATM   18  O   UNL     1      -7.513  14.475  68.742  1.00  0.00    -0.120 OA 
HETATM   19  S   UNL     1      -8.771  14.673  68.059  1.00  0.00    -0.175 S  
HETATM   20  O   UNL     1      -9.089  14.021  66.811  1.00  0.00    -0.248 OA 
HETATM   21  H   UNL     1      -9.827  13.709  69.974  1.00  0.00     0.000 HD 
BRANCH  14  22
HETATM   22  C   UNL     1     -12.307  14.343  69.784  1.00  0.00    -0.333 C  
BRANCH  22  23
HETATM   23  C   UNL     1     -12.681  15.279  70.942  1.00  0.00    -0.496 C  
HETATM   24  C   UNL     1     -14.088  15.061  71.497  1.00  0.00    -0.613 C  
HETATM   25  C   UNL     1     -14.031  15.748  72.850  1.00  0.00    -0.467 C  
HETATM   26  C   UNL     1     -12.650  15.403  73.390  1.00  0.00    -0.645 C  
HETATM   27  C   UNL     1     -11.781  15.086  72.171  1.00  0.00    -0.437 C  
ENDBRANCH  22  23
ENDBRANCH  14  22
ENDBRANCH   2   7
TORSDOF 3
ENDMDL
MODEL       10
REMARK 921   NORMALIZED FREE ENERGY PREDICTED BY IDOCK:   -6.67 KCAL/MOL
REMARK 922        TOTAL FREE ENERGY PREDICTED BY IDOCK:   -8.07 KCAL/MOL
REMARK 923 INTER-LIGAND FREE ENERGY PREDICTED BY IDOCK:   -7.67 KCAL/MOL
REMARK 924 INTRA-LIGAND FREE ENERGY PREDICTED BY IDOCK:   -0.40 KCAL/MOL
REMARK 927      BINDING AFFINITY PREDICTED BY RF-SCORE:    0.00 PKD
ROOT
HETATM    1  N   UNL     1     -11.494   8.847  69.604  1.00  0.00    -0.420 N  
HETATM    2  S   UNL     1     -12.058   9.885  70.797  1.00  0.00    -0.300 S  
HETATM    3  H2  UNL     1     -12.023   8.131  69.105  1.00  0.00     0.000 HD 
HETATM    4  H1  UNL     1     -10.510   9.086  69.487  1.00  0.00     0.000 HD 
HETATM    5  O   UNL     1     -13.456   9.545  70.964  1.00  0.00    -0.296 OA 
HETATM    6  O   UNL     1     -11.131   9.833  71.892  1.00  0.00    -0.068 OA 
ENDROOT
BRANCH   2   7
HETATM    7  C   UNL     1     -11.945  11.467  70.020  1.00  0.00    -0.363 A  
HETATM    8  C   UNL     1     -11.334  11.558  68.765  1.00  0.00    -0.327 A  
HETATM    9  C   UNL     1     -11.233  12.810  68.145  1.00  0.00    -0.272 A  
HETATM   10  C   UNL     1     -11.730  13.979  68.724  1.00  0.00    -0.353 A  
HETATM   11  N   UNL     1     -11.723  15.208  68.064  1.00  0.00    -0.420 NA 
HETATM   12  C   UNL     1     -12.359  13.855  69.971  1.00  0.00    -0.378 A  
HETATM   13  H   UNL     1     -12.429  15.917  68.267  1.00  0.00     0.000 HD 
HETATM   14  C   UNL     1     -10.687  15.448  67.081  1.00  0.00    -0.314 C  
HETATM   15  C   UNL     1     -12.464  12.615  70.625  1.00  0.00    -0.239 A  
HETATM   16  N   UNL     1     -10.858  14.456  66.050  1.00  0.00    -0.303 N  
HETATM   17 CL   UNL     1     -13.246  12.623  72.167  1.00  0.00    -0.572 Cl 
HETATM   18  O   UNL     1     -11.163  12.002  65.674  1.00  0.00    -0.315 OA 
HETATM   19  S   UNL     1     -10.472  12.912  66.559  1.00  0.00    -0.268 S  
HETATM   20  O   UNL     1      -9.045  12.853  66.774  1.00  0.00    -0.225 OA 
HETATM   21  H   UNL     1     -11.181  14.673  65.107  1.00  0.00     0.000 HD 
BRANCH  14  22
HETATM   22  C   UNL     1     -10.864  16.839  66.448  1.00  0.00     0.011 C  
BRANCH  22  23
HETATM   23  C   UNL     1     -10.653  18.003  67.427  1.00  0.00    -0.378 C  
HETATM   24  C   UNL     1      -9.307  17.979  68.150  1.00  0.00    -0.287 C  
HETATM   25  C   UNL     1      -9.172  19.401  68.667  1.00  0.00    -0.432 C  
HETATM   26  C   UNL     1      -9.716  20.266  67.537  1.00  0.00    -0.575 C  
HETATM   27  C   UNL     1     -10.656  19.370  66.727  1.00  0.00    -0.574 C  
ENDBRANCH  22  23
ENDBRANCH  14  22
ENDBRANCH   2   7
TORSDOF 3
ENDMDL
MODEL       11
REMARK 921   NORMALIZED FREE ENERGY PREDICTED BY IDOCK:   -6.65 KCAL/MOL
REMARK 922        TOTAL FREE ENERGY PREDICTED BY IDOCK:   -8.06 KCAL/MOL
REMARK 923 INTER-LIGAND FREE ENERGY PREDICTED BY IDOCK:   -7.87 KCAL/MOL
REMARK 924 INTRA-LIGAND FREE ENERGY PREDICTED BY IDOCK:   -0.19 KCAL/MOL
REMARK 927      BINDING AFFINITY PREDICTED BY RF-SCORE:    0.00 PKD
ROOT
HETATM    1  N   UNL     1     -10.504  10.777  69.900  1.00  0.00    -0.451 N  
HETATM    2  S   UNL     1     -11.763  11.221  68.882  1.00  0.00    -0.350 S  
HETATM    3  H2  UNL     1      -9.688  10.210  69.666  1.00  0.00     0.000 HD 
HETATM    4  H1  UNL     1     -10.730  11.197  70.801  1.00  0.00     0.000 HD 
HETATM    5  O   UNL     1     -11.442  10.626  67.602  1.00  0.00    -0.474 OA 
HETATM    6  O   UNL     1     -12.994  10.932  69.564  1.00  0.00    -0.121 OA 
ENDROOT
BRANCH   2   7
HETATM    7  C   UNL     1     -11.567  12.972  68.763  1.00  0.00    -0.309 A  
HETATM    8  C   UNL     1     -11.042  13.511  67.584  1.00  0.00    -0.290 A  
HETATM    9  C   UNL     1     -10.876  14.899  67.484  1.00  0.00    -0.292 A  
HETATM   10  C   UNL     1     -11.226  15.775  68.513  1.00  0.00    -0.354 A  
HETATM   11  N   UNL     1     -11.159  17.161  68.375  1.00  0.00    -0.217 NA 
HETATM   12  C   UNL     1     -11.773  15.210  69.672  1.00  0.00    -0.353 A  
HETATM   13  H   UNL     1     -11.783  17.772  68.903  1.00  0.00     0.000 HD 
HETATM   14  C   UNL     1     -10.177  17.710  67.462  1.00  0.00    -0.348 C  
HETATM   15  C   UNL     1     -11.940  13.821  69.810  1.00  0.00    -0.344 A  
HETATM   16  N   UNL     1     -10.508  17.207  66.152  1.00  0.00    -0.313 N  
HETATM   17 CL   UNL     1     -12.607  13.269  71.306  1.00  0.00    -0.434 Cl 
HETATM   18  O   UNL     1     -11.053  15.112  64.898  1.00  0.00    -0.389 OA 
HETATM   19  S   UNL     1     -10.223  15.569  65.990  1.00  0.00    -0.356 S  
HETATM   20  O   UNL     1      -8.795  15.355  66.023  1.00  0.00    -0.281 OA 
HETATM   21  H   UNL     1     -10.877  17.791  65.401  1.00  0.00     0.000 HD 
BRANCH  14  22
HETATM   22  C   UNL     1     -10.278  19.245  67.430  1.00  0.00    -0.514 C  
BRANCH  22  23
HETATM   23  C   UNL     1      -8.930  19.962  67.594  1.00  0.00    -0.416 C  
HETATM   24  C   UNL     1      -8.057  19.410  68.720  1.00  0.00    -0.388 C  
HETATM   25  C   UNL     1      -6.679  19.950  68.380  1.00  0.00    -0.332 C  
HETATM   26  C   UNL     1      -6.593  19.835  66.864  1.00  0.00    -0.208 C  
HETATM   27  C   UNL     1      -8.035  19.827  66.353  1.00  0.00    -0.335 C  
ENDBRANCH  22  23
ENDBRANCH  14  22
ENDBRANCH   2   7
TORSDOF 3
ENDMDL
MODEL       12
REMARK 921   NORMALIZED FREE ENERGY PREDICTED BY IDOCK:   -6.62 KCAL/MOL
REMARK 922        TOTAL FREE ENERGY PREDICTED BY IDOCK:   -8.02 KCAL/MOL
REMARK 923 INTER-LIGAND FREE ENERGY PREDICTED BY IDOCK:   -7.64 KCAL/MOL
REMARK 924 INTRA-LIGAND FREE ENERGY PREDICTED BY IDOCK:   -0.38 KCAL/MOL
REMARK 927      BINDING AFFINITY PREDICTED BY RF-SCORE:    0.00 PKD
ROOT
HETATM    1  N   UNL     1     -10.869  11.050  63.302  1.00  0.00    -0.757 N  
HETATM    2  S   UNL     1     -11.519  12.318  64.190  1.00  0.00    -0.419 S  
HETATM    3  H2  UNL     1     -10.058  11.079  62.684  1.00  0.00     0.000 HD 
HETATM    4  H1  UNL     1     -11.459  10.247  63.515  1.00  0.00     0.000 HD 
HETATM    5  O   UNL     1     -10.680  13.459  63.889  1.00  0.00    -0.254 OA 
HETATM    6  O   UNL     1     -12.935  12.335  63.950  1.00  0.00    -0.753 OA 
ENDROOT
BRANCH   2   7
HETATM    7  C   UNL     1     -11.222  11.817  65.857  1.00  0.00    -0.290 A  
HETATM    8  C   UNL     1     -10.630  10.571  66.090  1.00  0.00    -0.182 A  
HETATM    9  C   UNL     1     -10.398  10.162  67.410  1.00  0.00    -0.238 A  
HETATM   10  C   UNL     1     -10.723  10.956  68.512  1.00  0.00    -0.204 A  
HETATM   11  N   UNL     1     -10.398  10.596  69.820  1.00  0.00    -0.425 NA 
HETATM   12  C   UNL     1     -11.291  12.209  68.249  1.00  0.00    -0.343 A  
HETATM   13  H   UNL     1     -10.234  11.306  70.534  1.00  0.00     0.000 HD 
HETATM   14  C   UNL     1     -10.301   9.186  70.135  1.00  0.00    -0.213 C  
HETATM   15  C   UNL     1     -11.550  12.643  66.936  1.00  0.00    -0.373 A  
HETATM   16  N   UNL     1      -9.244   8.652  69.313  1.00  0.00    -0.149 N  
HETATM   17 CL   UNL     1     -12.275  14.204  66.770  1.00  0.00    -0.475 Cl 
HETATM   18  O   UNL     1      -8.395   8.566  66.962  1.00  0.00    -0.109 OA 
HETATM   19  S   UNL     1      -9.643   8.595  67.692  1.00  0.00    -0.162 S  
HETATM   20  O   UNL     1     -10.670   7.596  67.516  1.00  0.00    -0.253 OA 
HETATM   21  H   UNL     1      -8.346   8.340  69.683  1.00  0.00     0.000 HD 
BRANCH  14  22
HETATM   22  C   UNL     1      -9.910   8.995  71.611  1.00  0.00    -0.366 C  
BRANCH  22  23
HETATM   23  C   UNL     1     -10.790   7.989  72.366  1.00  0.00    -0.392 C  
HETATM   24  C   UNL     1     -11.224   6.785  71.532  1.00  0.00    -0.300 C  
HETATM   25  C   UNL     1     -11.660   5.780  72.585  1.00  0.00    -0.304 C  
HETATM   26  C   UNL     1     -10.639   5.940  73.703  1.00  0.00    -0.292 C  
HETATM   27  C   UNL     1     -10.065   7.351  73.560  1.00  0.00    -0.390 C  
ENDBRANCH  22  23
ENDBRANCH  14  22
ENDBRANCH   2   7
TORSDOF 3
ENDMDL
MODEL       13
REMARK 921   NORMALIZED FREE ENERGY PREDICTED BY IDOCK:   -6.58 KCAL/MOL
REMARK 922        TOTAL FREE ENERGY PREDICTED BY IDOCK:   -7.97 KCAL/MOL
REMARK 923 INTER-LIGAND FREE ENERGY PREDICTED BY IDOCK:   -7.87 KCAL/MOL
REMARK 924 INTRA-LIGAND FREE ENERGY PREDICTED BY IDOCK:   -0.10 KCAL/MOL
REMARK 927      BINDING AFFINITY PREDICTED BY RF-SCORE:    0.00 PKD
ROOT
HETATM    1  N   UNL     1      -8.897  18.455  66.213  1.00  0.00    -0.238 N  
HETATM    2  S   UNL     1     -10.532  18.078  66.257  1.00  0.00    -0.268 S  
HETATM    3  H2  UNL     1      -8.422  19.210  66.709  1.00  0.00     0.000 HD 
HETATM    4  H1  UNL     1      -8.483  17.767  65.584  1.00  0.00     0.000 HD 
HETATM    5  O   UNL     1     -11.121  19.055  67.149  1.00  0.00    -0.358 OA 
HETATM    6  O   UNL     1     -10.980  17.927  64.900  1.00  0.00    -0.827 OA 
ENDROOT
BRANCH   2   7
HETATM    7  C   UNL     1     -10.546  16.501  67.049  1.00  0.00    -0.255 A  
HETATM    8  C   UNL     1     -10.743  15.357  66.267  1.00  0.00    -0.312 A  
HETATM    9  C   UNL     1     -10.762  14.101  66.889  1.00  0.00    -0.286 A  
HETATM   10  C   UNL     1     -10.581  13.939  68.264  1.00  0.00    -0.257 A  
HETATM   11  N   UNL     1     -10.497  12.685  68.868  1.00  0.00    -0.415 NA 
HETATM   12  C   UNL     1     -10.361  15.099  69.019  1.00  0.00    -0.244 A  
HETATM   13  H   UNL     1      -9.958  12.550  69.725  1.00  0.00     0.000 HD 
HETATM   14  C   UNL     1     -11.195  11.579  68.246  1.00  0.00    -0.261 C  
HETATM   15  C   UNL     1     -10.349  16.375  68.427  1.00  0.00    -0.282 A  
HETATM   16  N   UNL     1     -10.621  11.416  66.934  1.00  0.00    -0.240 N  
HETATM   17 CL   UNL     1     -10.088  17.713  69.490  1.00  0.00    -0.035 Cl 
HETATM   18  O   UNL     1      -9.987  12.668  64.863  1.00  0.00    -0.237 OA 
HETATM   19  S   UNL     1     -11.001  12.667  65.894  1.00  0.00    -0.287 S  
HETATM   20  O   UNL     1     -12.411  12.592  65.596  1.00  0.00    -0.648 OA 
HETATM   21  H   UNL     1     -10.043  10.618  66.668  1.00  0.00     0.000 HD 
BRANCH  14  22
HETATM   22  C   UNL     1     -10.960  10.284  69.042  1.00  0.00    -0.274 C  
BRANCH  22  23
HETATM   23  C   UNL     1     -11.478  10.336  70.487  1.00  0.00    -0.427 C  
HETATM   24  C   UNL     1     -12.991  10.512  70.605  1.00  0.00    -0.362 C  
HETATM   25  C   UNL     1     -13.273  10.084  72.035  1.00  0.00    -0.545 C  
HETATM   26  C   UNL     1     -12.359   8.886  72.257  1.00  0.00    -0.430 C  
HETATM   27  C   UNL     1     -11.212   9.033  71.255  1.00  0.00    -0.385 C  
ENDBRANCH  22  23
ENDBRANCH  14  22
ENDBRANCH   2   7
TORSDOF 3
ENDMDL
MODEL       14
REMARK 921   NORMALIZED FREE ENERGY PREDICTED BY IDOCK:   -6.56 KCAL/MOL
REMARK 922        TOTAL FREE ENERGY PREDICTED BY IDOCK:   -7.94 KCAL/MOL
REMARK 923 INTER-LIGAND FREE ENERGY PREDICTED BY IDOCK:   -7.54 KCAL/MOL
REMARK 924 INTRA-LIGAND FREE ENERGY PREDICTED BY IDOCK:   -0.40 KCAL/MOL
REMARK 927      BINDING AFFINITY PREDICTED BY RF-SCORE:    0.00 PKD
ROOT
HETATM    1  N   UNL     1      -9.512   9.746  63.109  1.00  0.00    -0.534 N  
HETATM    2  S   UNL     1      -8.390   9.712  64.358  1.00  0.00    -0.184 S  
HETATM    3  H2  UNL     1     -10.126   8.989  62.807  1.00  0.00     0.000 HD 
HETATM    4  H1  UNL     1      -9.446  10.686  62.719  1.00  0.00     0.000 HD 
HETATM    5  O   UNL     1      -8.483   8.378  64.913  1.00  0.00    -0.167 OA 
HETATM    6  O   UNL     1      -7.154  10.234  63.846  1.00  0.00    -0.127 OA 
ENDROOT
BRANCH   2   7
HETATM    7  C   UNL     1      -9.065  10.861  65.517  1.00  0.00    -0.201 A  
HETATM    8  C   UNL     1     -10.113  11.693  65.108  1.00  0.00    -0.304 A  
HETATM    9  C   UNL     1     -10.649  12.612  66.019  1.00  0.00    -0.270 A  
HETATM   10  C   UNL     1     -10.188  12.726  67.333  1.00  0.00    -0.222 A  
HETATM   11  N   UNL     1     -10.789  13.567  68.270  1.00  0.00    -0.251 NA 
HETATM   12  C   UNL     1      -9.155  11.864  67.723  1.00  0.00    -0.180 A  
HETATM   13  H   UNL     1     -10.759  13.348  69.266  1.00  0.00     0.000 HD 
HETATM   14  C   UNL     1     -11.457  14.759  67.788  1.00  0.00    -0.345 C  
HETATM   15  C   UNL     1      -8.586  10.940  66.829  1.00  0.00    -0.137 A  
HETATM   16  N   UNL     1     -12.524  14.313  66.928  1.00  0.00    -0.543 N  
HETATM   17 CL   UNL     1      -7.305   9.958  67.447  1.00  0.00    -0.090 Cl 
HETATM   18  O   UNL     1     -13.035  12.798  65.004  1.00  0.00    -0.811 OA 
HETATM   19  S   UNL     1     -11.975  13.648  65.497  1.00  0.00    -0.411 S  
HETATM   20  O   UNL     1     -11.394  14.705  64.703  1.00  0.00    -0.387 OA 
HETATM   21  H   UNL     1     -13.512  14.396  67.167  1.00  0.00     0.000 HD 
BRANCH  14  22
HETATM   22  C   UNL     1     -12.075  15.535  68.964  1.00  0.00    -0.246 C  
BRANCH  22  23
HETATM   23  C   UNL     1     -11.867  14.868  70.331  1.00  0.00    -0.352 C  
HETATM   24  C   UNL     1     -11.537  15.841  71.461  1.00  0.00    -0.531 C  
HETATM   25  C   UNL     1     -11.830  15.028  72.710  1.00  0.00    -0.391 C  
HETATM   26  C   UNL     1     -13.091  14.248  72.363  1.00  0.00    -0.519 C  
HETATM   27  C   UNL     1     -13.130  14.154  70.837  1.00  0.00    -0.338 C  
ENDBRANCH  22  23
ENDBRANCH  14  22
ENDBRANCH   2   7
TORSDOF 3
ENDMDL
MODEL       15
REMARK 921   NORMALIZED FREE ENERGY PREDICTED BY IDOCK:   -6.51 KCAL/MOL
REMARK 922        TOTAL FREE ENERGY PREDICTED BY IDOCK:   -7.89 KCAL/MOL
REMARK 923 INTER-LIGAND FREE ENERGY PREDICTED BY IDOCK:   -7.75 KCAL/MOL
REMARK 924 INTRA-LIGAND FREE ENERGY PREDICTED BY IDOCK:   -0.14 KCAL/MOL
REMARK 927      BINDING AFFINITY PREDICTED BY RF-SCORE:    0.00 PKD
ROOT
HETATM    1  N   UNL     1     -10.947  18.892  67.048  1.00  0.00    -0.293 N  
HETATM    2  S   UNL     1     -10.181  17.914  65.919  1.00  0.00    -0.124 S  
HETATM    3  H2  UNL     1     -11.880  19.299  66.984  1.00  0.00     0.000 HD 
HETATM    4  H1  UNL     1     -10.278  18.991  67.811  1.00  0.00     0.000 HD 
HETATM    5  O   UNL     1     -11.131  17.773  64.836  1.00  0.00    -0.821 OA 
HETATM    6  O   UNL     1      -8.864  18.445  65.706  1.00  0.00    -0.433 OA 
ENDROOT
BRANCH   2   7
HETATM    7  C   UNL     1     -10.051  16.371  66.768  1.00  0.00    -0.285 A  
HETATM    8  C   UNL     1     -10.491  15.210  66.124  1.00  0.00    -0.320 A  
HETATM    9  C   UNL     1     -10.398  13.982  66.794  1.00  0.00    -0.271 A  
HETATM   10  C   UNL     1      -9.869  13.865  68.081  1.00  0.00    -0.240 A  
HETATM   11  N   UNL     1      -9.680  12.633  68.706  1.00  0.00    -0.419 NA 
HETATM   12  C   UNL     1      -9.412  15.040  68.692  1.00  0.00    -0.212 A  
HETATM   13  H   UNL     1      -8.942  12.503  69.399  1.00  0.00     0.000 HD 
HETATM   14  C   UNL     1     -10.562  11.542  68.345  1.00  0.00    -0.201 C  
HETATM   15  C   UNL     1      -9.504  16.289  68.052  1.00  0.00    -0.223 A  
HETATM   16  N   UNL     1     -10.359  11.297  66.939  1.00  0.00    -0.225 N  
HETATM   17 CL   UNL     1      -8.919  17.653  68.940  1.00  0.00    -0.194 Cl 
HETATM   18  O   UNL     1     -10.240  12.431  64.713  1.00  0.00    -0.284 OA 
HETATM   19  S   UNL     1     -10.947  12.524  65.971  1.00  0.00    -0.295 S  
HETATM   20  O   UNL     1     -12.388  12.512  66.054  1.00  0.00    -0.615 OA 
HETATM   21  H   UNL     1      -9.904  10.460  66.573  1.00  0.00     0.000 HD 
BRANCH  14  22
HETATM   22  C   UNL     1     -10.178  10.268  69.118  1.00  0.00    -0.234 C  
BRANCH  22  23
HETATM   23  C   UNL     1     -11.318   9.685  69.966  1.00  0.00    -0.239 C  
HETATM   24  C   UNL     1     -10.884   9.181  71.341  1.00  0.00    -0.419 C  
HETATM   25  C   UNL     1     -12.194   9.098  72.104  1.00  0.00    -0.408 C  
HETATM   26  C   UNL     1     -12.968  10.332  71.660  1.00  0.00    -0.570 C  
HETATM   27  C   UNL     1     -12.400  10.724  70.294  1.00  0.00    -0.423 C  
ENDBRANCH  22  23
ENDBRANCH  14  22
ENDBRANCH   2   7
TORSDOF 3
ENDMDL
MODEL       16
REMARK 921   NORMALIZED FREE ENERGY PREDICTED BY IDOCK:   -6.47 KCAL/MOL
REMARK 922        TOTAL FREE ENERGY PREDICTED BY IDOCK:   -7.84 KCAL/MOL
REMARK 923 INTER-LIGAND FREE ENERGY PREDICTED BY IDOCK:   -7.70 KCAL/MOL
REMARK 924 INTRA-LIGAND FREE ENERGY PREDICTED BY IDOCK:   -0.14 KCAL/MOL
REMARK 927      BINDING AFFINITY PREDICTED BY RF-SCORE:    0.00 PKD
ROOT
HETATM    1  N   UNL     1     -10.615  20.053  67.407  1.00  0.00    -0.354 N  
HETATM    2  S   UNL     1      -9.963  19.105  66.185  1.00  0.00    -0.340 S  
HETATM    3  H2  UNL     1     -11.529  20.507  67.419  1.00  0.00     0.000 HD 
HETATM    4  H1  UNL     1      -9.900  20.077  68.135  1.00  0.00     0.000 HD 
HETATM    5  O   UNL     1     -10.977  19.071  65.152  1.00  0.00    -0.471 OA 
HETATM    6  O   UNL     1      -8.634  19.585  65.925  1.00  0.00    -0.415 OA 
ENDROOT
BRANCH   2   7
HETATM    7  C   UNL     1      -9.864  17.512  66.939  1.00  0.00    -0.302 A  
HETATM    8  C   UNL     1     -10.440  16.419  66.283  1.00  0.00    -0.298 A  
HETATM    9  C   UNL     1     -10.373  15.153  66.879  1.00  0.00    -0.272 A  
HETATM   10  C   UNL     1      -9.739  14.930  68.103  1.00  0.00    -0.214 A  
HETATM   11  N   UNL     1      -9.581  13.655  68.646  1.00  0.00    -0.379 NA 
HETATM   12  C   UNL     1      -9.149  16.037  68.726  1.00  0.00    -0.222 A  
HETATM   13  H   UNL     1      -8.794  13.440  69.260  1.00  0.00     0.000 HD 
HETATM   14  C   UNL     1     -10.565  12.645  68.315  1.00  0.00    -0.237 C  
HETATM   15  C   UNL     1      -9.211  17.323  68.161  1.00  0.00    -0.267 A  
HETATM   16  N   UNL     1     -10.507  12.466  66.886  1.00  0.00    -0.223 N  
HETATM   17 CL   UNL     1      -8.456  18.595  69.057  1.00  0.00    -0.183 Cl 
HETATM   18  O   UNL     1     -10.511  13.714  64.718  1.00  0.00    -0.387 OA 
HETATM   19  S   UNL     1     -11.093  13.782  66.039  1.00  0.00    -0.293 S  
HETATM   20  O   UNL     1     -12.518  13.857  66.257  1.00  0.00    -0.453 OA 
HETATM   21  H   UNL     1     -10.145  11.624  66.438  1.00  0.00     0.000 HD 
BRANCH  14  22
HETATM   22  C   UNL     1     -10.203  11.308  68.985  1.00  0.00    -0.169 C  
BRANCH  22  23
HETATM   23  C   UNL     1     -11.366  10.655  69.746  1.00  0.00    -0.371 C  
HETATM   24  C   UNL     1     -10.932   9.736  70.887  1.00  0.00    -0.411 C  
HETATM   25  C   UNL     1     -12.197   9.604  71.717  1.00  0.00    -0.464 C  
HETATM   26  C   UNL     1     -12.808  10.998  71.698  1.00  0.00    -0.540 C  
HETATM   27  C   UNL     1     -12.267  11.685  70.442  1.00  0.00    -0.434 C  
ENDBRANCH  22  23
ENDBRANCH  14  22
ENDBRANCH   2   7
TORSDOF 3
ENDMDL
MODEL       17
REMARK 921   NORMALIZED FREE ENERGY PREDICTED BY IDOCK:   -6.39 KCAL/MOL
REMARK 922        TOTAL FREE ENERGY PREDICTED BY IDOCK:   -7.74 KCAL/MOL
REMARK 923 INTER-LIGAND FREE ENERGY PREDICTED BY IDOCK:   -7.26 KCAL/MOL
REMARK 924 INTRA-LIGAND FREE ENERGY PREDICTED BY IDOCK:   -0.49 KCAL/MOL
REMARK 927      BINDING AFFINITY PREDICTED BY RF-SCORE:    0.00 PKD
ROOT
HETATM    1  N   UNL     1     -11.624  16.588  70.400  1.00  0.00    -0.409 N  
HETATM    2  S   UNL     1     -12.400  15.398  71.295  1.00  0.00    -0.427 S  
HETATM    3  H2  UNL     1     -10.839  17.170  70.692  1.00  0.00     0.000 HD 
HETATM    4  H1  UNL     1     -12.108  16.602  69.502  1.00  0.00     0.000 HD 
HETATM    5  O   UNL     1     -11.714  15.377  72.570  1.00  0.00    -0.424 OA 
HETATM    6  O   UNL     1     -13.813  15.635  71.201  1.00  0.00    -0.583 OA 
ENDROOT
BRANCH   2   7
HETATM    7  C   UNL     1     -12.002  13.924  70.409  1.00  0.00    -0.323 A  
HETATM    8  C   UNL     1     -11.194  14.019  69.271  1.00  0.00    -0.304 A  
HETATM    9  C   UNL     1     -10.880  12.855  68.558  1.00  0.00    -0.257 A  
HETATM   10  C   UNL     1     -11.331  11.591  68.944  1.00  0.00    -0.268 A  
HETATM   11  N   UNL     1     -10.934  10.421  68.296  1.00  0.00    -0.253 NA 
HETATM   12  C   UNL     1     -12.117  11.521  70.102  1.00  0.00    -0.432 A  
HETATM   13  H   UNL     1     -10.892   9.533  68.797  1.00  0.00     0.000 HD 
HETATM   14  C   UNL     1     -10.583  10.503  66.893  1.00  0.00    -0.243 C  
HETATM   15  C   UNL     1     -12.461  12.672  70.832  1.00  0.00    -0.278 A  
HETATM   16  N   UNL     1      -9.456  11.397  66.802  1.00  0.00    -0.179 N  
HETATM   17 CL   UNL     1     -13.455  12.431  72.226  1.00  0.00    -0.573 Cl 
HETATM   18  O   UNL     1      -8.629  13.645  67.524  1.00  0.00    -0.173 OA 
HETATM   19  S   UNL     1      -9.854  12.986  67.131  1.00  0.00    -0.235 S  
HETATM   20  O   UNL     1     -10.688  13.472  66.057  1.00  0.00    -0.275 OA 
HETATM   21  H   UNL     1      -8.513  11.092  66.561  1.00  0.00     0.000 HD 
BRANCH  14  22
HETATM   22  C   UNL     1     -10.150   9.123  66.370  1.00  0.00    -0.345 C  
BRANCH  22  23
HETATM   23  C   UNL     1     -10.172   8.016  67.435  1.00  0.00    -0.330 C  
HETATM   24  C   UNL     1     -10.857   6.727  66.985  1.00  0.00    -0.453 C  
HETATM   25  C   UNL     1     -10.355   5.705  67.990  1.00  0.00    -0.258 C  
HETATM   26  C   UNL     1      -8.891   6.071  68.200  1.00  0.00    -0.111 C  
HETATM   27  C   UNL     1      -8.763   7.550  67.830  1.00  0.00    -0.123 C  
ENDBRANCH  22  23
ENDBRANCH  14  22
ENDBRANCH   2   7
TORSDOF 3
ENDMDL
MODEL       18
REMARK 921   NORMALIZED FREE ENERGY PREDICTED BY IDOCK:   -6.36 KCAL/MOL
REMARK 922        TOTAL FREE ENERGY PREDICTED BY IDOCK:   -7.72 KCAL/MOL
REMARK 923 INTER-LIGAND FREE ENERGY PREDICTED BY IDOCK:   -7.33 KCAL/MOL
REMARK 924 INTRA-LIGAND FREE ENERGY PREDICTED BY IDOCK:   -0.38 KCAL/MOL
REMARK 927      BINDING AFFINITY PREDICTED BY RF-SCORE:    0.00 PKD
ROOT
HETATM    1  N   UNL     1     -10.958  19.433  67.127  1.00  0.00    -0.449 N  
HETATM    2  S   UNL     1      -9.772  18.657  68.026  1.00  0.00    -0.338 S  
HETATM    3  H2  UNL     1     -10.839  20.233  66.504  1.00  0.00     0.000 HD 
HETATM    4  H1  UNL     1     -11.821  18.933  67.337  1.00  0.00     0.000 HD 
HETATM    5  O   UNL     1      -8.546  19.367  67.728  1.00  0.00    -0.296 OA 
HETATM    6  O   UNL     1     -10.263  18.526  69.370  1.00  0.00    -0.163 OA 
ENDROOT
BRANCH   2   7
HETATM    7  C   UNL     1      -9.702  17.059  67.279  1.00  0.00    -0.253 A  
HETATM    8  C   UNL     1     -10.710  16.690  66.382  1.00  0.00    -0.123 A  
HETATM    9  C   UNL     1     -10.666  15.421  65.790  1.00  0.00    -0.351 A  
HETATM   10  C   UNL     1      -9.645  14.504  66.050  1.00  0.00    -0.275 A  
HETATM   11  N   UNL     1      -9.544  13.283  65.384  1.00  0.00    -0.495 NA 
HETATM   12  C   UNL     1      -8.635  14.909  66.933  1.00  0.00    -0.269 A  
HETATM   13  H   UNL     1      -8.637  12.837  65.241  1.00  0.00     0.000 HD 
HETATM   14  C   UNL     1     -10.762  12.666  64.902  1.00  0.00    -0.299 C  
HETATM   15  C   UNL     1      -8.658  16.170  67.554  1.00  0.00    -0.177 A  
HETATM   16  N   UNL     1     -11.337  13.580  63.948  1.00  0.00    -0.596 N  
HETATM   17 CL   UNL     1      -7.355  16.519  68.636  1.00  0.00    -0.182 Cl 
HETATM   18  O   UNL     1     -11.977  15.975  63.615  1.00  0.00    -0.765 OA 
HETATM   19  S   UNL     1     -11.935  14.971  64.654  1.00  0.00    -0.283 S  
HETATM   20  O   UNL     1     -13.094  14.615  65.438  1.00  0.00    -0.362 OA 
HETATM   21  H   UNL     1     -11.376  13.397  62.945  1.00  0.00     0.000 HD 
BRANCH  14  22
HETATM   22  C   UNL     1     -10.441  11.348  64.177  1.00  0.00    -0.421 C  
BRANCH  22  23
HETATM   23  C   UNL     1      -9.418  10.465  64.907  1.00  0.00    -0.320 C  
HETATM   24  C   UNL     1     -10.034   9.475  65.893  1.00  0.00    -0.342 C  
HETATM   25  C   UNL     1      -8.917   8.470  66.112  1.00  0.00    -0.220 C  
HETATM   26  C   UNL     1      -8.294   8.294  64.733  1.00  0.00    -0.129 C  
HETATM   27  C   UNL     1      -8.625   9.565  63.949  1.00  0.00    -0.226 C  
ENDBRANCH  22  23
ENDBRANCH  14  22
ENDBRANCH   2   7
TORSDOF 3
ENDMDL
MODEL       19
REMARK 921   NORMALIZED FREE ENERGY PREDICTED BY IDOCK:   -6.32 KCAL/MOL
REMARK 922        TOTAL FREE ENERGY PREDICTED BY IDOCK:   -7.67 KCAL/MOL
REMARK 923 INTER-LIGAND FREE ENERGY PREDICTED BY IDOCK:   -7.45 KCAL/MOL
REMARK 924 INTRA-LIGAND FREE ENERGY PREDICTED BY IDOCK:   -0.21 KCAL/MOL
REMARK 927      BINDING AFFINITY PREDICTED BY RF-SCORE:    0.00 PKD
ROOT
HETATM    1  N   UNL     1     -11.667  14.718  72.273  1.00  0.00    -0.304 N  
HETATM    2  S   UNL     1     -13.076  14.058  71.643  1.00  0.00    -0.378 S  
HETATM    3  H2  UNL     1     -11.444  14.881  73.256  1.00  0.00     0.000 HD 
HETATM    4  H1  UNL     1     -11.082  14.920  71.462  1.00  0.00     0.000 HD 
HETATM    5  O   UNL     1     -13.906  13.772  72.794  1.00  0.00    -0.716 OA 
HETATM    6  O   UNL     1     -13.523  14.920  70.584  1.00  0.00    -0.296 OA 
ENDROOT
BRANCH   2   7
HETATM    7  C   UNL     1     -12.515  12.535  70.950  1.00  0.00    -0.269 A  
HETATM    8  C   UNL     1     -12.904  11.336  71.557  1.00  0.00    -0.519 A  
HETATM    9  C   UNL     1     -12.458  10.122  71.017  1.00  0.00    -0.375 A  
HETATM   10  C   UNL     1     -11.645  10.056  69.883  1.00  0.00    -0.175 A  
HETATM   11  N   UNL     1     -11.286   8.848  69.286  1.00  0.00    -0.422 NA 
HETATM   12  C   UNL     1     -11.291  11.271  69.281  1.00  0.00    -0.354 A  
HETATM   13  H   UNL     1     -11.088   8.796  68.286  1.00  0.00     0.000 HD 
HETATM   14  C   UNL     1     -11.201   7.670  70.124  1.00  0.00    -0.180 C  
HETATM   15  C   UNL     1     -11.711  12.506  69.806  1.00  0.00    -0.285 A  
HETATM   16  N   UNL     1     -12.518   7.456  70.668  1.00  0.00    -0.567 N  
HETATM   17 CL   UNL     1     -11.178  13.920  68.967  1.00  0.00    -0.294 Cl 
HETATM   18  O   UNL     1     -14.406   8.608  71.836  1.00  0.00    -0.423 OA 
HETATM   19  S   UNL     1     -12.962   8.618  71.783  1.00  0.00    -0.376 S  
HETATM   20  O   UNL     1     -12.140   8.449  72.959  1.00  0.00    -0.235 OA 
HETATM   21  H   UNL     1     -13.118   6.675  70.400  1.00  0.00     0.000 HD 
BRANCH  14  22
HETATM   22  C   UNL     1     -10.819   6.442  69.280  1.00  0.00    -0.387 C  
BRANCH  22  23
HETATM   23  C   UNL     1     -10.143   6.786  67.946  1.00  0.00    -0.189 C  
HETATM   24  C   UNL     1      -8.619   6.866  68.017  1.00  0.00    -0.123 C  
HETATM   25  C   UNL     1      -8.202   6.759  66.560  1.00  0.00    -0.117 C  
HETATM   26  C   UNL     1      -9.149   5.721  65.973  1.00  0.00    -0.163 C  
HETATM   27  C   UNL     1     -10.391   5.721  66.867  1.00  0.00    -0.306 C  
ENDBRANCH  22  23
ENDBRANCH  14  22
ENDBRANCH   2   7
TORSDOF 3
ENDMDL
MODEL       20
REMARK 921   NORMALIZED FREE ENERGY PREDICTED BY IDOCK:   -6.29 KCAL/MOL
REMARK 922        TOTAL FREE ENERGY PREDICTED BY IDOCK:   -7.63 KCAL/MOL
REMARK 923 INTER-LIGAND FREE ENERGY PREDICTED BY IDOCK:   -7.31 KCAL/MOL
REMARK 924 INTRA-LIGAND FREE ENERGY PREDICTED BY IDOCK:   -0.32 KCAL/MOL
REMARK 927      BINDING AFFINITY PREDICTED BY RF-SCORE:    0.00 PKD
ROOT
HETATM    1  N   UNL     1     -11.502  16.689  70.566  1.00  0.00    -0.434 N  
HETATM    2  S   UNL     1     -12.322  15.294  71.012  1.00  0.00    -0.408 S  
HETATM    3  H2  UNL     1     -10.690  17.104  71.025  1.00  0.00     0.000 HD 
HETATM    4  H1  UNL     1     -11.990  17.032  69.739  1.00  0.00     0.000 HD 
HETATM    5  O   UNL     1     -11.629  14.807  72.186  1.00  0.00    -0.277 OA 
HETATM    6  O   UNL     1     -13.724  15.602  71.034  1.00  0.00    -0.582 OA 
ENDROOT
BRANCH   2   7
HETATM    7  C   UNL     1     -11.993  14.203  69.663  1.00  0.00    -0.336 A  
HETATM    8  C   UNL     1     -11.549  14.745  68.452  1.00  0.00    -0.350 A  
HETATM    9  C   UNL     1     -11.293  13.886  67.374  1.00  0.00    -0.326 A  
HETATM   10  C   UNL     1     -11.450  12.501  67.461  1.00  0.00    -0.336 A  
HETATM   11  N   UNL     1     -11.097  11.639  66.424  1.00  0.00    -0.298 NA 
HETATM   12  C   UNL     1     -11.872  11.984  68.693  1.00  0.00    -0.366 A  
HETATM   13  H   UNL     1     -10.803  10.680  66.615  1.00  0.00     0.000 HD 
HETATM   14  C   UNL     1     -11.160  12.141  65.066  1.00  0.00    -0.320 C  
HETATM   15  C   UNL     1     -12.150  12.819  69.789  1.00  0.00    -0.237 A  
HETATM   16  N   UNL     1     -10.229  13.239  64.990  1.00  0.00    -0.461 N  
HETATM   17 CL   UNL     1     -12.681  12.038  71.237  1.00  0.00    -0.443 Cl 
HETATM   18  O   UNL     1      -9.537  15.352  66.137  1.00  0.00    -0.280 OA 
HETATM   19  S   UNL     1     -10.726  14.578  65.856  1.00  0.00    -0.319 S  
HETATM   20  O   UNL     1     -11.879  15.140  65.193  1.00  0.00    -0.248 OA 
HETATM   21  H   UNL     1      -9.357  13.202  64.462  1.00  0.00     0.000 HD 
BRANCH  14  22
HETATM   22  C   UNL     1     -10.709  11.055  64.074  1.00  0.00    -0.331 C  
BRANCH  22  23
HETATM   23  C   UNL     1      -9.204  10.755  64.117  1.00  0.00    -0.251 C  
HETATM   24  C   UNL     1      -8.855   9.372  64.665  1.00  0.00    -0.238 C  
HETATM   25  C   UNL     1      -7.428   9.165  64.187  1.00  0.00    -0.109 C  
HETATM   26  C   UNL     1      -7.415   9.745  62.779  1.00  0.00    -0.122 C  
HETATM   27  C   UNL     1      -8.563  10.755  62.722  1.00  0.00    -0.236 C  
ENDBRANCH  22  23
ENDBRANCH  14  22
ENDBRANCH   2   7
TORSDOF 3
ENDMDL
MODEL       21
REMARK 921   NORMALIZED FREE ENERGY PREDICTED BY IDOCK:   -6.27 KCAL/MOL
REMARK 922        TOTAL FREE ENERGY PREDICTED BY IDOCK:   -7.61 KCAL/MOL
REMARK 923 INTER-LIGAND FREE ENERGY PREDICTED BY IDOCK:   -7.62 KCAL/MOL
REMARK 924 INTRA-LIGAND FREE ENERGY PREDICTED BY IDOCK:    0.01 KCAL/MOL
REMARK 927      BINDING AFFINITY PREDICTED BY RF-SCORE:    0.00 PKD
ROOT
HETATM    1  N   UNL     1     -11.695  14.968  72.218  1.00  0.00    -0.365 N  
HETATM    2  S   UNL     1     -13.134  14.256  71.728  1.00  0.00    -0.384 S  
HETATM    3  H2  UNL     1     -11.386  15.146  73.173  1.00  0.00     0.000 HD 
HETATM    4  H1  UNL     1     -11.198  15.184  71.354  1.00  0.00     0.000 HD 
HETATM    5  O   UNL     1     -13.840  13.949  72.954  1.00  0.00    -0.662 OA 
HETATM    6  O   UNL     1     -13.710  15.093  70.713  1.00  0.00    -0.324 OA 
ENDROOT
BRANCH   2   7
HETATM    7  C   UNL     1     -12.589  12.747  70.990  1.00  0.00    -0.271 A  
HETATM    8  C   UNL     1     -12.908  11.538  71.618  1.00  0.00    -0.475 A  
HETATM    9  C   UNL     1     -12.473  10.336  71.043  1.00  0.00    -0.384 A  
HETATM   10  C   UNL     1     -11.740  10.292  69.855  1.00  0.00    -0.225 A  
HETATM   11  N   UNL     1     -11.396   9.094  69.229  1.00  0.00    -0.420 NA 
HETATM   12  C   UNL     1     -11.456  11.516  69.235  1.00  0.00    -0.370 A  
HETATM   13  H   UNL     1     -11.268   9.049  68.217  1.00  0.00     0.000 HD 
HETATM   14  C   UNL     1     -11.227   7.916  70.054  1.00  0.00    -0.100 C  
HETATM   15  C   UNL     1     -11.867  12.739  69.793  1.00  0.00    -0.310 A  
HETATM   16  N   UNL     1     -12.498   7.670  70.687  1.00  0.00    -0.521 N  
HETATM   17 CL   UNL     1     -11.424  14.168  68.926  1.00  0.00    -0.303 Cl 
HETATM   18  O   UNL     1     -14.326   8.776  71.989  1.00  0.00    -0.420 OA 
HETATM   19  S   UNL     1     -12.889   8.819  71.836  1.00  0.00    -0.400 S  
HETATM   20  O   UNL     1     -11.984   8.665  72.950  1.00  0.00    -0.184 OA 
HETATM   21  H   UNL     1     -13.097   6.877  70.458  1.00  0.00     0.000 HD 
BRANCH  14  22
HETATM   22  C   UNL     1     -10.878   6.699  69.180  1.00  0.00    -0.329 C  
BRANCH  22  23
HETATM   23  C   UNL     1      -9.957   5.680  69.867  1.00  0.00    -0.268 C  
HETATM   24  C   UNL     1     -10.418   5.257  71.261  1.00  0.00    -0.274 C  
HETATM   25  C   UNL     1      -9.639   3.975  71.504  1.00  0.00    -0.237 C  
HETATM   26  C   UNL     1      -9.655   3.264  70.157  1.00  0.00    -0.191 C  
HETATM   27  C   UNL     1      -9.874   4.351  69.102  1.00  0.00    -0.198 C  
ENDBRANCH  22  23
ENDBRANCH  14  22
ENDBRANCH   2   7
TORSDOF 3
ENDMDL
MODEL       22
REMARK 921   NORMALIZED FREE ENERGY PREDICTED BY IDOCK:   -6.25 KCAL/MOL
REMARK 922        TOTAL FREE ENERGY PREDICTED BY IDOCK:   -7.58 KCAL/MOL
REMARK 923 INTER-LIGAND FREE ENERGY PREDICTED BY IDOCK:   -7.15 KCAL/MOL
REMARK 924 INTRA-LIGAND FREE ENERGY PREDICTED BY IDOCK:   -0.43 KCAL/MOL
REMARK 927      BINDING AFFINITY PREDICTED BY RF-SCORE:    0.00 PKD
ROOT
HETATM    1  N   UNL     1     -11.691  13.094  63.635  1.00  0.00    -0.628 N  
HETATM    2  S   UNL     1     -11.970  14.116  64.937  1.00  0.00    -0.440 S  
HETATM    3  H2  UNL     1     -11.097  13.270  62.825  1.00  0.00     0.000 HD 
HETATM    4  H1  UNL     1     -12.244  12.259  63.830  1.00  0.00     0.000 HD 
HETATM    5  O   UNL     1     -11.186  15.302  64.661  1.00  0.00    -0.396 OA 
HETATM    6  O   UNL     1     -13.390  14.180  65.143  1.00  0.00    -0.684 OA 
ENDROOT
BRANCH   2   7
HETATM    7  C   UNL     1     -11.230  13.243  66.282  1.00  0.00    -0.299 A  
HETATM    8  C   UNL     1     -10.708  11.967  66.049  1.00  0.00    -0.326 A  
HETATM    9  C   UNL     1     -10.126  11.264  67.113  1.00  0.00    -0.192 A  
HETATM   10  C   UNL     1     -10.032  11.792  68.402  1.00  0.00    -0.202 A  
HETATM   11  N   UNL     1      -9.362  11.138  69.435  1.00  0.00    -0.378 NA 
HETATM   12  C   UNL     1     -10.541  13.082  68.601  1.00  0.00    -0.257 A  
HETATM   13  H   UNL     1      -8.928  11.663  70.195  1.00  0.00     0.000 HD 
HETATM   14  C   UNL     1      -9.299   9.691  69.400  1.00  0.00    -0.193 C  
HETATM   15  C   UNL     1     -11.143  13.808  67.558  1.00  0.00    -0.278 A  
HETATM   16  N   UNL     1      -8.590   9.339  68.195  1.00  0.00    -0.124 N  
HETATM   17 CL   UNL     1     -11.744  15.378  67.960  1.00  0.00    -0.307 Cl 
HETATM   18  O   UNL     1      -8.500   9.775  65.733  1.00  0.00    -0.128 OA 
HETATM   19  S   UNL     1      -9.462   9.661  66.806  1.00  0.00    -0.171 S  
HETATM   20  O   UNL     1     -10.578   8.747  66.755  1.00  0.00    -0.258 OA 
HETATM   21  H   UNL     1      -7.653   8.935  68.190  1.00  0.00     0.000 HD 
BRANCH  14  22
HETATM   22  C   UNL     1      -8.499   9.162  70.603  1.00  0.00    -0.246 C  
BRANCH  22  23
HETATM   23  C   UNL     1      -9.244   8.107  71.433  1.00  0.00    -0.195 C  
HETATM   24  C   UNL     1      -8.969   8.179  72.934  1.00  0.00    -0.328 C  
HETATM   25  C   UNL     1     -10.118   7.385  73.531  1.00  0.00    -0.390 C  
HETATM   26  C   UNL     1     -11.324   7.778  72.689  1.00  0.00    -0.449 C  
HETATM   27  C   UNL     1     -10.770   8.257  71.346  1.00  0.00    -0.282 C  
ENDBRANCH  22  23
ENDBRANCH  14  22
ENDBRANCH   2   7
TORSDOF 3
ENDMDL
MODEL       23
REMARK 921   NORMALIZED FREE ENERGY PREDICTED BY IDOCK:   -6.24 KCAL/MOL
REMARK 922        TOTAL FREE ENERGY PREDICTED BY IDOCK:   -7.57 KCAL/MOL
REMARK 923 INTER-LIGAND FREE ENERGY PREDICTED BY IDOCK:   -7.45 KCAL/MOL
REMARK 924 INTRA-LIGAND FREE ENERGY PREDICTED BY IDOCK:   -0.13 KCAL/MOL
REMARK 927      BINDING AFFINITY PREDICTED BY RF-SCORE:    0.00 PKD
ROOT
HETATM    1  N   UNL     1     -10.793  19.254  67.473  1.00  0.00    -0.461 N  
HETATM    2  S   UNL     1     -10.185  18.859  65.959  1.00  0.00    -0.318 S  
HETATM    3  H2  UNL     1     -11.714  19.635  67.691  1.00  0.00     0.000 HD 
HETATM    4  H1  UNL     1     -10.043  19.030  68.127  1.00  0.00     0.000 HD 
HETATM    5  O   UNL     1     -11.249  19.177  65.030  1.00  0.00    -0.223 OA 
HETATM    6  O   UNL     1      -8.881  19.451  65.847  1.00  0.00    -0.425 OA 
ENDROOT
BRANCH   2   7
HETATM    7  C   UNL     1     -10.015  17.104  66.054  1.00  0.00    -0.253 A  
HETATM    8  C   UNL     1     -11.025  16.300  65.515  1.00  0.00    -0.154 A  
HETATM    9  C   UNL     1     -10.901  14.907  65.593  1.00  0.00    -0.341 A  
HETATM   10  C   UNL     1      -9.799  14.280  66.179  1.00  0.00    -0.316 A  
HETATM   11  N   UNL     1      -9.626  12.896  66.165  1.00  0.00    -0.373 NA 
HETATM   12  C   UNL     1      -8.791  15.109  66.689  1.00  0.00    -0.321 A  
HETATM   13  H   UNL     1      -8.693  12.484  66.183  1.00  0.00     0.000 HD 
HETATM   14  C   UNL     1     -10.809  12.061  66.124  1.00  0.00    -0.286 C  
HETATM   15  C   UNL     1      -8.891  16.511  66.638  1.00  0.00    -0.256 A  
HETATM   16  N   UNL     1     -11.494  12.377  64.896  1.00  0.00    -0.322 N  
HETATM   17 CL   UNL     1      -7.579  17.402  67.327  1.00  0.00    -0.206 Cl 
HETATM   18  O   UNL     1     -12.340  14.286  63.518  1.00  0.00    -0.714 OA 
HETATM   19  S   UNL     1     -12.174  13.903  64.902  1.00  0.00    -0.426 S  
HETATM   20  O   UNL     1     -13.268  13.904  65.844  1.00  0.00    -0.419 OA 
HETATM   21  H   UNL     1     -11.558  11.736  64.105  1.00  0.00     0.000 HD 
BRANCH  14  22
HETATM   22  C   UNL     1     -10.411  10.575  66.087  1.00  0.00    -0.276 C  
BRANCH  22  23
HETATM   23  C   UNL     1     -10.498   9.871  67.448  1.00  0.00    -0.325 C  
HETATM   24  C   UNL     1      -9.162   9.755  68.182  1.00  0.00    -0.132 C  
HETATM   25  C   UNL     1      -9.582   9.464  69.612  1.00  0.00    -0.199 C  
HETATM   26  C   UNL     1     -10.802  10.348  69.834  1.00  0.00    -0.353 C  
HETATM   27  C   UNL     1     -11.386  10.627  68.447  1.00  0.00    -0.348 C  
ENDBRANCH  22  23
ENDBRANCH  14  22
ENDBRANCH   2   7
TORSDOF 3
ENDMDL
MODEL       24
REMARK 921   NORMALIZED FREE ENERGY PREDICTED BY IDOCK:   -6.23 KCAL/MOL
REMARK 922        TOTAL FREE ENERGY PREDICTED BY IDOCK:   -7.55 KCAL/MOL
REMARK 923 INTER-LIGAND FREE ENERGY PREDICTED BY IDOCK:   -7.84 KCAL/MOL
REMARK 924 INTRA-LIGAND FREE ENERGY PREDICTED BY IDOCK:    0.29 KCAL/MOL
REMARK 927      BINDING AFFINITY PREDICTED BY RF-SCORE:    0.00 PKD
ROOT
HETATM    1  N   UNL     1     -13.624   7.824  70.903  1.00  0.00    -0.505 N  
HETATM    2  S   UNL     1     -13.115   8.826  72.151  1.00  0.00    -0.422 S  
HETATM    3  H2  UNL     1     -14.576   7.518  70.704  1.00  0.00     0.000 HD 
HETATM    4  H1  UNL     1     -12.775   7.590  70.388  1.00  0.00     0.000 HD 
HETATM    5  O   UNL     1     -14.319   9.159  72.882  1.00  0.00    -0.519 OA 
HETATM    6  O   UNL     1     -11.995   8.191  72.787  1.00  0.00    -0.365 OA 
ENDROOT
BRANCH   2   7
HETATM    7  C   UNL     1     -12.553  10.262  71.291  1.00  0.00    -0.418 A  
HETATM    8  C   UNL     1     -12.965  11.521  71.743  1.00  0.00    -0.500 A  
HETATM    9  C   UNL     1     -12.530  12.665  71.062  1.00  0.00    -0.260 A  
HETATM   10  C   UNL     1     -11.686  12.605  69.951  1.00  0.00    -0.250 A  
HETATM   11  N   UNL     1     -11.170  13.746  69.337  1.00  0.00    -0.364 NA 
HETATM   12  C   UNL     1     -11.270  11.334  69.535  1.00  0.00    -0.337 A  
HETATM   13  H   UNL     1     -10.272  13.720  68.852  1.00  0.00     0.000 HD 
HETATM   14  C   UNL     1     -11.944  14.968  69.406  1.00  0.00    -0.303 C  
HETATM   15  C   UNL     1     -11.699  10.165  70.188  1.00  0.00    -0.256 A  
HETATM   16  N   UNL     1     -12.062  15.302  70.804  1.00  0.00    -0.319 N  
HETATM   17 CL   UNL     1     -11.119   8.667  69.548  1.00  0.00    -0.064 Cl 
HETATM   18  O   UNL     1     -12.667  14.351  73.037  1.00  0.00    -0.414 OA 
HETATM   19  S   UNL     1     -13.046  14.246  71.646  1.00  0.00    -0.368 S  
HETATM   20  O   UNL     1     -14.403  14.438  71.193  1.00  0.00    -0.230 OA 
HETATM   21  H   UNL     1     -11.595  16.100  71.234  1.00  0.00     0.000 HD 
BRANCH  14  22
HETATM   22  C   UNL     1     -11.198  16.112  68.698  1.00  0.00    -0.369 C  
BRANCH  22  23
HETATM   23  C   UNL     1     -10.615  15.726  67.331  1.00  0.00    -0.313 C  
HETATM   24  C   UNL     1     -11.484  14.758  66.529  1.00  0.00    -0.328 C  
HETATM   25  C   UNL     1     -10.942  14.903  65.117  1.00  0.00    -0.410 C  
HETATM   26  C   UNL     1     -10.663  16.393  64.972  1.00  0.00    -0.279 C  
HETATM   27  C   UNL     1     -10.468  16.931  66.391  1.00  0.00    -0.252 C  
ENDBRANCH  22  23
ENDBRANCH  14  22
ENDBRANCH   2   7
TORSDOF 3
ENDMDL
MODEL       25
REMARK 921   NORMALIZED FREE ENERGY PREDICTED BY IDOCK:   -6.20 KCAL/MOL
REMARK 922        TOTAL FREE ENERGY PREDICTED BY IDOCK:   -7.53 KCAL/MOL
REMARK 923 INTER-LIGAND FREE ENERGY PREDICTED BY IDOCK:   -7.32 KCAL/MOL
REMARK 924 INTRA-LIGAND FREE ENERGY PREDICTED BY IDOCK:   -0.21 KCAL/MOL
REMARK 927      BINDING AFFINITY PREDICTED BY RF-SCORE:    0.00 PKD
ROOT
HETATM    1  N   UNL     1     -11.031   7.348  73.418  1.00  0.00    -0.548 N  
HETATM    2  S   UNL     1     -11.474   7.004  71.836  1.00  0.00    -0.281 S  
HETATM    3  H2  UNL     1     -10.149   7.120  73.878  1.00  0.00     0.000 HD 
HETATM    4  H1  UNL     1     -11.833   7.834  73.819  1.00  0.00     0.000 HD 
HETATM    5  O   UNL     1     -10.335   6.315  71.266  1.00  0.00    -0.203 OA 
HETATM    6  O   UNL     1     -12.780   6.407  71.871  1.00  0.00    -0.280 OA 
ENDROOT
BRANCH   2   7
HETATM    7  C   UNL     1     -11.592   8.608  71.108  1.00  0.00    -0.281 A  
HETATM    8  C   UNL     1     -10.666   8.971  70.124  1.00  0.00    -0.258 A  
HETATM    9  C   UNL     1     -10.749  10.245  69.547  1.00  0.00    -0.249 A  
HETATM   10  C   UNL     1     -11.730  11.172  69.905  1.00  0.00    -0.355 A  
HETATM   11  N   UNL     1     -11.876  12.399  69.259  1.00  0.00    -0.313 NA 
HETATM   12  C   UNL     1     -12.658  10.774  70.876  1.00  0.00    -0.498 A  
HETATM   13  H   UNL     1     -12.786  12.858  69.203  1.00  0.00     0.000 HD 
HETATM   14  C   UNL     1     -10.699  13.005  68.670  1.00  0.00    -0.248 C  
HETATM   15  C   UNL     1     -12.595   9.507  71.484  1.00  0.00    -0.373 A  
HETATM   16  N   UNL     1     -10.227  12.091  67.661  1.00  0.00    -0.197 N  
HETATM   17 CL   UNL     1     -13.796   9.166  72.680  1.00  0.00    -0.481 Cl 
HETATM   18  O   UNL     1      -9.651   9.691  67.256  1.00  0.00    -0.155 OA 
HETATM   19  S   UNL     1      -9.584  10.687  68.301  1.00  0.00    -0.168 S  
HETATM   20  O   UNL     1      -8.353  11.024  68.976  1.00  0.00    -0.147 OA 
HETATM   21  H   UNL     1     -10.279  12.281  66.660  1.00  0.00     0.000 HD 
BRANCH  14  22
HETATM   22  C   UNL     1     -11.069  14.332  67.986  1.00  0.00    -0.286 C  
BRANCH  22  23
HETATM   23  C   UNL     1     -11.036  14.275  66.452  1.00  0.00    -0.311 C  
HETATM   24  C   UNL     1     -12.409  14.129  65.799  1.00  0.00    -0.481 C  
HETATM   25  C   UNL     1     -12.150  14.547  64.362  1.00  0.00    -0.492 C  
HETATM   26  C   UNL     1     -11.189  15.722  64.479  1.00  0.00    -0.334 C  
HETATM   27  C   UNL     1     -10.481  15.563  65.826  1.00  0.00    -0.378 C  
ENDBRANCH  22  23
ENDBRANCH  14  22
ENDBRANCH   2   7
TORSDOF 3
ENDMDL
MODEL       26
REMARK 921   NORMALIZED FREE ENERGY PREDICTED BY IDOCK:   -6.19 KCAL/MOL
REMARK 922        TOTAL FREE ENERGY PREDICTED BY IDOCK:   -7.51 KCAL/MOL
REMARK 923 INTER-LIGAND FREE ENERGY PREDICTED BY IDOCK:   -7.30 KCAL/MOL
REMARK 924 INTRA-LIGAND FREE ENERGY PREDICTED BY IDOCK:   -0.21 KCAL/MOL
REMARK 927      BINDING AFFINITY PREDICTED BY RF-SCORE:    0.00 PKD
ROOT
HETATM    1  N   UNL     1     -13.747   9.246  70.582  1.00  0.00    -0.341 N  
HETATM    2  S   UNL     1     -12.660  10.098  71.537  1.00  0.00    -0.460 S  
HETATM    3  H2  UNL     1     -14.757   9.177  70.705  1.00  0.00     0.000 HD 
HETATM    4  H1  UNL     1     -13.179   8.813  69.854  1.00  0.00     0.000 HD 
HETATM    5  O   UNL     1     -13.466  10.712  72.570  1.00  0.00    -0.086 OA 
HETATM    6  O   UNL     1     -11.572   9.214  71.851  1.00  0.00    -0.358 OA 
ENDROOT
BRANCH   2   7
HETATM    7  C   UNL     1     -12.083  11.355  70.440  1.00  0.00    -0.384 A  
HETATM    8  C   UNL     1     -12.281  12.695  70.788  1.00  0.00    -0.331 A  
HETATM    9  C   UNL     1     -11.833  13.699  69.919  1.00  0.00    -0.320 A  
HETATM   10  C   UNL     1     -11.180  13.418  68.718  1.00  0.00    -0.275 A  
HETATM   11  N   UNL     1     -10.642  14.415  67.904  1.00  0.00    -0.238 NA 
HETATM   12  C   UNL     1     -10.972  12.068  68.406  1.00  0.00    -0.276 A  
HETATM   13  H   UNL     1      -9.837  14.227  67.306  1.00  0.00     0.000 HD 
HETATM   14  C   UNL     1     -11.259  15.725  67.931  1.00  0.00    -0.313 C  
HETATM   15  C   UNL     1     -11.421  11.037  69.249  1.00  0.00    -0.300 A  
HETATM   16  N   UNL     1     -11.127  16.215  69.280  1.00  0.00    -0.309 N  
HETATM   17 CL   UNL     1     -11.112   9.420  68.721  1.00  0.00    -0.065 Cl 
HETATM   18  O   UNL     1     -11.485  15.586  71.675  1.00  0.00    -0.374 OA 
HETATM   19  S   UNL     1     -12.080  15.384  70.373  1.00  0.00    -0.401 S  
HETATM   20  O   UNL     1     -13.461  15.696  70.093  1.00  0.00    -0.048 OA 
HETATM   21  H   UNL     1     -10.516  16.989  69.541  1.00  0.00     0.000 HD 
BRANCH  14  22
HETATM   22  C   UNL     1     -10.510  16.687  66.992  1.00  0.00    -0.283 C  
BRANCH  22  23
HETATM   23  C   UNL     1     -10.111  18.016  67.648  1.00  0.00    -0.352 C  
HETATM   24  C   UNL     1      -8.615  18.323  67.586  1.00  0.00    -0.261 C  
HETATM   25  C   UNL     1      -8.560  19.814  67.867  1.00  0.00    -0.360 C  
HETATM   26  C   UNL     1      -9.757  20.383  67.115  1.00  0.00    -0.601 C  
HETATM   27  C   UNL     1     -10.750  19.230  66.958  1.00  0.00    -0.565 C  
ENDBRANCH  22  23
ENDBRANCH  14  22
ENDBRANCH   2   7
TORSDOF 3
ENDMDL
MODEL       27
REMARK 921   NORMALIZED FREE ENERGY PREDICTED BY IDOCK:   -6.13 KCAL/MOL
REMARK 922        TOTAL FREE ENERGY PREDICTED BY IDOCK:   -7.45 KCAL/MOL
REMARK 923 INTER-LIGAND FREE ENERGY PREDICTED BY IDOCK:   -7.20 KCAL/MOL
REMARK 924 INTRA-LIGAND FREE ENERGY PREDICTED BY IDOCK:   -0.25 KCAL/MOL
REMARK 927      BINDING AFFINITY PREDICTED BY RF-SCORE:    0.00 PKD
ROOT
HETATM    1  N   UNL     1     -13.284   7.085  72.054  1.00  0.00    -0.548 N  
HETATM    2  S   UNL     1     -11.608   7.121  71.976  1.00  0.00    -0.290 S  
HETATM    3  H2  UNL     1     -13.879   7.481  72.782  1.00  0.00     0.000 HD 
HETATM    4  H1  UNL     1     -13.579   6.584  71.216  1.00  0.00     0.000 HD 
HETATM    5  O   UNL     1     -11.189   7.832  73.165  1.00  0.00    -0.402 OA 
HETATM    6  O   UNL     1     -11.158   5.786  71.696  1.00  0.00    -0.265 OA 
ENDROOT
BRANCH   2   7
HETATM    7  C   UNL     1     -11.306   8.139  70.566  1.00  0.00    -0.221 A  
HETATM    8  C   UNL     1     -10.650   7.584  69.462  1.00  0.00    -0.239 A  
HETATM    9  C   UNL     1     -10.400   8.387  68.342  1.00  0.00    -0.200 A  
HETATM   10  C   UNL     1     -10.791   9.726  68.274  1.00  0.00    -0.210 A  
HETATM   11  N   UNL     1     -10.635  10.497  67.122  1.00  0.00    -0.253 NA 
HETATM   12  C   UNL     1     -11.467  10.250  69.383  1.00  0.00    -0.248 A  
HETATM   13  H   UNL     1     -11.269  11.271  66.918  1.00  0.00     0.000 HD 
HETATM   14  C   UNL     1      -9.549  10.168  66.222  1.00  0.00    -0.193 C  
HETATM   15  C   UNL     1     -11.722   9.474  70.528  1.00  0.00    -0.222 A  
HETATM   16  N   UNL     1      -9.790   8.825  65.759  1.00  0.00    -0.458 N  
HETATM   17 CL   UNL     1     -12.547  10.264  71.826  1.00  0.00    -0.509 Cl 
HETATM   18  O   UNL     1     -10.337   6.513  66.541  1.00  0.00    -0.156 OA 
HETATM   19  S   UNL     1      -9.583   7.675  66.953  1.00  0.00    -0.208 S  
HETATM   20  O   UNL     1      -8.177   7.613  67.279  1.00  0.00    -0.116 OA 
HETATM   21  H   UNL     1     -10.059   8.599  64.801  1.00  0.00     0.000 HD 
BRANCH  14  22
HETATM   22  C   UNL     1      -9.561  11.109  65.005  1.00  0.00    -0.278 C  
BRANCH  22  23
HETATM   23  C   UNL     1     -10.811  11.996  64.913  1.00  0.00    -0.349 C  
HETATM   24  C   UNL     1     -10.515  13.494  64.869  1.00  0.00    -0.417 C  
HETATM   25  C   UNL     1     -11.810  14.083  64.337  1.00  0.00    -0.453 C  
HETATM   26  C   UNL     1     -12.262  13.094  63.270  1.00  0.00    -0.438 C  
HETATM   27  C   UNL     1     -11.611  11.755  63.625  1.00  0.00    -0.521 C  
ENDBRANCH  22  23
ENDBRANCH  14  22
ENDBRANCH   2   7
TORSDOF 3
ENDMDL
MODEL       28
REMARK 921   NORMALIZED FREE ENERGY PREDICTED BY IDOCK:   -6.13 KCAL/MOL
REMARK 922        TOTAL FREE ENERGY PREDICTED BY IDOCK:   -7.44 KCAL/MOL
REMARK 923 INTER-LIGAND FREE ENERGY PREDICTED BY IDOCK:   -7.13 KCAL/MOL
REMARK 924 INTRA-LIGAND FREE ENERGY PREDICTED BY IDOCK:   -0.30 KCAL/MOL
REMARK 927      BINDING AFFINITY PREDICTED BY RF-SCORE:    0.00 PKD
ROOT
HETATM    1  N   UNL     1     -11.011  19.554  66.750  1.00  0.00    -0.386 N  
HETATM    2  S   UNL     1      -9.735  18.881  67.608  1.00  0.00    -0.326 S  
HETATM    3  H2  UNL     1     -10.968  20.306  66.062  1.00  0.00     0.000 HD 
HETATM    4  H1  UNL     1     -11.839  19.048  67.065  1.00  0.00     0.000 HD 
HETATM    5  O   UNL     1      -8.559  19.599  67.160  1.00  0.00    -0.288 OA 
HETATM    6  O   UNL     1     -10.115  18.841  68.992  1.00  0.00    -0.393 OA 
ENDROOT
BRANCH   2   7
HETATM    7  C   UNL     1      -9.670  17.233  66.979  1.00  0.00    -0.267 A  
HETATM    8  C   UNL     1     -10.729  16.771  66.191  1.00  0.00    -0.116 A  
HETATM    9  C   UNL     1     -10.689  15.461  65.694  1.00  0.00    -0.369 A  
HETATM   10  C   UNL     1      -9.623  14.594  65.943  1.00  0.00    -0.268 A  
HETATM   11  N   UNL     1      -9.534  13.328  65.365  1.00  0.00    -0.446 NA 
HETATM   12  C   UNL     1      -8.565  15.090  66.715  1.00  0.00    -0.279 A  
HETATM   13  H   UNL     1      -8.627  12.895  65.187  1.00  0.00     0.000 HD 
HETATM   14  C   UNL     1     -10.765  12.644  65.024  1.00  0.00    -0.293 C  
HETATM   15  C   UNL     1      -8.581  16.395  67.239  1.00  0.00    -0.181 A  
HETATM   16  N   UNL     1     -11.437  13.468  64.050  1.00  0.00    -0.568 N  
HETATM   17 CL   UNL     1      -7.214  16.859  68.190  1.00  0.00    -0.165 Cl 
HETATM   18  O   UNL     1     -12.174  15.813  63.589  1.00  0.00    -0.587 OA 
HETATM   19  S   UNL     1     -12.024  14.893  64.694  1.00  0.00    -0.339 S  
HETATM   20  O   UNL     1     -13.110  14.569  65.588  1.00  0.00    -0.358 OA 
HETATM   21  H   UNL     1     -11.543  13.207  63.070  1.00  0.00     0.000 HD 
BRANCH  14  22
HETATM   22  C   UNL     1     -10.457  11.283  64.377  1.00  0.00    -0.407 C  
BRANCH  22  23
HETATM   23  C   UNL     1     -10.029  10.198  65.376  1.00  0.00    -0.377 C  
HETATM   24  C   UNL     1      -8.523  10.129  65.621  1.00  0.00    -0.159 C  
HETATM   25  C   UNL     1      -8.424   9.344  66.918  1.00  0.00    -0.128 C  
HETATM   26  C   UNL     1      -9.578   9.866  67.763  1.00  0.00    -0.163 C  
HETATM   27  C   UNL     1     -10.606  10.430  66.780  1.00  0.00    -0.270 C  
ENDBRANCH  22  23
ENDBRANCH  14  22
ENDBRANCH   2   7
TORSDOF 3
ENDMDL
MODEL       29
REMARK 921   NORMALIZED FREE ENERGY PREDICTED BY IDOCK:   -6.09 KCAL/MOL
REMARK 922        TOTAL FREE ENERGY PREDICTED BY IDOCK:   -7.39 KCAL/MOL
REMARK 923 INTER-LIGAND FREE ENERGY PREDICTED BY IDOCK:   -7.34 KCAL/MOL
REMARK 924 INTRA-LIGAND FREE ENERGY PREDICTED BY IDOCK:   -0.05 KCAL/MOL
REMARK 927      BINDING AFFINITY PREDICTED BY RF-SCORE:    0.00 PKD
ROOT
HETATM    1  N   UNL     1     -13.121   9.032  70.803  1.00  0.00    -0.451 N  
HETATM    2  S   UNL     1     -11.461   9.183  70.601  1.00  0.00    -0.239 S  
HETATM    3  H2  UNL     1     -13.639   9.012  71.681  1.00  0.00     0.000 HD 
HETATM    4  H1  UNL     1     -13.499   8.966  69.858  1.00  0.00     0.000 HD 
HETATM    5  O   UNL     1     -10.925   9.277  71.942  1.00  0.00    -0.363 OA 
HETATM    6  O   UNL     1     -11.040   8.158  69.688  1.00  0.00    -0.154 OA 
ENDROOT
BRANCH   2   7
HETATM    7  C   UNL     1     -11.307  10.756  69.813  1.00  0.00    -0.300 A  
HETATM    8  C   UNL     1     -10.498  10.863  68.677  1.00  0.00    -0.216 A  
HETATM    9  C   UNL     1     -10.365  12.109  68.051  1.00  0.00    -0.205 A  
HETATM   10  C   UNL     1     -11.019  13.256  68.507  1.00  0.00    -0.266 A  
HETATM   11  N   UNL     1     -10.969  14.471  67.825  1.00  0.00    -0.268 NA 
HETATM   12  C   UNL     1     -11.842  13.114  69.632  1.00  0.00    -0.390 A  
HETATM   13  H   UNL     1     -11.738  15.140  67.887  1.00  0.00     0.000 HD 
HETATM   14  C   UNL     1      -9.796  14.758  67.026  1.00  0.00    -0.239 C  
HETATM   15  C   UNL     1     -11.987  11.881  70.291  1.00  0.00    -0.330 A  
HETATM   16  N   UNL     1      -9.732  13.741  66.007  1.00  0.00    -0.429 N  
HETATM   17 CL   UNL     1     -13.019  11.865  71.678  1.00  0.00    -0.502 Cl 
HETATM   18  O   UNL     1      -9.829  11.267  65.650  1.00  0.00    -0.214 OA 
HETATM   19  S   UNL     1      -9.351  12.231  66.614  1.00  0.00    -0.229 S  
HETATM   20  O   UNL     1      -7.981  12.262  67.068  1.00  0.00    -0.169 OA 
HETATM   21  H   UNL     1      -9.902  13.923  65.018  1.00  0.00     0.000 HD 
BRANCH  14  22
HETATM   22  C   UNL     1      -9.942  16.125  66.336  1.00  0.00    -0.315 C  
BRANCH  22  23
HETATM   23  C   UNL     1     -10.387  17.255  67.275  1.00  0.00    -0.331 C  
HETATM   24  C   UNL     1      -9.349  17.644  68.326  1.00  0.00    -0.290 C  
HETATM   25  C   UNL     1      -9.824  19.011  68.787  1.00  0.00    -0.485 C  
HETATM   26  C   UNL     1     -10.299  19.694  67.512  1.00  0.00    -0.578 C  
HETATM   27  C   UNL     1     -10.648  18.573  66.531  1.00  0.00    -0.375 C  
ENDBRANCH  22  23
ENDBRANCH  14  22
ENDBRANCH   2   7
TORSDOF 3
ENDMDL
MODEL       30
REMARK 921   NORMALIZED FREE ENERGY PREDICTED BY IDOCK:   -6.05 KCAL/MOL
REMARK 922        TOTAL FREE ENERGY PREDICTED BY IDOCK:   -7.35 KCAL/MOL
REMARK 923 INTER-LIGAND FREE ENERGY PREDICTED BY IDOCK:   -7.11 KCAL/MOL
REMARK 924 INTRA-LIGAND FREE ENERGY PREDICTED BY IDOCK:   -0.24 KCAL/MOL
REMARK 927      BINDING AFFINITY PREDICTED BY RF-SCORE:    0.00 PKD
ROOT
HETATM    1  N   UNL     1     -10.007   7.228  66.452  1.00  0.00    -0.445 N  
HETATM    2  S   UNL     1      -9.487   7.116  68.045  1.00  0.00    -0.130 S  
HETATM    3  H2  UNL     1     -10.631   6.589  65.958  1.00  0.00     0.000 HD 
HETATM    4  H1  UNL     1      -9.566   8.071  66.087  1.00  0.00     0.000 HD 
HETATM    5  O   UNL     1     -10.113   5.919  68.564  1.00  0.00    -0.144 OA 
HETATM    6  O   UNL     1      -8.060   7.286  68.048  1.00  0.00    -0.117 OA 
ENDROOT
BRANCH   2   7
HETATM    7  C   UNL     1     -10.237   8.525  68.798  1.00  0.00    -0.200 A  
HETATM    8  C   UNL     1     -11.125   8.328  69.861  1.00  0.00    -0.100 A  
HETATM    9  C   UNL     1     -11.731   9.440  70.459  1.00  0.00    -0.198 A  
HETATM   10  C   UNL     1     -11.475  10.750  70.047  1.00  0.00    -0.331 A  
HETATM   11  N   UNL     1     -11.996  11.861  70.708  1.00  0.00    -0.443 NA 
HETATM   12  C   UNL     1     -10.562  10.920  68.997  1.00  0.00    -0.248 A  
HETATM   13  H   UNL     1     -11.501  12.754  70.704  1.00  0.00     0.000 HD 
HETATM   14  C   UNL     1     -13.259  11.713  71.402  1.00  0.00    -0.110 C  
HETATM   15  C   UNL     1      -9.948   9.824  68.367  1.00  0.00    -0.156 A  
HETATM   16  N   UNL     1     -13.053  10.717  72.423  1.00  0.00    -0.395 N  
HETATM   17 CL   UNL     1      -8.862  10.190  67.072  1.00  0.00    -0.140 Cl 
HETATM   18  O   UNL     1     -12.142   8.421  72.816  1.00  0.00    -0.354 OA 
HETATM   19  S   UNL     1     -12.841   9.180  71.803  1.00  0.00    -0.408 S  
HETATM   20  O   UNL     1     -14.095   8.747  71.234  1.00  0.00    -0.317 OA 
HETATM   21  H   UNL     1     -13.040  10.928  73.421  1.00  0.00     0.000 HD 
BRANCH  14  22
HETATM   22  C   UNL     1     -13.650  13.034  72.086  1.00  0.00    -0.618 C  
BRANCH  22  23
HETATM   23  C   UNL     1     -12.537  14.093  72.082  1.00  0.00    -0.328 C  
HETATM   24  C   UNL     1     -12.808  15.285  71.166  1.00  0.00    -0.494 C  
HETATM   25  C   UNL     1     -11.839  16.336  71.678  1.00  0.00    -0.482 C  
HETATM   26  C   UNL     1     -11.874  16.176  73.192  1.00  0.00    -0.476 C  
HETATM   27  C   UNL     1     -12.337  14.743  73.459  1.00  0.00    -0.469 C  
ENDBRANCH  22  23
ENDBRANCH  14  22
ENDBRANCH   2   7
TORSDOF 3
ENDMDL
MODEL       31
REMARK 921   NORMALIZED FREE ENERGY PREDICTED BY IDOCK:   -6.04 KCAL/MOL
REMARK 922        TOTAL FREE ENERGY PREDICTED BY IDOCK:   -7.34 KCAL/MOL
REMARK 923 INTER-LIGAND FREE ENERGY PREDICTED BY IDOCK:   -7.10 KCAL/MOL
REMARK 924 INTRA-LIGAND FREE ENERGY PREDICTED BY IDOCK:   -0.24 KCAL/MOL
REMARK 927      BINDING AFFINITY PREDICTED BY RF-SCORE:    0.00 PKD
ROOT
HETATM    1  N   UNL     1     -11.604  12.633  64.238  1.00  0.00    -0.348 N  
HETATM    2  S   UNL     1     -12.088  13.238  65.727  1.00  0.00    -0.457 S  
HETATM    3  H2  UNL     1     -11.998  12.852  63.322  1.00  0.00     0.000 HD 
HETATM    4  H1  UNL     1     -10.832  12.001  64.446  1.00  0.00     0.000 HD 
HETATM    5  O   UNL     1     -13.185  14.136  65.431  1.00  0.00    -0.741 OA 
HETATM    6  O   UNL     1     -12.244  12.123  66.619  1.00  0.00    -0.566 OA 
ENDROOT
BRANCH   2   7
HETATM    7  C   UNL     1     -10.691  14.191  66.232  1.00  0.00    -0.293 A  
HETATM    8  C   UNL     1     -10.849  15.567  66.429  1.00  0.00    -0.277 A  
HETATM    9  C   UNL     1      -9.743  16.331  66.823  1.00  0.00    -0.241 A  
HETATM   10  C   UNL     1      -8.482  15.773  67.042  1.00  0.00    -0.220 A  
HETATM   11  N   UNL     1      -7.407  16.514  67.533  1.00  0.00    -0.133 NA 
HETATM   12  C   UNL     1      -8.357  14.389  66.862  1.00  0.00    -0.109 A  
HETATM   13  H   UNL     1      -6.670  16.069  68.082  1.00  0.00     0.000 HD 
HETATM   14  C   UNL     1      -7.366  17.932  67.242  1.00  0.00    -0.192 C  
HETATM   15  C   UNL     1      -9.444  13.596  66.454  1.00  0.00    -0.234 A  
HETATM   16  N   UNL     1      -8.541  18.510  67.844  1.00  0.00    -0.281 N  
HETATM   17 CL   UNL     1      -9.133  11.907  66.253  1.00  0.00    -0.210 Cl 
HETATM   18  O   UNL     1     -11.021  18.242  68.038  1.00  0.00    -0.254 OA 
HETATM   19  S   UNL     1      -9.956  18.062  67.077  1.00  0.00    -0.347 S  
HETATM   20  O   UNL     1      -9.974  18.679  65.772  1.00  0.00    -0.504 OA 
HETATM   21  H   UNL     1      -8.513  19.129  68.655  1.00  0.00     0.000 HD 
BRANCH  14  22
HETATM   22  C   UNL     1      -6.126  18.573  67.889  1.00  0.00    -0.187 C  
BRANCH  22  23
HETATM   23  C   UNL     1      -6.235  18.749  69.411  1.00  0.00    -0.289 C  
HETATM   24  C   UNL     1      -5.189  17.973  70.209  1.00  0.00    -0.243 C  
HETATM   25  C   UNL     1      -5.222  18.653  71.567  1.00  0.00    -0.242 C  
HETATM   26  C   UNL     1      -5.378  20.133  71.244  1.00  0.00    -0.347 C  
HETATM   27  C   UNL     1      -6.014  20.203  69.854  1.00  0.00    -0.386 C  
ENDBRANCH  22  23
ENDBRANCH  14  22
ENDBRANCH   2   7
TORSDOF 3
ENDMDL
MODEL       32
REMARK 921   NORMALIZED FREE ENERGY PREDICTED BY IDOCK:   -6.00 KCAL/MOL
REMARK 922        TOTAL FREE ENERGY PREDICTED BY IDOCK:   -7.29 KCAL/MOL
REMARK 923 INTER-LIGAND FREE ENERGY PREDICTED BY IDOCK:   -7.30 KCAL/MOL
REMARK 924 INTRA-LIGAND FREE ENERGY PREDICTED BY IDOCK:    0.01 KCAL/MOL
REMARK 927      BINDING AFFINITY PREDICTED BY RF-SCORE:    0.00 PKD
ROOT
HETATM    1  N   UNL     1      -6.777  20.477  69.841  1.00  0.00    -0.085 N  
HETATM    2  S   UNL     1      -6.606  20.026  68.233  1.00  0.00    -0.297 S  
HETATM    3  H2  UNL     1      -7.037  21.395  70.203  1.00  0.00     0.000 HD 
HETATM    4  H1  UNL     1      -6.566  19.636  70.377  1.00  0.00     0.000 HD 
HETATM    5  O   UNL     1      -6.906  21.221  67.472  1.00  0.00    -0.485 OA 
HETATM    6  O   UNL     1      -5.348  19.344  68.105  1.00  0.00    -0.183 OA 
ENDROOT
BRANCH   2   7
HETATM    7  C   UNL     1      -7.917  18.865  68.013  1.00  0.00    -0.286 A  
HETATM    8  C   UNL     1      -7.655  17.507  68.221  1.00  0.00    -0.240 A  
HETATM    9  C   UNL     1      -8.689  16.578  68.041  1.00  0.00    -0.189 A  
HETATM   10  C   UNL     1      -9.983  16.953  67.673  1.00  0.00    -0.271 A  
HETATM   11  N   UNL     1     -11.036  16.042  67.595  1.00  0.00    -0.313 NA 
HETATM   12  C   UNL     1     -10.223  18.322  67.496  1.00  0.00    -0.384 A  
HETATM   13  H   UNL     1     -11.999  16.338  67.757  1.00  0.00     0.000 HD 
HETATM   14  C   UNL     1     -10.724  14.663  67.278  1.00  0.00    -0.290 C  
HETATM   15  C   UNL     1      -9.205  19.278  67.655  1.00  0.00    -0.304 A  
HETATM   16  N   UNL     1      -9.872  14.180  68.335  1.00  0.00    -0.227 N  
HETATM   17 CL   UNL     1      -9.647  20.927  67.382  1.00  0.00    -0.511 Cl 
HETATM   18  O   UNL     1      -7.818  14.732  69.652  1.00  0.00    -0.106 OA 
HETATM   19  S   UNL     1      -8.350  14.870  68.316  1.00  0.00    -0.155 S  
HETATM   20  O   UNL     1      -7.653  14.388  67.147  1.00  0.00    -0.157 OA 
HETATM   21  H   UNL     1     -10.166  13.487  69.024  1.00  0.00     0.000 HD 
BRANCH  14  22
HETATM   22  C   UNL     1     -12.007  13.815  67.265  1.00  0.00    -0.436 C  
BRANCH  22  23
HETATM   23  C   UNL     1     -12.253  13.074  65.943  1.00  0.00    -0.493 C  
HETATM   24  C   UNL     1     -12.226  13.970  64.706  1.00  0.00    -0.454 C  
HETATM   25  C   UNL     1     -12.037  12.979  63.571  1.00  0.00    -0.617 C  
HETATM   26  C   UNL     1     -11.049  11.959  64.122  1.00  0.00    -0.441 C  
HETATM   27  C   UNL     1     -11.172  12.025  65.646  1.00  0.00    -0.377 C  
ENDBRANCH  22  23
ENDBRANCH  14  22
ENDBRANCH   2   7
TORSDOF 3
ENDMDL
MODEL       33
REMARK 921   NORMALIZED FREE ENERGY PREDICTED BY IDOCK:   -5.98 KCAL/MOL
REMARK 922        TOTAL FREE ENERGY PREDICTED BY IDOCK:   -7.26 KCAL/MOL
REMARK 923 INTER-LIGAND FREE ENERGY PREDICTED BY IDOCK:   -7.13 KCAL/MOL
REMARK 924 INTRA-LIGAND FREE ENERGY PREDICTED BY IDOCK:   -0.13 KCAL/MOL
REMARK 927      BINDING AFFINITY PREDICTED BY RF-SCORE:    0.00 PKD
ROOT
HETATM    1  N   UNL     1     -10.955  17.799  67.162  1.00  0.00    -0.100 N  
HETATM    2  S   UNL     1     -10.092  17.372  65.787  1.00  0.00    -0.039 S  
HETATM    3  H2  UNL     1     -11.921  18.125  67.211  1.00  0.00     0.000 HD 
HETATM    4  H1  UNL     1     -10.306  17.663  67.936  1.00  0.00     0.000 HD 
HETATM    5  O   UNL     1     -11.013  17.566  64.687  1.00  0.00    -0.892 OA 
HETATM    6  O   UNL     1      -8.826  18.049  65.841  1.00  0.00    -0.504 OA 
ENDROOT
BRANCH   2   7
HETATM    7  C   UNL     1      -9.831  15.641  66.015  1.00  0.00    -0.333 A  
HETATM    8  C   UNL     1     -10.555  14.742  65.225  1.00  0.00    -0.414 A  
HETATM    9  C   UNL     1     -10.359  13.366  65.404  1.00  0.00    -0.312 A  
HETATM   10  C   UNL     1      -9.456  12.849  66.336  1.00  0.00    -0.226 A  
HETATM   11  N   UNL     1      -9.185  11.485  66.444  1.00  0.00    -0.203 NA 
HETATM   12  C   UNL     1      -8.727  13.773  67.096  1.00  0.00    -0.231 A  
HETATM   13  H   UNL     1      -8.277  11.155  66.774  1.00  0.00     0.000 HD 
HETATM   14  C   UNL     1     -10.228  10.551  66.073  1.00  0.00    -0.245 C  
HETATM   15  C   UNL     1      -8.909  15.159  66.950  1.00  0.00    -0.256 A  
HETATM   16  N   UNL     1     -10.510  10.780  64.679  1.00  0.00    -0.329 N  
HETATM   17 CL   UNL     1      -7.954  16.174  67.972  1.00  0.00    -0.144 Cl 
HETATM   18  O   UNL     1     -11.015  12.579  63.015  1.00  0.00    -0.202 OA 
HETATM   19  S   UNL     1     -11.269  12.242  64.397  1.00  0.00    -0.358 S  
HETATM   20  O   UNL     1     -12.602  12.170  64.947  1.00  0.00    -0.500 OA 
HETATM   21  H   UNL     1     -10.272  10.119  63.939  1.00  0.00     0.000 HD 
BRANCH  14  22
HETATM   22  C   UNL     1      -9.729   9.104  66.234  1.00  0.00    -0.344 C  
BRANCH  22  23
HETATM   23  C   UNL     1     -10.504   8.289  67.280  1.00  0.00    -0.373 C  
HETATM   24  C   UNL     1     -10.496   6.781  67.032  1.00  0.00    -0.369 C  
HETATM   25  C   UNL     1     -10.904   6.212  68.380  1.00  0.00    -0.382 C  
HETATM   26  C   UNL     1     -10.182   7.089  69.394  1.00  0.00    -0.197 C  
HETATM   27  C   UNL     1      -9.908   8.420  68.689  1.00  0.00    -0.180 C  
ENDBRANCH  22  23
ENDBRANCH  14  22
ENDBRANCH   2   7
TORSDOF 3
ENDMDL
MODEL       34
REMARK 921   NORMALIZED FREE ENERGY PREDICTED BY IDOCK:   -5.97 KCAL/MOL
REMARK 922        TOTAL FREE ENERGY PREDICTED BY IDOCK:   -7.25 KCAL/MOL
REMARK 923 INTER-LIGAND FREE ENERGY PREDICTED BY IDOCK:   -6.86 KCAL/MOL
REMARK 924 INTRA-LIGAND FREE ENERGY PREDICTED BY IDOCK:   -0.39 KCAL/MOL
REMARK 927      BINDING AFFINITY PREDICTED BY RF-SCORE:    0.00 PKD
ROOT
HETATM    1  N   UNL     1     -10.939  19.570  66.974  1.00  0.00    -0.429 N  
HETATM    2  S   UNL     1      -9.453  19.278  67.698  1.00  0.00    -0.326 S  
HETATM    3  H2  UNL     1     -11.126  20.143  66.150  1.00  0.00     0.000 HD 
HETATM    4  H1  UNL     1     -11.615  19.051  67.535  1.00  0.00     0.000 HD 
HETATM    5  O   UNL     1      -8.494  20.014  66.901  1.00  0.00    -0.306 OA 
HETATM    6  O   UNL     1      -9.603  19.512  69.107  1.00  0.00    -0.394 OA 
ENDROOT
BRANCH   2   7
HETATM    7  C   UNL     1      -9.218  17.551  67.421  1.00  0.00    -0.238 A  
HETATM    8  C   UNL     1     -10.231  16.828  66.782  1.00  0.00    -0.304 A  
HETATM    9  C   UNL     1     -10.056  15.455  66.565  1.00  0.00    -0.271 A  
HETATM   10  C   UNL     1      -8.900  14.773  66.950  1.00  0.00    -0.248 A  
HETATM   11  N   UNL     1      -8.681  13.430  66.643  1.00  0.00    -0.441 NA 
HETATM   12  C   UNL     1      -7.891  15.526  67.566  1.00  0.00    -0.191 A  
HETATM   13  H   UNL     1      -7.735  13.066  66.526  1.00  0.00     0.000 HD 
HETATM   14  C   UNL     1      -9.835  12.568  66.493  1.00  0.00    -0.246 C  
HETATM   15  C   UNL     1      -8.042  16.903  67.810  1.00  0.00    -0.181 A  
HETATM   16  N   UNL     1     -10.604  13.096  65.394  1.00  0.00    -0.292 N  
HETATM   17 CL   UNL     1      -6.721  17.694  68.597  1.00  0.00    -0.208 Cl 
HETATM   18  O   UNL     1     -11.597  15.204  64.485  1.00  0.00    -0.392 OA 
HETATM   19  S   UNL     1     -11.334  14.556  65.750  1.00  0.00    -0.339 S  
HETATM   20  O   UNL     1     -12.368  14.315  66.729  1.00  0.00    -0.429 OA 
HETATM   21  H   UNL     1     -10.694  12.626  64.493  1.00  0.00     0.000 HD 
BRANCH  14  22
HETATM   22  C   UNL     1      -9.390  11.140  66.130  1.00  0.00    -0.227 C  
BRANCH  22  23
HETATM   23  C   UNL     1     -10.320  10.041  66.663  1.00  0.00    -0.281 C  
HETATM   24  C   UNL     1      -9.864   8.620  66.337  1.00  0.00    -0.341 C  
HETATM   25  C   UNL     1     -10.653   7.774  67.320  1.00  0.00    -0.376 C  
HETATM   26  C   UNL     1     -10.642   8.585  68.609  1.00  0.00    -0.154 C  
HETATM   27  C   UNL     1     -10.413  10.040  68.196  1.00  0.00    -0.250 C  
ENDBRANCH  22  23
ENDBRANCH  14  22
ENDBRANCH   2   7
TORSDOF 3
ENDMDL
MODEL       35
REMARK 921   NORMALIZED FREE ENERGY PREDICTED BY IDOCK:   -5.95 KCAL/MOL
REMARK 922        TOTAL FREE ENERGY PREDICTED BY IDOCK:   -7.23 KCAL/MOL
REMARK 923 INTER-LIGAND FREE ENERGY PREDICTED BY IDOCK:   -6.88 KCAL/MOL
REMARK 924 INTRA-LIGAND FREE ENERGY PREDICTED BY IDOCK:   -0.35 KCAL/MOL
REMARK 927      BINDING AFFINITY PREDICTED BY RF-SCORE:    0.00 PKD
ROOT
HETATM    1  N   UNL     1     -12.647   7.487  72.559  1.00  0.00    -0.508 N  
HETATM    2  S   UNL     1     -11.054   6.987  72.384  1.00  0.00    -0.271 S  
HETATM    3  H2  UNL     1     -13.107   7.805  73.412  1.00  0.00     0.000 HD 
HETATM    4  H1  UNL     1     -13.056   7.405  71.628  1.00  0.00     0.000 HD 
HETATM    5  O   UNL     1     -10.474   7.105  73.705  1.00  0.00    -0.371 OA 
HETATM    6  O   UNL     1     -11.066   5.741  71.671  1.00  0.00    -0.265 OA 
ENDROOT
BRANCH   2   7
HETATM    7  C   UNL     1     -10.366   8.239  71.346  1.00  0.00    -0.213 A  
HETATM    8  C   UNL     1     -11.193   9.277  70.904  1.00  0.00    -0.372 A  
HETATM    9  C   UNL     1     -10.657  10.270  70.074  1.00  0.00    -0.269 A  
HETATM   10  C   UNL     1      -9.319  10.276  69.675  1.00  0.00    -0.139 A  
HETATM   11  N   UNL     1      -8.759  11.317  68.935  1.00  0.00    -0.342 NA 
HETATM   12  C   UNL     1      -8.507   9.238  70.152  1.00  0.00    -0.206 A  
HETATM   13  H   UNL     1      -7.767  11.543  69.014  1.00  0.00     0.000 HD 
HETATM   14  C   UNL     1      -9.627  12.069  68.051  1.00  0.00    -0.199 C  
HETATM   15  C   UNL     1      -9.018   8.219  70.975  1.00  0.00    -0.154 A  
HETATM   16  N   UNL     1     -10.631  12.682  68.884  1.00  0.00    -0.399 N  
HETATM   17 CL   UNL     1      -7.901   6.994  71.467  1.00  0.00    -0.098 Cl 
HETATM   18  O   UNL     1     -12.280  12.202  70.702  1.00  0.00    -0.372 OA 
HETATM   19  S   UNL     1     -11.705  11.578  69.532  1.00  0.00    -0.373 S  
HETATM   20  O   UNL     1     -12.512  11.052  68.456  1.00  0.00    -0.440 OA 
HETATM   21  H   UNL     1     -10.681  13.686  69.059  1.00  0.00     0.000 HD 
BRANCH  14  22
HETATM   22  C   UNL     1      -8.834  13.185  67.349  1.00  0.00    -0.204 C  
BRANCH  22  23
HETATM   23  C   UNL     1      -9.687  14.393  66.936  1.00  0.00    -0.266 C  
HETATM   24  C   UNL     1      -8.878  15.609  66.488  1.00  0.00    -0.345 C  
HETATM   25  C   UNL     1      -9.901  16.441  65.734  1.00  0.00    -0.303 C  
HETATM   26  C   UNL     1     -10.726  15.417  64.966  1.00  0.00    -0.460 C  
HETATM   27  C   UNL     1     -10.581  14.096  65.723  1.00  0.00    -0.306 C  
ENDBRANCH  22  23
ENDBRANCH  14  22
ENDBRANCH   2   7
TORSDOF 3
ENDMDL
MODEL       36
REMARK 921   NORMALIZED FREE ENERGY PREDICTED BY IDOCK:   -5.90 KCAL/MOL
REMARK 922        TOTAL FREE ENERGY PREDICTED BY IDOCK:   -7.18 KCAL/MOL
REMARK 923 INTER-LIGAND FREE ENERGY PREDICTED BY IDOCK:   -7.12 KCAL/MOL
REMARK 924 INTRA-LIGAND FREE ENERGY PREDICTED BY IDOCK:   -0.06 KCAL/MOL
REMARK 927      BINDING AFFINITY PREDICTED BY RF-SCORE:    0.00 PKD
ROOT
HETATM    1  N   UNL     1      -9.119   7.461  65.384  1.00  0.00    -0.364 N  
HETATM    2  S   UNL     1      -9.698   7.908  66.895  1.00  0.00    -0.241 S  
HETATM    3  H2  UNL     1      -9.578   6.864  64.696  1.00  0.00     0.000 HD 
HETATM    4  H1  UNL     1      -8.209   7.916  65.303  1.00  0.00     0.000 HD 
HETATM    5  O   UNL     1     -10.989   7.263  67.010  1.00  0.00    -0.358 OA 
HETATM    6  O   UNL     1      -8.649   7.676  67.848  1.00  0.00    -0.122 OA 
ENDROOT
BRANCH   2   7
HETATM    7  C   UNL     1      -9.943   9.647  66.718  1.00  0.00    -0.227 A  
HETATM    8  C   UNL     1     -10.267  10.157  65.456  1.00  0.00    -0.288 A  
HETATM    9  C   UNL     1     -10.456  11.537  65.306  1.00  0.00    -0.283 A  
HETATM   10  C   UNL     1     -10.346  12.432  66.372  1.00  0.00    -0.234 A  
HETATM   11  N   UNL     1     -10.634  13.791  66.245  1.00  0.00    -0.286 NA 
HETATM   12  C   UNL     1     -10.045  11.892  67.629  1.00  0.00    -0.202 A  
HETATM   13  H   UNL     1     -10.971  14.333  67.042  1.00  0.00     0.000 HD 
HETATM   14  C   UNL     1     -10.443  14.412  64.951  1.00  0.00    -0.423 C  
HETATM   15  C   UNL     1      -9.836  10.514  67.811  1.00  0.00    -0.165 A  
HETATM   16  N   UNL     1     -11.333  13.740  64.037  1.00  0.00    -0.600 N  
HETATM   17 CL   UNL     1      -9.451   9.998  69.415  1.00  0.00    -0.222 Cl 
HETATM   18  O   UNL     1     -12.059  11.476  63.260  1.00  0.00    -0.319 OA 
HETATM   19  S   UNL     1     -10.873  12.167  63.714  1.00  0.00    -0.476 S  
HETATM   20  O   UNL     1      -9.653  12.204  62.944  1.00  0.00    -0.247 OA 
HETATM   21  H   UNL     1     -12.159  14.180  63.629  1.00  0.00     0.000 HD 
BRANCH  14  22
HETATM   22  C   UNL     1     -10.839  15.897  65.008  1.00  0.00    -0.444 C  
BRANCH  22  23
HETATM   23  C   UNL     1     -10.180  16.676  66.155  1.00  0.00    -0.360 C  
HETATM   24  C   UNL     1      -8.655  16.591  66.177  1.00  0.00    -0.334 C  
HETATM   25  C   UNL     1      -8.261  17.757  67.067  1.00  0.00    -0.239 C  
HETATM   26  C   UNL     1      -9.222  18.871  66.675  1.00  0.00    -0.343 C  
HETATM   27  C   UNL     1     -10.450  18.185  66.075  1.00  0.00    -0.346 C  
ENDBRANCH  22  23
ENDBRANCH  14  22
ENDBRANCH   2   7
TORSDOF 3
ENDMDL
MODEL       37
REMARK 921   NORMALIZED FREE ENERGY PREDICTED BY IDOCK:   -5.88 KCAL/MOL
REMARK 922        TOTAL FREE ENERGY PREDICTED BY IDOCK:   -7.15 KCAL/MOL
REMARK 923 INTER-LIGAND FREE ENERGY PREDICTED BY IDOCK:   -6.79 KCAL/MOL
REMARK 924 INTRA-LIGAND FREE ENERGY PREDICTED BY IDOCK:   -0.36 KCAL/MOL
REMARK 927      BINDING AFFINITY PREDICTED BY RF-SCORE:    0.00 PKD
ROOT
HETATM    1  N   UNL     1     -12.825   7.220  70.740  1.00  0.00    -0.602 N  
HETATM    2  S   UNL     1     -11.211   6.766  70.665  1.00  0.00    -0.335 S  
HETATM    3  H2  UNL     1     -13.407   7.305  71.574  1.00  0.00     0.000 HD 
HETATM    4  H1  UNL     1     -13.098   7.393  69.772  1.00  0.00     0.000 HD 
HETATM    5  O   UNL     1     -10.823   6.521  72.038  1.00  0.00    -0.221 OA 
HETATM    6  O   UNL     1     -11.091   5.754  69.652  1.00  0.00    -0.372 OA 
ENDROOT
BRANCH   2   7
HETATM    7  C   UNL     1     -10.419   8.241  70.103  1.00  0.00    -0.225 A  
HETATM    8  C   UNL     1     -11.199   9.380  69.877  1.00  0.00    -0.180 A  
HETATM    9  C   UNL     1     -10.579  10.552  69.424  1.00  0.00    -0.240 A  
HETATM   10  C   UNL     1      -9.203  10.637  69.199  1.00  0.00    -0.148 A  
HETATM   11  N   UNL     1      -8.572  11.830  68.848  1.00  0.00    -0.370 NA 
HETATM   12  C   UNL     1      -8.443   9.489  69.457  1.00  0.00    -0.156 A  
HETATM   13  H   UNL     1      -7.598  12.003  69.100  1.00  0.00     0.000 HD 
HETATM   14  C   UNL     1      -9.337  12.819  68.116  1.00  0.00    -0.214 C  
HETATM   15  C   UNL     1      -9.036   8.294  69.899  1.00  0.00    -0.147 A  
HETATM   16  N   UNL     1     -10.438  13.199  68.966  1.00  0.00    -0.432 N  
HETATM   17 CL   UNL     1      -7.973   6.955  70.155  1.00  0.00    -0.113 Cl 
HETATM   18  O   UNL     1     -12.283  12.269  70.376  1.00  0.00    -0.342 OA 
HETATM   19  S   UNL     1     -11.569  11.984  69.152  1.00  0.00    -0.332 S  
HETATM   20  O   UNL     1     -12.240  11.796  67.887  1.00  0.00    -0.538 OA 
HETATM   21  H   UNL     1     -10.519  14.115  69.407  1.00  0.00     0.000 HD 
BRANCH  14  22
HETATM   22  C   UNL     1      -8.479  14.067  67.849  1.00  0.00    -0.170 C  
BRANCH  22  23
HETATM   23  C   UNL     1      -8.911  14.870  66.613  1.00  0.00    -0.301 C  
HETATM   24  C   UNL     1     -10.070  14.249  65.835  1.00  0.00    -0.344 C  
HETATM   25  C   UNL     1     -10.575  15.407  64.993  1.00  0.00    -0.445 C  
HETATM   26  C   UNL     1     -10.490  16.613  65.920  1.00  0.00    -0.324 C  
HETATM   27  C   UNL     1      -9.434  16.268  66.972  1.00  0.00    -0.237 C  
ENDBRANCH  22  23
ENDBRANCH  14  22
ENDBRANCH   2   7
TORSDOF 3
ENDMDL
MODEL       38
REMARK 921   NORMALIZED FREE ENERGY PREDICTED BY IDOCK:   -5.86 KCAL/MOL
REMARK 922        TOTAL FREE ENERGY PREDICTED BY IDOCK:   -7.12 KCAL/MOL
REMARK 923 INTER-LIGAND FREE ENERGY PREDICTED BY IDOCK:   -7.01 KCAL/MOL
REMARK 924 INTRA-LIGAND FREE ENERGY PREDICTED BY IDOCK:   -0.11 KCAL/MOL
REMARK 927      BINDING AFFINITY PREDICTED BY RF-SCORE:    0.00 PKD
ROOT
HETATM    1  N   UNL     1     -11.277   8.834  69.119  1.00  0.00    -0.413 N  
HETATM    2  S   UNL     1     -10.069   8.655  67.967  1.00  0.00    -0.205 S  
HETATM    3  H2  UNL     1     -11.233   8.583  70.107  1.00  0.00     0.000 HD 
HETATM    4  H1  UNL     1     -12.063   9.248  68.617  1.00  0.00     0.000 HD 
HETATM    5  O   UNL     1      -8.953   8.068  68.678  1.00  0.00    -0.134 OA 
HETATM    6  O   UNL     1     -10.653   8.019  66.820  1.00  0.00    -0.320 OA 
ENDROOT
BRANCH   2   7
HETATM    7  C   UNL     1      -9.670  10.326  67.559  1.00  0.00    -0.169 A  
HETATM    8  C   UNL     1     -10.680  11.292  67.616  1.00  0.00    -0.270 A  
HETATM    9  C   UNL     1     -10.373  12.619  67.287  1.00  0.00    -0.224 A  
HETATM   10  C   UNL     1      -9.090  13.025  66.914  1.00  0.00    -0.227 A  
HETATM   11  N   UNL     1      -8.761  14.361  66.687  1.00  0.00    -0.439 NA 
HETATM   12  C   UNL     1      -8.092  12.042  66.889  1.00  0.00    -0.127 A  
HETATM   13  H   UNL     1      -7.811  14.702  66.844  1.00  0.00     0.000 HD 
HETATM   14  C   UNL     1      -9.804  15.252  66.222  1.00  0.00    -0.294 C  
HETATM   15  C   UNL     1      -8.370  10.699  67.201  1.00  0.00    -0.125 A  
HETATM   16  N   UNL     1     -10.816  15.272  67.249  1.00  0.00    -0.313 N  
HETATM   17 CL   UNL     1      -7.043   9.596  67.106  1.00  0.00    -0.085 Cl 
HETATM   18  O   UNL     1     -12.212  13.791  68.704  1.00  0.00    -0.347 OA 
HETATM   19  S   UNL     1     -11.650  13.830  67.372  1.00  0.00    -0.384 S  
HETATM   20  O   UNL     1     -12.456  13.674  66.184  1.00  0.00    -0.433 OA 
HETATM   21  H   UNL     1     -11.003  16.083  67.839  1.00  0.00     0.000 HD 
BRANCH  14  22
HETATM   22  C   UNL     1      -9.253  16.679  66.058  1.00  0.00    -0.263 C  
BRANCH  22  23
HETATM   23  C   UNL     1      -9.945  17.722  66.947  1.00  0.00    -0.332 C  
HETATM   24  C   UNL     1      -9.061  18.284  68.060  1.00  0.00    -0.300 C  
HETATM   25  C   UNL     1      -9.789  19.554  68.466  1.00  0.00    -0.518 C  
HETATM   26  C   UNL     1     -10.281  20.142  67.151  1.00  0.00    -0.554 C  
HETATM   27  C   UNL     1     -10.369  18.975  66.166  1.00  0.00    -0.537 C  
ENDBRANCH  22  23
ENDBRANCH  14  22
ENDBRANCH   2   7
TORSDOF 3
ENDMDL
MODEL       39
REMARK 921   NORMALIZED FREE ENERGY PREDICTED BY IDOCK:   -5.85 KCAL/MOL
REMARK 922        TOTAL FREE ENERGY PREDICTED BY IDOCK:   -7.11 KCAL/MOL
REMARK 923 INTER-LIGAND FREE ENERGY PREDICTED BY IDOCK:   -7.02 KCAL/MOL
REMARK 924 INTRA-LIGAND FREE ENERGY PREDICTED BY IDOCK:   -0.10 KCAL/MOL
REMARK 927      BINDING AFFINITY PREDICTED BY RF-SCORE:    0.00 PKD
ROOT
HETATM    1  N   UNL     1     -12.282   7.020  70.218  1.00  0.00    -0.622 N  
HETATM    2  S   UNL     1     -10.877   7.787  70.726  1.00  0.00    -0.243 S  
HETATM    3  H2  UNL     1     -12.988   6.571  70.801  1.00  0.00     0.000 HD 
HETATM    4  H1  UNL     1     -12.276   7.101  69.201  1.00  0.00     0.000 HD 
HETATM    5  O   UNL     1     -10.885   7.673  72.169  1.00  0.00    -0.224 OA 
HETATM    6  O   UNL     1      -9.794   7.279  69.932  1.00  0.00    -0.176 OA 
ENDROOT
BRANCH   2   7
HETATM    7  C   UNL     1     -11.174   9.471  70.286  1.00  0.00    -0.261 A  
HETATM    8  C   UNL     1     -10.455  10.026  69.222  1.00  0.00    -0.245 A  
HETATM    9  C   UNL     1     -10.679  11.364  68.871  1.00  0.00    -0.210 A  
HETATM   10  C   UNL     1     -11.605  12.171  69.535  1.00  0.00    -0.315 A  
HETATM   11  N   UNL     1     -11.903  13.469  69.121  1.00  0.00    -0.322 NA 
HETATM   12  C   UNL     1     -12.329  11.583  70.580  1.00  0.00    -0.457 A  
HETATM   13  H   UNL     1     -12.822  13.878  69.297  1.00  0.00     0.000 HD 
HETATM   14  C   UNL     1     -10.873  14.221  68.435  1.00  0.00    -0.253 C  
HETATM   15  C   UNL     1     -12.118  10.247  70.966  1.00  0.00    -0.386 A  
HETATM   16  N   UNL     1     -10.565  13.492  67.230  1.00  0.00    -0.261 N  
HETATM   17 CL   UNL     1     -13.070   9.668  72.287  1.00  0.00    -0.495 Cl 
HETATM   18  O   UNL     1     -10.001  11.213  66.365  1.00  0.00    -0.204 OA 
HETATM   19  S   UNL     1      -9.775  12.049  67.523  1.00  0.00    -0.190 S  
HETATM   20  O   UNL     1      -8.452  12.353  68.015  1.00  0.00    -0.158 OA 
HETATM   21  H   UNL     1     -10.804  13.823  66.295  1.00  0.00     0.000 HD 
BRANCH  14  22
HETATM   22  C   UNL     1     -11.400  15.610  68.038  1.00  0.00    -0.324 C  
BRANCH  22  23
HETATM   23  C   UNL     1     -10.299  16.656  67.814  1.00  0.00    -0.306 C  
HETATM   24  C   UNL     1     -10.401  17.401  66.484  1.00  0.00    -0.312 C  
HETATM   25  C   UNL     1      -9.530  18.624  66.709  1.00  0.00    -0.324 C  
HETATM   26  C   UNL     1      -9.828  19.040  68.143  1.00  0.00    -0.430 C  
HETATM   27  C   UNL     1     -10.338  17.785  68.855  1.00  0.00    -0.300 C  
ENDBRANCH  22  23
ENDBRANCH  14  22
ENDBRANCH   2   7
TORSDOF 3
ENDMDL
MODEL       40
REMARK 921   NORMALIZED FREE ENERGY PREDICTED BY IDOCK:   -5.85 KCAL/MOL
REMARK 922        TOTAL FREE ENERGY PREDICTED BY IDOCK:   -7.11 KCAL/MOL
REMARK 923 INTER-LIGAND FREE ENERGY PREDICTED BY IDOCK:   -6.72 KCAL/MOL
REMARK 924 INTRA-LIGAND FREE ENERGY PREDICTED BY IDOCK:   -0.39 KCAL/MOL
REMARK 927      BINDING AFFINITY PREDICTED BY RF-SCORE:    0.00 PKD
ROOT
HETATM    1  N   UNL     1     -10.221   6.218  70.935  1.00  0.00    -0.189 N  
HETATM    2  S   UNL     1     -11.284   7.194  71.793  1.00  0.00    -0.254 S  
HETATM    3  H2  UNL     1     -10.413   5.304  70.525  1.00  0.00     0.000 HD 
HETATM    4  H1  UNL     1      -9.343   6.737  70.911  1.00  0.00     0.000 HD 
HETATM    5  O   UNL     1     -12.530   6.458  71.826  1.00  0.00    -0.316 OA 
HETATM    6  O   UNL     1     -10.617   7.608  72.996  1.00  0.00    -0.314 OA 
ENDROOT
BRANCH   2   7
HETATM    7  C   UNL     1     -11.474   8.591  70.730  1.00  0.00    -0.253 A  
HETATM    8  C   UNL     1     -10.716   8.651  69.556  1.00  0.00    -0.189 A  
HETATM    9  C   UNL     1     -10.855   9.760  68.710  1.00  0.00    -0.188 A  
HETATM   10  C   UNL     1     -11.735  10.809  68.984  1.00  0.00    -0.286 A  
HETATM   11  N   UNL     1     -11.950  11.861  68.093  1.00  0.00    -0.528 NA 
HETATM   12  C   UNL     1     -12.500  10.711  70.153  1.00  0.00    -0.342 A  
HETATM   13  H   UNL     1     -12.843  12.355  68.071  1.00  0.00     0.000 HD 
HETATM   14  C   UNL     1     -10.871  12.232  67.201  1.00  0.00    -0.244 C  
HETATM   15  C   UNL     1     -12.373   9.619  71.030  1.00  0.00    -0.310 A  
HETATM   16  N   UNL     1     -10.601  11.079  66.379  1.00  0.00    -0.262 N  
HETATM   17 CL   UNL     1     -13.367   9.647  72.444  1.00  0.00    -0.484 Cl 
HETATM   18  O   UNL     1     -10.172   8.616  66.477  1.00  0.00    -0.283 OA 
HETATM   19  S   UNL     1      -9.903   9.821  67.229  1.00  0.00    -0.191 S  
HETATM   20  O   UNL     1      -8.567  10.219  67.605  1.00  0.00    -0.118 OA 
HETATM   21  H   UNL     1     -10.814  11.035  65.383  1.00  0.00     0.000 HD 
BRANCH  14  22
HETATM   22  C   UNL     1     -11.311  13.387  66.284  1.00  0.00    -0.329 C  
BRANCH  22  23
HETATM   23  C   UNL     1     -10.475  14.664  66.444  1.00  0.00    -0.296 C  
HETATM   24  C   UNL     1     -10.656  15.679  65.317  1.00  0.00    -0.448 C  
HETATM   25  C   UNL     1     -10.117  16.963  65.923  1.00  0.00    -0.302 C  
HETATM   26  C   UNL     1     -10.604  16.933  67.365  1.00  0.00    -0.294 C  
HETATM   27  C   UNL     1     -10.851  15.461  67.702  1.00  0.00    -0.304 C  
ENDBRANCH  22  23
ENDBRANCH  14  22
ENDBRANCH   2   7
TORSDOF 3
ENDMDL
MODEL       41
REMARK 921   NORMALIZED FREE ENERGY PREDICTED BY IDOCK:   -5.79 KCAL/MOL
REMARK 922        TOTAL FREE ENERGY PREDICTED BY IDOCK:   -7.04 KCAL/MOL
REMARK 923 INTER-LIGAND FREE ENERGY PREDICTED BY IDOCK:   -6.64 KCAL/MOL
REMARK 924 INTRA-LIGAND FREE ENERGY PREDICTED BY IDOCK:   -0.40 KCAL/MOL
REMARK 927      BINDING AFFINITY PREDICTED BY RF-SCORE:    0.00 PKD
ROOT
HETATM    1  N   UNL     1      -9.836   9.805  63.299  1.00  0.00    -0.391 N  
HETATM    2  S   UNL     1      -8.657   9.739  64.493  1.00  0.00    -0.201 S  
HETATM    3  H2  UNL     1     -10.620   9.166  63.166  1.00  0.00     0.000 HD 
HETATM    4  H1  UNL     1      -9.599  10.623  62.737  1.00  0.00     0.000 HD 
HETATM    5  O   UNL     1      -8.993   8.579  65.291  1.00  0.00    -0.154 OA 
HETATM    6  O   UNL     1      -7.380   9.870  63.849  1.00  0.00    -0.124 OA 
ENDROOT
BRANCH   2   7
HETATM    7  C   UNL     1      -8.979  11.195  65.438  1.00  0.00    -0.141 A  
HETATM    8  C   UNL     1     -10.135  11.933  65.164  1.00  0.00    -0.293 A  
HETATM    9  C   UNL     1     -10.394  13.094  65.905  1.00  0.00    -0.290 A  
HETATM   10  C   UNL     1      -9.548  13.544  66.920  1.00  0.00    -0.258 A  
HETATM   11  N   UNL     1      -9.857  14.640  67.726  1.00  0.00    -0.214 NA 
HETATM   12  C   UNL     1      -8.410  12.773  67.190  1.00  0.00    -0.164 A  
HETATM   13  H   UNL     1      -9.505  14.704  68.682  1.00  0.00     0.000 HD 
HETATM   14  C   UNL     1     -10.691  15.684  67.168  1.00  0.00    -0.314 C  
HETATM   15  C   UNL     1      -8.115  11.610  66.456  1.00  0.00    -0.075 A  
HETATM   16  N   UNL     1     -11.956  15.072  66.845  1.00  0.00    -0.201 N  
HETATM   17 CL   UNL     1      -6.664  10.774  66.888  1.00  0.00    -0.092 Cl 
HETATM   18  O   UNL     1     -12.985  13.112  65.681  1.00  0.00    -0.435 OA 
HETATM   19  S   UNL     1     -11.859  14.011  65.559  1.00  0.00    -0.384 S  
HETATM   20  O   UNL     1     -11.603  14.777  64.362  1.00  0.00    -0.364 OA 
HETATM   21  H   UNL     1     -12.821  15.267  67.350  1.00  0.00     0.000 HD 
BRANCH  14  22
HETATM   22  C   UNL     1     -10.939  16.785  68.214  1.00  0.00    -0.327 C  
BRANCH  22  23
HETATM   23  C   UNL     1     -10.895  18.210  67.643  1.00  0.00    -0.260 C  
HETATM   24  C   UNL     1     -10.059  19.189  68.465  1.00  0.00    -0.499 C  
HETATM   25  C   UNL     1      -9.812  20.328  67.491  1.00  0.00    -0.576 C  
HETATM   26  C   UNL     1      -9.565  19.636  66.158  1.00  0.00    -0.464 C  
HETATM   27  C   UNL     1     -10.245  18.269  66.253  1.00  0.00    -0.414 C  
ENDBRANCH  22  23
ENDBRANCH  14  22
ENDBRANCH   2   7
TORSDOF 3
ENDMDL
MODEL       42
REMARK 921   NORMALIZED FREE ENERGY PREDICTED BY IDOCK:   -5.77 KCAL/MOL
REMARK 922        TOTAL FREE ENERGY PREDICTED BY IDOCK:   -7.01 KCAL/MOL
REMARK 923 INTER-LIGAND FREE ENERGY PREDICTED BY IDOCK:   -7.15 KCAL/MOL
REMARK 924 INTRA-LIGAND FREE ENERGY PREDICTED BY IDOCK:    0.14 KCAL/MOL
REMARK 927      BINDING AFFINITY PREDICTED BY RF-SCORE:    0.00 PKD
ROOT
HETATM    1  N   UNL     1     -12.244  15.206  68.572  1.00  0.00    -0.581 N  
HETATM    2  S   UNL     1     -12.284  15.154  70.249  1.00  0.00    -0.364 S  
HETATM    3  H2  UNL     1     -11.479  15.531  67.980  1.00  0.00     0.000 HD 
HETATM    4  H1  UNL     1     -13.149  14.841  68.273  1.00  0.00     0.000 HD 
HETATM    5  O   UNL     1     -11.000  15.672  70.673  1.00  0.00    -0.321 OA 
HETATM    6  O   UNL     1     -13.518  15.754  70.673  1.00  0.00    -0.453 OA 
ENDROOT
BRANCH   2   7
HETATM    7  C   UNL     1     -12.339  13.422  70.584  1.00  0.00    -0.348 A  
HETATM    8  C   UNL     1     -11.552  12.561  69.811  1.00  0.00    -0.291 A  
HETATM    9  C   UNL     1     -11.596  11.184  70.065  1.00  0.00    -0.338 A  
HETATM   10  C   UNL     1     -12.389  10.630  71.072  1.00  0.00    -0.403 A  
HETATM   11  N   UNL     1     -12.355   9.273  71.394  1.00  0.00    -0.326 NA 
HETATM   12  C   UNL     1     -13.148  11.516  71.847  1.00  0.00    -0.492 A  
HETATM   13  H   UNL     1     -12.566   8.952  72.340  1.00  0.00     0.000 HD 
HETATM   14  C   UNL     1     -12.012   8.332  70.348  1.00  0.00     0.188 C  
HETATM   15  C   UNL     1     -13.136  12.902  71.609  1.00  0.00    -0.335 A  
HETATM   16  N   UNL     1     -10.676   8.661  69.920  1.00  0.00    -0.229 N  
HETATM   17 CL   UNL     1     -14.141  13.868  72.632  1.00  0.00    -0.451 Cl 
HETATM   18  O   UNL     1      -9.225  10.566  69.196  1.00  0.00    -0.181 OA 
HETATM   19  S   UNL     1     -10.593  10.111  69.093  1.00  0.00    -0.239 S  
HETATM   20  O   UNL     1     -11.263   9.944  67.825  1.00  0.00    -0.225 OA 
HETATM   21  H   UNL     1      -9.864   8.070  70.102  1.00  0.00     0.000 HD 
BRANCH  14  22
HETATM   22  C   UNL     1     -12.002   6.897  70.903  1.00  0.00    -0.430 C  
BRANCH  22  23
HETATM   23  C   UNL     1     -10.607   6.259  70.961  1.00  0.00    -0.289 C  
HETATM   24  C   UNL     1     -10.363   5.393  72.195  1.00  0.00    -0.265 C  
HETATM   25  C   UNL     1      -9.160   4.557  71.794  1.00  0.00    -0.164 C  
HETATM   26  C   UNL     1      -9.412   4.212  70.332  1.00  0.00    -0.247 C  
HETATM   27  C   UNL     1     -10.353   5.292  69.794  1.00  0.00    -0.369 C  
ENDBRANCH  22  23
ENDBRANCH  14  22
ENDBRANCH   2   7
TORSDOF 3
ENDMDL
MODEL       43
REMARK 921   NORMALIZED FREE ENERGY PREDICTED BY IDOCK:   -5.76 KCAL/MOL
REMARK 922        TOTAL FREE ENERGY PREDICTED BY IDOCK:   -7.01 KCAL/MOL
REMARK 923 INTER-LIGAND FREE ENERGY PREDICTED BY IDOCK:   -6.70 KCAL/MOL
REMARK 924 INTRA-LIGAND FREE ENERGY PREDICTED BY IDOCK:   -0.31 KCAL/MOL
REMARK 927      BINDING AFFINITY PREDICTED BY RF-SCORE:    0.00 PKD
ROOT
HETATM    1  N   UNL     1      -6.178  19.168  67.425  1.00  0.00    -0.186 N  
HETATM    2  S   UNL     1      -7.516  19.496  66.467  1.00  0.00    -0.274 S  
HETATM    3  H2  UNL     1      -5.849  19.697  68.233  1.00  0.00     0.000 HD 
HETATM    4  H1  UNL     1      -5.765  18.326  67.025  1.00  0.00     0.000 HD 
HETATM    5  O   UNL     1      -8.103  20.692  67.035  1.00  0.00    -0.301 OA 
HETATM    6  O   UNL     1      -7.094  19.440  65.096  1.00  0.00    -0.418 OA 
ENDROOT
BRANCH   2   7
HETATM    7  C   UNL     1      -8.578  18.126  66.801  1.00  0.00    -0.259 A  
HETATM    8  C   UNL     1      -8.035  16.983  67.397  1.00  0.00    -0.197 A  
HETATM    9  C   UNL     1      -8.870  15.888  67.658  1.00  0.00    -0.174 A  
HETATM   10  C   UNL     1     -10.234  15.893  67.358  1.00  0.00    -0.270 A  
HETATM   11  N   UNL     1     -11.084  14.845  67.712  1.00  0.00    -0.297 NA 
HETATM   12  C   UNL     1     -10.756  17.059  66.785  1.00  0.00    -0.102 A  
HETATM   13  H   UNL     1     -12.075  15.012  67.893  1.00  0.00     0.000 HD 
HETATM   14  C   UNL     1     -10.522  13.514  67.815  1.00  0.00    -0.240 C  
HETATM   15  C   UNL     1      -9.943  18.170  66.498  1.00  0.00    -0.374 A  
HETATM   16  N   UNL     1      -9.523  13.568  68.852  1.00  0.00    -0.402 N  
HETATM   17 CL   UNL     1     -10.725  19.529  65.770  1.00  0.00    -0.566 Cl 
HETATM   18  O   UNL     1      -7.542  14.871  69.649  1.00  0.00    -0.174 OA 
HETATM   19  S   UNL     1      -8.177  14.457  68.418  1.00  0.00    -0.150 S  
HETATM   20  O   UNL     1      -7.474  13.732  67.386  1.00  0.00    -0.174 OA 
HETATM   21  H   UNL     1      -9.627  13.111  69.759  1.00  0.00     0.000 HD 
BRANCH  14  22
HETATM   22  C   UNL     1     -11.607  12.509  68.239  1.00  0.00    -0.376 C  
BRANCH  22  23
HETATM   23  C   UNL     1     -11.189  11.590  69.396  1.00  0.00    -0.324 C  
HETATM   24  C   UNL     1     -12.270  11.384  70.456  1.00  0.00    -0.478 C  
HETATM   25  C   UNL     1     -11.796  10.142  71.190  1.00  0.00    -0.472 C  
HETATM   26  C   UNL     1     -11.251   9.240  70.091  1.00  0.00    -0.237 C  
HETATM   27  C   UNL     1     -10.874  10.161  68.929  1.00  0.00    -0.256 C  
ENDBRANCH  22  23
ENDBRANCH  14  22
ENDBRANCH   2   7
TORSDOF 3
ENDMDL
MODEL       44
REMARK 921   NORMALIZED FREE ENERGY PREDICTED BY IDOCK:   -5.72 KCAL/MOL
REMARK 922        TOTAL FREE ENERGY PREDICTED BY IDOCK:   -6.96 KCAL/MOL
REMARK 923 INTER-LIGAND FREE ENERGY PREDICTED BY IDOCK:   -7.19 KCAL/MOL
REMARK 924 INTRA-LIGAND FREE ENERGY PREDICTED BY IDOCK:    0.23 KCAL/MOL
REMARK 927      BINDING AFFINITY PREDICTED BY RF-SCORE:    0.00 PKD
ROOT
HETATM    1  N   UNL     1     -11.275  12.399  63.045  1.00  0.00    -0.674 N  
HETATM    2  S   UNL     1     -11.524  12.241  64.698  1.00  0.00    -0.342 S  
HETATM    3  H2  UNL     1     -11.978  12.573  62.326  1.00  0.00     0.000 HD 
HETATM    4  H1  UNL     1     -10.270  12.283  62.915  1.00  0.00     0.000 HD 
HETATM    5  O   UNL     1     -12.950  12.406  64.882  1.00  0.00    -0.762 OA 
HETATM    6  O   UNL     1     -10.837  11.056  65.129  1.00  0.00    -0.221 OA 
ENDROOT
BRANCH   2   7
HETATM    7  C   UNL     1     -10.697  13.658  65.352  1.00  0.00    -0.308 A  
HETATM    8  C   UNL     1      -9.610  13.466  66.210  1.00  0.00    -0.245 A  
HETATM    9  C   UNL     1      -8.953  14.585  66.739  1.00  0.00    -0.246 A  
HETATM   10  C   UNL     1      -9.332  15.894  66.435  1.00  0.00    -0.297 A  
HETATM   11  N   UNL     1      -8.616  17.006  66.878  1.00  0.00    -0.213 NA 
HETATM   12  C   UNL     1     -10.409  16.057  65.553  1.00  0.00    -0.415 A  
HETATM   13  H   UNL     1      -8.610  17.874  66.341  1.00  0.00     0.000 HD 
HETATM   14  C   UNL     1      -7.881  16.894  68.121  1.00  0.00    -0.189 C  
HETATM   15  C   UNL     1     -11.097  14.955  65.016  1.00  0.00    -0.414 A  
HETATM   16  N   UNL     1      -6.901  15.855  67.928  1.00  0.00    -0.131 N  
HETATM   17 CL   UNL     1     -12.418  15.313  63.959  1.00  0.00    -0.112 Cl 
HETATM   18  O   UNL     1      -6.618  13.506  67.116  1.00  0.00    -0.190 OA 
HETATM   19  S   UNL     1      -7.578  14.332  67.812  1.00  0.00    -0.182 S  
HETATM   20  O   UNL     1      -8.114  13.978  69.105  1.00  0.00     0.017 OA 
HETATM   21  H   UNL     1      -5.898  16.031  67.869  1.00  0.00     0.000 HD 
BRANCH  14  22
HETATM   22  C   UNL     1      -7.140  18.208  68.423  1.00  0.00    -0.256 C  
BRANCH  22  23
HETATM   23  C   UNL     1      -8.053  19.441  68.480  1.00  0.00    -0.396 C  
HETATM   24  C   UNL     1      -8.294  20.108  67.127  1.00  0.00    -0.391 C  
HETATM   25  C   UNL     1      -9.526  20.959  67.380  1.00  0.00    -0.371 C  
HETATM   26  C   UNL     1     -10.408  20.091  68.268  1.00  0.00    -0.494 C  
HETATM   27  C   UNL     1      -9.471  19.103  68.966  1.00  0.00    -0.361 C  
ENDBRANCH  22  23
ENDBRANCH  14  22
ENDBRANCH   2   7
TORSDOF 3
ENDMDL
MODEL       45
REMARK 921   NORMALIZED FREE ENERGY PREDICTED BY IDOCK:   -5.69 KCAL/MOL
REMARK 922        TOTAL FREE ENERGY PREDICTED BY IDOCK:   -6.93 KCAL/MOL
REMARK 923 INTER-LIGAND FREE ENERGY PREDICTED BY IDOCK:   -6.53 KCAL/MOL
REMARK 924 INTRA-LIGAND FREE ENERGY PREDICTED BY IDOCK:   -0.40 KCAL/MOL
REMARK 927      BINDING AFFINITY PREDICTED BY RF-SCORE:    0.00 PKD
ROOT
HETATM    1  N   UNL     1     -10.511  18.727  66.920  1.00  0.00    -0.397 N  
HETATM    2  S   UNL     1      -8.889  18.339  67.112  1.00  0.00    -0.265 S  
HETATM    3  H2  UNL     1     -10.971  19.065  66.075  1.00  0.00     0.000 HD 
HETATM    4  H1  UNL     1     -10.935  18.553  67.831  1.00  0.00     0.000 HD 
HETATM    5  O   UNL     1      -8.285  18.586  65.820  1.00  0.00    -0.481 OA 
HETATM    6  O   UNL     1      -8.423  18.994  68.303  1.00  0.00    -0.306 OA 
ENDROOT
BRANCH   2   7
HETATM    7  C   UNL     1      -8.938  16.597  67.395  1.00  0.00    -0.196 A  
HETATM    8  C   UNL     1     -10.182  15.962  67.472  1.00  0.00    -0.269 A  
HETATM    9  C   UNL     1     -10.230  14.581  67.704  1.00  0.00    -0.225 A  
HETATM   10  C   UNL     1      -9.080  13.802  67.848  1.00  0.00    -0.193 A  
HETATM   11  N   UNL     1      -9.124  12.413  67.975  1.00  0.00    -0.190 NA 
HETATM   12  C   UNL     1      -7.847  14.459  67.741  1.00  0.00    -0.169 A  
HETATM   13  H   UNL     1      -8.349  11.832  67.654  1.00  0.00     0.000 HD 
HETATM   14  C   UNL     1     -10.301  11.819  68.575  1.00  0.00    -0.217 C  
HETATM   15  C   UNL     1      -7.765  15.845  67.523  1.00  0.00    -0.159 A  
HETATM   16  N   UNL     1     -11.414  12.166  67.727  1.00  0.00    -0.309 N  
HETATM   17 CL   UNL     1      -6.175  16.518  67.436  1.00  0.00    -0.175 Cl 
HETATM   18  O   UNL     1     -12.518  14.090  66.570  1.00  0.00    -0.442 OA 
HETATM   19  S   UNL     1     -11.802  13.790  67.790  1.00  0.00    -0.360 S  
HETATM   20  O   UNL     1     -12.344  14.073  69.098  1.00  0.00    -0.313 OA 
HETATM   21  H   UNL     1     -11.915  11.490  67.150  1.00  0.00     0.000 HD 
BRANCH  14  22
HETATM   22  C   UNL     1     -10.171  10.287  68.600  1.00  0.00    -0.196 C  
BRANCH  22  23
HETATM   23  C   UNL     1     -10.250   9.676  70.006  1.00  0.00    -0.296 C  
HETATM   24  C   UNL     1     -11.479  10.101  70.807  1.00  0.00    -0.442 C  
HETATM   25  C   UNL     1     -11.551   9.053  71.905  1.00  0.00    -0.441 C  
HETATM   26  C   UNL     1     -11.179   7.751  71.208  1.00  0.00    -0.280 C  
HETATM   27  C   UNL     1     -10.357   8.144  69.979  1.00  0.00    -0.215 C  
ENDBRANCH  22  23
ENDBRANCH  14  22
ENDBRANCH   2   7
TORSDOF 3
ENDMDL
MODEL       46
REMARK 921   NORMALIZED FREE ENERGY PREDICTED BY IDOCK:   -5.69 KCAL/MOL
REMARK 922        TOTAL FREE ENERGY PREDICTED BY IDOCK:   -6.93 KCAL/MOL
REMARK 923 INTER-LIGAND FREE ENERGY PREDICTED BY IDOCK:   -7.08 KCAL/MOL
REMARK 924 INTRA-LIGAND FREE ENERGY PREDICTED BY IDOCK:    0.15 KCAL/MOL
REMARK 927      BINDING AFFINITY PREDICTED BY RF-SCORE:    0.00 PKD
ROOT
HETATM    1  N   UNL     1      -7.281  19.825  69.443  1.00  0.00    -0.296 N  
HETATM    2  S   UNL     1      -6.479  18.476  68.848  1.00  0.00    -0.249 S  
HETATM    3  H2  UNL     1      -7.137  20.800  69.178  1.00  0.00     0.000 HD 
HETATM    4  H1  UNL     1      -7.944  19.460  70.127  1.00  0.00     0.000 HD 
HETATM    5  O   UNL     1      -5.538  18.994  67.877  1.00  0.00    -0.184 OA 
HETATM    6  O   UNL     1      -6.050  17.694  69.973  1.00  0.00    -0.232 OA 
ENDROOT
BRANCH   2   7
HETATM    7  C   UNL     1      -7.759  17.608  67.995  1.00  0.00    -0.232 A  
HETATM    8  C   UNL     1      -8.717  16.916  68.744  1.00  0.00    -0.248 A  
HETATM    9  C   UNL     1      -9.731  16.219  68.075  1.00  0.00    -0.230 A  
HETATM   10  C   UNL     1      -9.836  16.194  66.683  1.00  0.00    -0.249 A  
HETATM   11  N   UNL     1     -10.903  15.588  66.020  1.00  0.00    -0.319 NA 
HETATM   12  C   UNL     1      -8.878  16.916  65.959  1.00  0.00    -0.194 A  
HETATM   13  H   UNL     1     -11.210  15.920  65.105  1.00  0.00     0.000 HD 
HETATM   14  C   UNL     1     -11.563  14.472  66.667  1.00  0.00    -0.375 C  
HETATM   15  C   UNL     1      -7.840  17.615  66.599  1.00  0.00    -0.248 A  
HETATM   16  N   UNL     1     -12.111  14.977  67.901  1.00  0.00    -0.500 N  
HETATM   17 CL   UNL     1      -6.720  18.441  65.573  1.00  0.00    -0.300 Cl 
HETATM   18  O   UNL     1     -11.539  16.304  69.942  1.00  0.00    -0.277 OA 
HETATM   19  S   UNL     1     -10.938  15.359  69.028  1.00  0.00    -0.271 S  
HETATM   20  O   UNL     1     -10.325  14.130  69.473  1.00  0.00    -0.009 OA 
HETATM   21  H   UNL     1     -13.111  15.089  68.069  1.00  0.00     0.000 HD 
BRANCH  14  22
HETATM   22  C   UNL     1     -12.723  13.961  65.795  1.00  0.00    -0.503 C  
BRANCH  22  23
HETATM   23  C   UNL     1     -12.394  12.689  65.000  1.00  0.00    -0.561 C  
HETATM   24  C   UNL     1     -11.759  12.949  63.635  1.00  0.00    -0.572 C  
HETATM   25  C   UNL     1     -11.142  11.606  63.285  1.00  0.00    -0.333 C  
HETATM   26  C   UNL     1     -10.571  11.099  64.602  1.00  0.00    -0.386 C  
HETATM   27  C   UNL     1     -11.360  11.802  65.709  1.00  0.00    -0.309 C  
ENDBRANCH  22  23
ENDBRANCH  14  22
ENDBRANCH   2   7
TORSDOF 3
ENDMDL
MODEL       47
REMARK 921   NORMALIZED FREE ENERGY PREDICTED BY IDOCK:   -5.64 KCAL/MOL
REMARK 922        TOTAL FREE ENERGY PREDICTED BY IDOCK:   -6.87 KCAL/MOL
REMARK 923 INTER-LIGAND FREE ENERGY PREDICTED BY IDOCK:   -6.76 KCAL/MOL
REMARK 924 INTRA-LIGAND FREE ENERGY PREDICTED BY IDOCK:   -0.11 KCAL/MOL
REMARK 927      BINDING AFFINITY PREDICTED BY RF-SCORE:    0.00 PKD
ROOT
HETATM    1  N   UNL     1     -11.613   6.772  68.850  1.00  0.00    -0.530 N  
HETATM    2  S   UNL     1     -10.404   7.588  68.018  1.00  0.00    -0.197 S  
HETATM    3  H2  UNL     1     -11.504   6.159  69.658  1.00  0.00     0.000 HD 
HETATM    4  H1  UNL     1     -12.479   7.023  68.373  1.00  0.00     0.000 HD 
HETATM    5  O   UNL     1      -9.175   7.232  68.695  1.00  0.00    -0.137 OA 
HETATM    6  O   UNL     1     -10.595   7.336  66.617  1.00  0.00    -0.249 OA 
ENDROOT
BRANCH   2   7
HETATM    7  C   UNL     1     -10.773   9.280  68.357  1.00  0.00    -0.145 A  
HETATM    8  C   UNL     1     -10.873  10.175  67.286  1.00  0.00    -0.295 A  
HETATM    9  C   UNL     1     -11.158  11.522  67.547  1.00  0.00    -0.272 A  
HETATM   10  C   UNL     1     -11.362  12.012  68.839  1.00  0.00    -0.278 A  
HETATM   11  N   UNL     1     -11.747  13.328  69.091  1.00  0.00    -0.310 NA 
HETATM   12  C   UNL     1     -11.280  11.089  69.890  1.00  0.00    -0.327 A  
HETATM   13  H   UNL     1     -12.294  13.565  69.920  1.00  0.00     0.000 HD 
HETATM   14  C   UNL     1     -11.350  14.349  68.144  1.00  0.00    -0.294 C  
HETATM   15  C   UNL     1     -10.982   9.734  69.663  1.00  0.00    -0.241 A  
HETATM   16  N   UNL     1     -11.959  14.003  66.885  1.00  0.00    -0.430 N  
HETATM   17 CL   UNL     1     -10.894   8.721  71.061  1.00  0.00    -0.298 Cl 
HETATM   18  O   UNL     1     -12.283  12.113  65.278  1.00  0.00    -0.484 OA 
HETATM   19  S   UNL     1     -11.292  12.638  66.190  1.00  0.00    -0.349 S  
HETATM   20  O   UNL     1      -9.946  12.957  65.774  1.00  0.00    -0.274 OA 
HETATM   21  H   UNL     1     -12.719  14.536  66.461  1.00  0.00     0.000 HD 
BRANCH  14  22
HETATM   22  C   UNL     1     -11.890  15.722  68.582  1.00  0.00    -0.287 C  
BRANCH  22  23
HETATM   23  C   UNL     1     -10.864  16.859  68.479  1.00  0.00    -0.335 C  
HETATM   24  C   UNL     1      -9.529  16.564  69.161  1.00  0.00    -0.212 C  
HETATM   25  C   UNL     1      -8.596  17.591  68.543  1.00  0.00    -0.276 C  
HETATM   26  C   UNL     1      -9.011  17.644  67.079  1.00  0.00    -0.258 C  
HETATM   27  C   UNL     1     -10.462  17.161  67.028  1.00  0.00    -0.282 C  
ENDBRANCH  22  23
ENDBRANCH  14  22
ENDBRANCH   2   7
TORSDOF 3
ENDMDL
MODEL       48
REMARK 921   NORMALIZED FREE ENERGY PREDICTED BY IDOCK:   -5.64 KCAL/MOL
REMARK 922        TOTAL FREE ENERGY PREDICTED BY IDOCK:   -6.87 KCAL/MOL
REMARK 923 INTER-LIGAND FREE ENERGY PREDICTED BY IDOCK:   -7.11 KCAL/MOL
REMARK 924 INTRA-LIGAND FREE ENERGY PREDICTED BY IDOCK:    0.25 KCAL/MOL
REMARK 927      BINDING AFFINITY PREDICTED BY RF-SCORE:    0.00 PKD
ROOT
HETATM    1  N   UNL     1      -9.048   6.669  71.835  1.00  0.00    -0.144 N  
HETATM    2  S   UNL     1      -9.614   8.001  72.687  1.00  0.00    -0.284 S  
HETATM    3  H2  UNL     1      -9.376   5.705  71.904  1.00  0.00     0.000 HD 
HETATM    4  H1  UNL     1      -8.307   7.032  71.236  1.00  0.00     0.000 HD 
HETATM    5  O   UNL     1     -10.665   7.486  73.538  1.00  0.00    -0.378 OA 
HETATM    6  O   UNL     1      -8.474   8.689  73.225  1.00  0.00    -0.395 OA 
ENDROOT
BRANCH   2   7
HETATM    7  C   UNL     1     -10.340   8.992  71.419  1.00  0.00    -0.326 A  
HETATM    8  C   UNL     1      -9.533   9.435  70.366  1.00  0.00    -0.319 A  
HETATM    9  C   UNL     1     -10.100  10.229  69.360  1.00  0.00    -0.235 A  
HETATM   10  C   UNL     1     -11.450  10.589  69.356  1.00  0.00    -0.262 A  
HETATM   11  N   UNL     1     -12.037  11.290  68.303  1.00  0.00    -0.660 NA 
HETATM   12  C   UNL     1     -12.240  10.111  70.409  1.00  0.00    -0.300 A  
HETATM   13  H   UNL     1     -13.028  11.178  68.086  1.00  0.00     0.000 HD 
HETATM   14  C   UNL     1     -11.201  12.182  67.527  1.00  0.00    -0.297 C  
HETATM   15  C   UNL     1     -11.699   9.324  71.441  1.00  0.00    -0.361 A  
HETATM   16  N   UNL     1     -10.177  11.367  66.924  1.00  0.00    -0.213 N  
HETATM   17 CL   UNL     1     -12.792   8.826  72.684  1.00  0.00    -0.385 Cl 
HETATM   18  O   UNL     1      -8.473   9.607  67.430  1.00  0.00    -0.124 OA 
HETATM   19  S   UNL     1      -9.077  10.773  68.033  1.00  0.00    -0.155 S  
HETATM   20  O   UNL     1      -8.298  11.883  68.530  1.00  0.00    -0.156 OA 
HETATM   21  H   UNL     1     -10.129  11.172  65.923  1.00  0.00     0.000 HD 
BRANCH  14  22
HETATM   22  C   UNL     1     -12.022  12.838  66.402  1.00  0.00    -0.443 C  
BRANCH  22  23
HETATM   23  C   UNL     1     -11.252  13.900  65.605  1.00  0.00    -0.306 C  
HETATM   24  C   UNL     1     -12.117  14.713  64.643  1.00  0.00    -0.466 C  
HETATM   25  C   UNL     1     -11.253  15.928  64.350  1.00  0.00    -0.242 C  
HETATM   26  C   UNL     1     -10.611  16.266  65.689  1.00  0.00    -0.360 C  
HETATM   27  C   UNL     1     -10.621  14.972  66.506  1.00  0.00    -0.305 C  
ENDBRANCH  22  23
ENDBRANCH  14  22
ENDBRANCH   2   7
TORSDOF 3
ENDMDL
MODEL       49
REMARK 921   NORMALIZED FREE ENERGY PREDICTED BY IDOCK:   -5.58 KCAL/MOL
REMARK 922        TOTAL FREE ENERGY PREDICTED BY IDOCK:   -6.79 KCAL/MOL
REMARK 923 INTER-LIGAND FREE ENERGY PREDICTED BY IDOCK:   -6.54 KCAL/MOL
REMARK 924 INTRA-LIGAND FREE ENERGY PREDICTED BY IDOCK:   -0.25 KCAL/MOL
REMARK 927      BINDING AFFINITY PREDICTED BY RF-SCORE:    0.00 PKD
ROOT
HETATM    1  N   UNL     1     -11.838  12.308  64.446  1.00  0.00    -0.379 N  
HETATM    2  S   UNL     1     -12.208  13.053  65.905  1.00  0.00    -0.377 S  
HETATM    3  H2  UNL     1     -12.325  12.413  63.556  1.00  0.00     0.000 HD 
HETATM    4  H1  UNL     1     -11.021  11.730  64.643  1.00  0.00     0.000 HD 
HETATM    5  O   UNL     1     -13.367  13.874  65.626  1.00  0.00    -0.620 OA 
HETATM    6  O   UNL     1     -12.227  12.036  66.919  1.00  0.00    -0.529 OA 
ENDROOT
BRANCH   2   7
HETATM    7  C   UNL     1     -10.814  14.104  66.169  1.00  0.00    -0.296 A  
HETATM    8  C   UNL     1     -11.024  15.481  66.300  1.00  0.00    -0.242 A  
HETATM    9  C   UNL     1      -9.922  16.323  66.502  1.00  0.00    -0.277 A  
HETATM   10  C   UNL     1      -8.614  15.842  66.592  1.00  0.00    -0.285 A  
HETATM   11  N   UNL     1      -7.530  16.665  66.896  1.00  0.00    -0.203 NA 
HETATM   12  C   UNL     1      -8.435  14.457  66.482  1.00  0.00     0.180 A  
HETATM   13  H   UNL     1      -6.707  16.295  67.372  1.00  0.00     0.000 HD 
HETATM   14  C   UNL     1      -7.606  18.061  66.517  1.00  0.00    -0.245 C  
HETATM   15  C   UNL     1      -9.518  13.587  66.265  1.00  0.00    -0.184 A  
HETATM   16  N   UNL     1      -8.728  18.621  67.227  1.00  0.00    -0.267 N  
HETATM   17 CL   UNL     1      -9.139  11.905  66.129  1.00  0.00    -0.197 Cl 
HETATM   18  O   UNL     1     -11.145  18.247  67.751  1.00  0.00    -0.214 OA 
HETATM   19  S   UNL     1     -10.200  18.054  66.675  1.00  0.00    -0.376 S  
HETATM   20  O   UNL     1     -10.415  18.580  65.348  1.00  0.00    -0.538 OA 
HETATM   21  H   UNL     1      -8.634  19.294  67.988  1.00  0.00     0.000 HD 
BRANCH  14  22
HETATM   22  C   UNL     1      -6.333  18.804  66.960  1.00  0.00    -0.189 C  
BRANCH  22  23
HETATM   23  C   UNL     1      -5.599  19.521  65.818  1.00  0.00    -0.175 C  
HETATM   24  C   UNL     1      -5.559  18.738  64.507  1.00  0.00    -0.261 C  
HETATM   25  C   UNL     1      -5.213  19.804  63.482  1.00  0.00    -0.265 C  
HETATM   26  C   UNL     1      -6.009  21.024  63.925  1.00  0.00    -0.344 C  
HETATM   27  C   UNL     1      -6.275  20.842  65.421  1.00  0.00    -0.259 C  
ENDBRANCH  22  23
ENDBRANCH  14  22
ENDBRANCH   2   7
TORSDOF 3
ENDMDL
MODEL       50
REMARK 921   NORMALIZED FREE ENERGY PREDICTED BY IDOCK:   -5.55 KCAL/MOL
REMARK 922        TOTAL FREE ENERGY PREDICTED BY IDOCK:   -6.76 KCAL/MOL
REMARK 923 INTER-LIGAND FREE ENERGY PREDICTED BY IDOCK:   -6.69 KCAL/MOL
REMARK 924 INTRA-LIGAND FREE ENERGY PREDICTED BY IDOCK:   -0.08 KCAL/MOL
REMARK 927      BINDING AFFINITY PREDICTED BY RF-SCORE:    0.00 PKD
ROOT
HETATM    1  N   UNL     1      -8.601   7.982  74.437  1.00  0.00    -0.424 N  
HETATM    2  S   UNL     1      -9.620   7.189  73.364  1.00  0.00    -0.234 S  
HETATM    3  H2  UNL     1      -7.650   7.720  74.698  1.00  0.00     0.000 HD 
HETATM    4  H1  UNL     1      -9.138   8.782  74.771  1.00  0.00     0.000 HD 
HETATM    5  O   UNL     1      -8.858   6.053  72.890  1.00  0.00    -0.124 OA 
HETATM    6  O   UNL     1     -10.892   7.029  74.011  1.00  0.00    -0.189 OA 
ENDROOT
BRANCH   2   7
HETATM    7  C   UNL     1      -9.783   8.355  72.049  1.00  0.00    -0.283 A  
HETATM    8  C   UNL     1     -10.981   9.067  71.925  1.00  0.00    -0.423 A  
HETATM    9  C   UNL     1     -11.122   9.989  70.880  1.00  0.00    -0.314 A  
HETATM   10  C   UNL     1     -10.105  10.240  69.956  1.00  0.00    -0.115 A  
HETATM   11  N   UNL     1     -10.205  11.231  68.979  1.00  0.00    -0.337 NA 
HETATM   12  C   UNL     1      -8.907   9.532  70.118  1.00  0.00    -0.266 A  
HETATM   13  H   UNL     1      -9.372  11.697  68.617  1.00  0.00     0.000 HD 
HETATM   14  C   UNL     1     -11.524  11.579  68.492  1.00  0.00    -0.292 C  
HETATM   15  C   UNL     1      -8.739   8.590  71.148  1.00  0.00    -0.174 A  
HETATM   16  N   UNL     1     -12.263  12.077  69.625  1.00  0.00    -0.194 N  
HETATM   17 CL   UNL     1      -7.214   7.779  71.209  1.00  0.00    -0.060 Cl 
HETATM   18  O   UNL     1     -12.867  11.559  71.997  1.00  0.00    -0.350 OA 
HETATM   19  S   UNL     1     -12.631  10.887  70.739  1.00  0.00    -0.372 S  
HETATM   20  O   UNL     1     -13.597   9.995  70.142  1.00  0.00     0.226 OA 
HETATM   21  H   UNL     1     -12.534  13.054  69.735  1.00  0.00     0.000 HD 
BRANCH  14  22
HETATM   22  C   UNL     1     -11.427  12.702  67.446  1.00  0.00    -0.397 C  
BRANCH  22  23
HETATM   23  C   UNL     1     -11.700  12.242  66.007  1.00  0.00    -0.451 C  
HETATM   24  C   UNL     1     -12.547  13.213  65.186  1.00  0.00    -0.525 C  
HETATM   25  C   UNL     1     -12.286  12.772  63.757  1.00  0.00    -0.572 C  
HETATM   26  C   UNL     1     -10.802  12.431  63.734  1.00  0.00    -0.500 C  
HETATM   27  C   UNL     1     -10.415  12.105  65.178  1.00  0.00    -0.317 C  
ENDBRANCH  22  23
ENDBRANCH  14  22
ENDBRANCH   2   7
TORSDOF 3
ENDMDL
MODEL       51
REMARK 921   NORMALIZED FREE ENERGY PREDICTED BY IDOCK:   -5.55 KCAL/MOL
REMARK 922        TOTAL FREE ENERGY PREDICTED BY IDOCK:   -6.76 KCAL/MOL
REMARK 923 INTER-LIGAND FREE ENERGY PREDICTED BY IDOCK:   -6.64 KCAL/MOL
REMARK 924 INTRA-LIGAND FREE ENERGY PREDICTED BY IDOCK:   -0.12 KCAL/MOL
REMARK 927      BINDING AFFINITY PREDICTED BY RF-SCORE:    0.00 PKD
ROOT
HETATM    1  N   UNL     1     -12.371  14.561  67.543  1.00  0.00    -0.582 N  
HETATM    2  S   UNL     1     -11.522  14.167  68.937  1.00  0.00    -0.316 S  
HETATM    3  H2  UNL     1     -12.047  15.130  66.760  1.00  0.00     0.000 HD 
HETATM    4  H1  UNL     1     -13.279  14.110  67.649  1.00  0.00     0.000 HD 
HETATM    5  O   UNL     1     -10.232  14.808  68.787  1.00  0.00    -0.227 OA 
HETATM    6  O   UNL     1     -12.377  14.440  70.058  1.00  0.00    -0.326 OA 
ENDROOT
BRANCH   2   7
HETATM    7  C   UNL     1     -11.312  12.421  68.783  1.00  0.00    -0.293 A  
HETATM    8  C   UNL     1     -11.742  11.597  69.828  1.00  0.00    -0.425 A  
HETATM    9  C   UNL     1     -11.572  10.210  69.717  1.00  0.00    -0.182 A  
HETATM   10  C   UNL     1     -11.000   9.609  68.594  1.00  0.00    -0.111 A  
HETATM   11  N   UNL     1     -10.925   8.225  68.438  1.00  0.00    -0.425 NA 
HETATM   12  C   UNL     1     -10.601  10.456  67.552  1.00  0.00    -0.312 A  
HETATM   13  H   UNL     1     -10.925   7.801  67.510  1.00  0.00     0.000 HD 
HETATM   14  C   UNL     1     -10.848   7.407  69.631  1.00  0.00    -0.210 C  
HETATM   15  C   UNL     1     -10.745  11.852  67.638  1.00  0.00    -0.215 A  
HETATM   16  N   UNL     1     -12.059   7.648  70.375  1.00  0.00    -0.489 N  
HETATM   17 CL   UNL     1     -10.187  12.769  66.282  1.00  0.00    -0.255 Cl 
HETATM   18  O   UNL     1     -13.524   9.468  71.267  1.00  0.00    -0.370 OA 
HETATM   19  S   UNL     1     -12.127   9.181  71.036  1.00  0.00    -0.226 S  
HETATM   20  O   UNL     1     -11.133   9.264  72.080  1.00  0.00    -0.331 OA 
HETATM   21  H   UNL     1     -12.799   6.954  70.486  1.00  0.00     0.000 HD 
BRANCH  14  22
HETATM   22  C   UNL     1     -10.800   5.917  69.253  1.00  0.00    -0.414 C  
BRANCH  22  23
HETATM   23  C   UNL     1     -10.049   5.039  70.264  1.00  0.00    -0.339 C  
HETATM   24  C   UNL     1      -9.457   3.762  69.670  1.00  0.00    -0.258 C  
HETATM   25  C   UNL     1      -8.433   3.344  70.710  1.00  0.00    -0.103 C  
HETATM   26  C   UNL     1      -7.801   4.653  71.165  1.00  0.00    -0.082 C  
HETATM   27  C   UNL     1      -8.827   5.749  70.867  1.00  0.00    -0.145 C  
ENDBRANCH  22  23
ENDBRANCH  14  22
ENDBRANCH   2   7
TORSDOF 3
ENDMDL
MODEL       52
REMARK 921   NORMALIZED FREE ENERGY PREDICTED BY IDOCK:   -5.51 KCAL/MOL
REMARK 922        TOTAL FREE ENERGY PREDICTED BY IDOCK:   -6.72 KCAL/MOL
REMARK 923 INTER-LIGAND FREE ENERGY PREDICTED BY IDOCK:   -6.36 KCAL/MOL
REMARK 924 INTRA-LIGAND FREE ENERGY PREDICTED BY IDOCK:   -0.36 KCAL/MOL
REMARK 927      BINDING AFFINITY PREDICTED BY RF-SCORE:    0.00 PKD
ROOT
HETATM    1  N   UNL     1      -5.975  19.514  67.738  1.00  0.00    -0.199 N  
HETATM    2  S   UNL     1      -7.257  19.909  66.729  1.00  0.00    -0.242 S  
HETATM    3  H2  UNL     1      -5.660  20.020  68.566  1.00  0.00     0.000 HD 
HETATM    4  H1  UNL     1      -5.580  18.660  67.344  1.00  0.00     0.000 HD 
HETATM    5  O   UNL     1      -7.818  21.121  67.288  1.00  0.00    -0.299 OA 
HETATM    6  O   UNL     1      -6.779  19.850  65.376  1.00  0.00    -0.267 OA 
ENDROOT
BRANCH   2   7
HETATM    7  C   UNL     1      -8.388  18.580  66.999  1.00  0.00    -0.255 A  
HETATM    8  C   UNL     1      -7.917  17.408  67.602  1.00  0.00    -0.199 A  
HETATM    9  C   UNL     1      -8.806  16.346  67.813  1.00  0.00    -0.189 A  
HETATM   10  C   UNL     1     -10.155  16.411  67.457  1.00  0.00    -0.261 A  
HETATM   11  N   UNL     1     -11.062  15.396  67.761  1.00  0.00    -0.312 NA 
HETATM   12  C   UNL     1     -10.605  17.605  66.879  1.00  0.00    -0.235 A  
HETATM   13  H   UNL     1     -12.052  15.602  67.903  1.00  0.00     0.000 HD 
HETATM   14  C   UNL     1     -10.560  14.041  67.869  1.00  0.00    -0.244 C  
HETATM   15  C   UNL     1      -9.735  18.684  66.641  1.00  0.00    -0.341 A  
HETATM   16  N   UNL     1      -9.604  14.041  68.948  1.00  0.00    -0.399 N  
HETATM   17 CL   UNL     1     -10.430  20.084  65.901  1.00  0.00    -0.566 Cl 
HETATM   18  O   UNL     1      -7.606  15.251  69.843  1.00  0.00    -0.169 OA 
HETATM   19  S   UNL     1      -8.205  14.878  68.581  1.00  0.00    -0.164 S  
HETATM   20  O   UNL     1      -7.490  14.137  67.570  1.00  0.00    -0.163 OA 
HETATM   21  H   UNL     1      -9.765  13.578  69.842  1.00  0.00     0.000 HD 
BRANCH  14  22
HETATM   22  C   UNL     1     -11.702  13.077  68.234  1.00  0.00    -0.390 C  
BRANCH  22  23
HETATM   23  C   UNL     1     -11.580  11.690  67.586  1.00  0.00    -0.349 C  
HETATM   24  C   UNL     1     -10.592  11.626  66.422  1.00  0.00    -0.299 C  
HETATM   25  C   UNL     1     -10.329  10.137  66.279  1.00  0.00    -0.245 C  
HETATM   26  C   UNL     1     -10.261   9.628  67.713  1.00  0.00    -0.253 C  
HETATM   27  C   UNL     1     -11.049  10.629  68.560  1.00  0.00    -0.318 C  
ENDBRANCH  22  23
ENDBRANCH  14  22
ENDBRANCH   2   7
TORSDOF 3
ENDMDL
MODEL       53
REMARK 921   NORMALIZED FREE ENERGY PREDICTED BY IDOCK:   -5.50 KCAL/MOL
REMARK 922        TOTAL FREE ENERGY PREDICTED BY IDOCK:   -6.70 KCAL/MOL
REMARK 923 INTER-LIGAND FREE ENERGY PREDICTED BY IDOCK:   -7.10 KCAL/MOL
REMARK 924 INTRA-LIGAND FREE ENERGY PREDICTED BY IDOCK:    0.41 KCAL/MOL
REMARK 927      BINDING AFFINITY PREDICTED BY RF-SCORE:    0.00 PKD
ROOT
HETATM    1  N   UNL     1      -8.299  19.181  68.506  1.00  0.00    -0.354 N  
HETATM    2  S   UNL     1      -9.959  18.980  68.647  1.00  0.00    -0.408 S  
HETATM    3  H2  UNL     1      -7.584  18.938  69.192  1.00  0.00     0.000 HD 
HETATM    4  H1  UNL     1      -8.159  19.598  67.585  1.00  0.00     0.000 HD 
HETATM    5  O   UNL     1     -10.158  18.388  69.953  1.00  0.00     0.371 OA 
HETATM    6  O   UNL     1     -10.580  20.221  68.276  1.00  0.00    -0.256 OA 
ENDROOT
BRANCH   2   7
HETATM    7  C   UNL     1     -10.310  17.768  67.412  1.00  0.00    -0.369 A  
HETATM    8  C   UNL     1     -10.407  16.425  67.794  1.00  0.00    -0.287 A  
HETATM    9  C   UNL     1     -10.678  15.456  66.819  1.00  0.00    -0.310 A  
HETATM   10  C   UNL     1     -10.869  15.776  65.473  1.00  0.00    -0.332 A  
HETATM   11  N   UNL     1     -11.240  14.827  64.521  1.00  0.00    -0.617 NA 
HETATM   12  C   UNL     1     -10.790  17.130  65.122  1.00  0.00    -0.008 A  
HETATM   13  H   UNL     1     -11.779  15.094  63.697  1.00  0.00     0.000 HD 
HETATM   14  C   UNL     1     -10.838  13.452  64.735  1.00  0.00    -0.375 C  
HETATM   15  C   UNL     1     -10.507  18.125  66.074  1.00  0.00    -0.335 A  
HETATM   16  N   UNL     1     -11.458  13.028  65.965  1.00  0.00    -0.321 N  
HETATM   17 CL   UNL     1     -10.420  19.749  65.488  1.00  0.00    -0.457 Cl 
HETATM   18  O   UNL     1     -11.811  13.688  68.352  1.00  0.00    -0.339 OA 
HETATM   19  S   UNL     1     -10.808  13.770  67.314  1.00  0.00    -0.288 S  
HETATM   20  O   UNL     1      -9.462  13.279  67.492  1.00  0.00    -0.206 OA 
HETATM   21  H   UNL     1     -12.215  12.345  66.008  1.00  0.00     0.000 HD 
BRANCH  14  22
HETATM   22  C   UNL     1     -11.362  12.560  63.596  1.00  0.00    -0.555 C  
BRANCH  22  23
HETATM   23  C   UNL     1     -10.618  11.224  63.456  1.00  0.00    -0.436 C  
HETATM   24  C   UNL     1      -9.280  11.324  62.727  1.00  0.00    -0.354 C  
HETATM   25  C   UNL     1      -8.580  10.034  63.117  1.00  0.00    -0.197 C  
HETATM   26  C   UNL     1      -8.938   9.841  64.585  1.00  0.00    -0.270 C  
HETATM   27  C   UNL     1     -10.237  10.616  64.814  1.00  0.00    -0.401 C  
ENDBRANCH  22  23
ENDBRANCH  14  22
ENDBRANCH   2   7
TORSDOF 3
ENDMDL
MODEL       54
REMARK 921   NORMALIZED FREE ENERGY PREDICTED BY IDOCK:   -5.46 KCAL/MOL
REMARK 922        TOTAL FREE ENERGY PREDICTED BY IDOCK:   -6.66 KCAL/MOL
REMARK 923 INTER-LIGAND FREE ENERGY PREDICTED BY IDOCK:   -6.67 KCAL/MOL
REMARK 924 INTRA-LIGAND FREE ENERGY PREDICTED BY IDOCK:    0.01 KCAL/MOL
REMARK 927      BINDING AFFINITY PREDICTED BY RF-SCORE:    0.00 PKD
ROOT
HETATM    1  N   UNL     1      -8.321  20.046  65.845  1.00  0.00    -0.504 N  
HETATM    2  S   UNL     1      -9.736  19.453  66.527  1.00  0.00    -0.401 S  
HETATM    3  H2  UNL     1      -7.620  20.639  66.290  1.00  0.00     0.000 HD 
HETATM    4  H1  UNL     1      -8.314  19.685  64.891  1.00  0.00     0.000 HD 
HETATM    5  O   UNL     1      -9.747  19.964  67.881  1.00  0.00    -0.355 OA 
HETATM    6  O   UNL     1     -10.807  19.722  65.608  1.00  0.00    -0.462 OA 
ENDROOT
BRANCH   2   7
HETATM    7  C   UNL     1      -9.443  17.712  66.576  1.00  0.00    -0.283 A  
HETATM    8  C   UNL     1     -10.444  16.848  66.120  1.00  0.00    -0.276 A  
HETATM    9  C   UNL     1     -10.222  15.465  66.163  1.00  0.00    -0.308 A  
HETATM   10  C   UNL     1      -9.031  14.908  66.634  1.00  0.00    -0.270 A  
HETATM   11  N   UNL     1      -8.770  13.539  66.581  1.00  0.00    -0.446 NA 
HETATM   12  C   UNL     1      -8.037  15.797  67.062  1.00  0.00    -0.272 A  
HETATM   13  H   UNL     1      -7.814  13.190  66.506  1.00  0.00     0.000 HD 
HETATM   14  C   UNL     1      -9.893  12.626  66.636  1.00  0.00    -0.244 C  
HETATM   15  C   UNL     1      -8.233  17.189  67.044  1.00  0.00    -0.207 A  
HETATM   16  N   UNL     1     -10.710  12.909  65.482  1.00  0.00    -0.275 N  
HETATM   17 CL   UNL     1      -6.924  18.159  67.622  1.00  0.00    -0.200 Cl 
HETATM   18  O   UNL     1     -11.805  14.771  64.220  1.00  0.00    -0.397 OA 
HETATM   19  S   UNL     1     -11.486  14.386  65.577  1.00  0.00    -0.348 S  
HETATM   20  O   UNL     1     -12.484  14.304  66.617  1.00  0.00    -0.407 OA 
HETATM   21  H   UNL     1     -10.805  12.273  64.690  1.00  0.00     0.000 HD 
BRANCH  14  22
HETATM   22  C   UNL     1      -9.404  11.171  66.538  1.00  0.00    -0.199 C  
BRANCH  22  23
HETATM   23  C   UNL     1      -8.639  10.856  65.245  1.00  0.00    -0.103 C  
HETATM   24  C   UNL     1      -7.342  10.076  65.457  1.00  0.00    -0.137 C  
HETATM   25  C   UNL     1      -7.046   9.521  64.074  1.00  0.00    -0.109 C  
HETATM   26  C   UNL     1      -8.411   9.116  63.532  1.00  0.00    -0.188 C  
HETATM   27  C   UNL     1      -9.439   9.958  64.290  1.00  0.00    -0.280 C  
ENDBRANCH  22  23
ENDBRANCH  14  22
ENDBRANCH   2   7
TORSDOF 3
ENDMDL
MODEL       55
REMARK 921   NORMALIZED FREE ENERGY PREDICTED BY IDOCK:   -5.44 KCAL/MOL
REMARK 922        TOTAL FREE ENERGY PREDICTED BY IDOCK:   -6.64 KCAL/MOL
REMARK 923 INTER-LIGAND FREE ENERGY PREDICTED BY IDOCK:   -6.51 KCAL/MOL
REMARK 924 INTRA-LIGAND FREE ENERGY PREDICTED BY IDOCK:   -0.13 KCAL/MOL
REMARK 927      BINDING AFFINITY PREDICTED BY RF-SCORE:    0.00 PKD
ROOT
HETATM    1  N   UNL     1      -9.891   4.179  71.657  1.00  0.00    -0.179 N  
HETATM    2  S   UNL     1      -8.744   5.398  71.524  1.00  0.00    -0.136 S  
HETATM    3  H2  UNL     1     -10.036   3.549  72.446  1.00  0.00     0.000 HD 
HETATM    4  H1  UNL     1     -10.410   4.206  70.780  1.00  0.00     0.000 HD 
HETATM    5  O   UNL     1      -8.007   5.361  72.770  1.00  0.00    -0.101 OA 
HETATM    6  O   UNL     1      -8.091   5.244  70.254  1.00  0.00    -0.088 OA 
ENDROOT
BRANCH   2   7
HETATM    7  C   UNL     1      -9.733   6.860  71.491  1.00  0.00    -0.162 A  
HETATM    8  C   UNL     1      -9.736   7.644  70.332  1.00  0.00    -0.179 A  
HETATM    9  C   UNL     1     -10.512   8.810  70.300  1.00  0.00    -0.208 A  
HETATM   10  C   UNL     1     -11.300   9.220  71.378  1.00  0.00    -0.364 A  
HETATM   11  N   UNL     1     -12.152  10.322  71.310  1.00  0.00    -0.377 NA 
HETATM   12  C   UNL     1     -11.298   8.403  72.516  1.00  0.00    -0.416 A  
HETATM   13  H   UNL     1     -12.999  10.366  71.878  1.00  0.00     0.000 HD 
HETATM   14  C   UNL     1     -11.802  11.402  70.410  1.00  0.00    -0.335 C  
HETATM   15  C   UNL     1     -10.519   7.234  72.585  1.00  0.00    -0.246 A  
HETATM   16  N   UNL     1     -11.786  10.842  69.082  1.00  0.00    -0.399 N  
HETATM   17 CL   UNL     1     -10.603   6.339  74.062  1.00  0.00    -0.254 Cl 
HETATM   18  O   UNL     1     -10.901   8.931  67.732  1.00  0.00    -0.181 OA 
HETATM   19  S   UNL     1     -10.516   9.785  68.833  1.00  0.00    -0.222 S  
HETATM   20  O   UNL     1      -9.290  10.548  68.832  1.00  0.00    -0.170 OA 
HETATM   21  H   UNL     1     -12.479  11.068  68.367  1.00  0.00     0.000 HD 
BRANCH  14  22
HETATM   22  C   UNL     1     -12.873  12.505  70.458  1.00  0.00     0.081 C  
BRANCH  22  23
HETATM   23  C   UNL     1     -12.718  13.476  71.637  1.00  0.00    -0.380 C  
HETATM   24  C   UNL     1     -11.955  14.756  71.301  1.00  0.00    -0.404 C  
HETATM   25  C   UNL     1     -12.332  15.687  72.440  1.00  0.00    -0.519 C  
HETATM   26  C   UNL     1     -13.809  15.406  72.683  1.00  0.00    -0.625 C  
HETATM   27  C   UNL     1     -14.067  13.993  72.156  1.00  0.00    -0.641 C  
ENDBRANCH  22  23
ENDBRANCH  14  22
ENDBRANCH   2   7
TORSDOF 3
ENDMDL
MODEL       56
REMARK 921   NORMALIZED FREE ENERGY PREDICTED BY IDOCK:   -5.42 KCAL/MOL
REMARK 922        TOTAL FREE ENERGY PREDICTED BY IDOCK:   -6.61 KCAL/MOL
REMARK 923 INTER-LIGAND FREE ENERGY PREDICTED BY IDOCK:   -6.41 KCAL/MOL
REMARK 924 INTRA-LIGAND FREE ENERGY PREDICTED BY IDOCK:   -0.20 KCAL/MOL
REMARK 927      BINDING AFFINITY PREDICTED BY RF-SCORE:    0.00 PKD
ROOT
HETATM    1  N   UNL     1      -9.002   8.046  72.218  1.00  0.00    -0.153 N  
HETATM    2  S   UNL     1      -9.920   7.312  71.019  1.00  0.00    -0.186 S  
HETATM    3  H2  UNL     1      -7.988   8.017  72.326  1.00  0.00     0.000 HD 
HETATM    4  H1  UNL     1      -9.676   8.527  72.812  1.00  0.00     0.000 HD 
HETATM    5  O   UNL     1      -8.963   6.630  70.174  1.00  0.00    -0.150 OA 
HETATM    6  O   UNL     1     -10.995   6.611  71.665  1.00  0.00    -0.230 OA 
ENDROOT
BRANCH   2   7
HETATM    7  C   UNL     1     -10.580   8.691  70.136  1.00  0.00    -0.225 A  
HETATM    8  C   UNL     1     -10.045   9.006  68.882  1.00  0.00    -0.207 A  
HETATM    9  C   UNL     1     -10.557  10.103  68.178  1.00  0.00    -0.223 A  
HETATM   10  C   UNL     1     -11.596  10.896  68.671  1.00  0.00    -0.303 A  
HETATM   11  N   UNL     1     -12.175  11.923  67.927  1.00  0.00    -0.408 NA 
HETATM   12  C   UNL     1     -12.129  10.544  69.918  1.00  0.00    -0.318 A  
HETATM   13  H   UNL     1     -13.149  12.194  68.075  1.00  0.00     0.000 HD 
HETATM   14  C   UNL     1     -11.358  12.595  66.938  1.00  0.00    -0.320 C  
HETATM   15  C   UNL     1     -11.628   9.457  70.656  1.00  0.00    -0.269 A  
HETATM   16  N   UNL     1     -10.968  11.595  65.977  1.00  0.00    -0.295 N  
HETATM   17 CL   UNL     1     -12.373   9.158  72.187  1.00  0.00    -0.439 Cl 
HETATM   18  O   UNL     1      -9.990   9.301  65.770  1.00  0.00    -0.299 OA 
HETATM   19  S   UNL     1      -9.883  10.484  66.595  1.00  0.00    -0.207 S  
HETATM   20  O   UNL     1      -8.628  11.160  66.824  1.00  0.00    -0.146 OA 
HETATM   21  H   UNL     1     -11.317  11.567  65.019  1.00  0.00     0.000 HD 
BRANCH  14  22
HETATM   22  C   UNL     1     -12.180  13.672  66.209  1.00  0.00    -0.484 C  
BRANCH  22  23
HETATM   23  C   UNL     1     -11.607  15.090  66.338  1.00  0.00    -0.172 C  
HETATM   24  C   UNL     1     -10.913  15.369  67.670  1.00  0.00    -0.315 C  
HETATM   25  C   UNL     1     -10.079  16.602  67.370  1.00  0.00    -0.274 C  
HETATM   26  C   UNL     1      -9.544  16.362  65.964  1.00  0.00    -0.352 C  
HETATM   27  C   UNL     1     -10.512  15.380  65.301  1.00  0.00    -0.440 C  
ENDBRANCH  22  23
ENDBRANCH  14  22
ENDBRANCH   2   7
TORSDOF 3
ENDMDL
MODEL       57
REMARK 921   NORMALIZED FREE ENERGY PREDICTED BY IDOCK:   -5.41 KCAL/MOL
REMARK 922        TOTAL FREE ENERGY PREDICTED BY IDOCK:   -6.60 KCAL/MOL
REMARK 923 INTER-LIGAND FREE ENERGY PREDICTED BY IDOCK:   -6.82 KCAL/MOL
REMARK 924 INTRA-LIGAND FREE ENERGY PREDICTED BY IDOCK:    0.22 KCAL/MOL
REMARK 927      BINDING AFFINITY PREDICTED BY RF-SCORE:    0.00 PKD
ROOT
HETATM    1  N   UNL     1      -9.067   9.712  64.187  1.00  0.00    -0.344 N  
HETATM    2  S   UNL     1      -9.594  11.049  63.319  1.00  0.00    -0.380 S  
HETATM    3  H2  UNL     1      -8.104   9.407  64.330  1.00  0.00     0.000 HD 
HETATM    4  H1  UNL     1      -9.917   9.272  64.539  1.00  0.00     0.000 HD 
HETATM    5  O   UNL     1      -8.388  11.675  62.819  1.00  0.00     0.031 OA 
HETATM    6  O   UNL     1     -10.640  10.610  62.437  1.00  0.00     0.603 OA 
ENDROOT
BRANCH   2   7
HETATM    7  C   UNL     1     -10.292  12.076  64.574  1.00  0.00    -0.296 A  
HETATM    8  C   UNL     1      -9.456  12.570  65.582  1.00  0.00    -0.014 A  
HETATM    9  C   UNL     1     -10.003  13.379  66.586  1.00  0.00    -0.277 A  
HETATM   10  C   UNL     1     -11.355  13.729  66.618  1.00  0.00    -0.328 A  
HETATM   11  N   UNL     1     -11.880  14.617  67.557  1.00  0.00    -0.468 NA 
HETATM   12  C   UNL     1     -12.164  13.241  65.584  1.00  0.00    -0.514 A  
HETATM   13  H   UNL     1     -12.697  15.188  67.339  1.00  0.00     0.000 HD 
HETATM   14  C   UNL     1     -11.231  14.707  68.849  1.00  0.00    -0.267 C  
HETATM   15  C   UNL     1     -11.649  12.415  64.569  1.00  0.00    -0.348 A  
HETATM   16  N   UNL     1      -9.883  15.155  68.603  1.00  0.00    -0.211 N  
HETATM   17 CL   UNL     1     -12.772  11.874  63.372  1.00  0.00    -0.655 Cl 
HETATM   18  O   UNL     1      -7.859  14.715  67.201  1.00  0.00    -0.197 OA 
HETATM   19  S   UNL     1      -8.940  14.004  67.845  1.00  0.00    -0.198 S  
HETATM   20  O   UNL     1      -8.713  12.924  68.776  1.00  0.00     0.000 OA 
HETATM   21  H   UNL     1      -9.540  16.080  68.865  1.00  0.00     0.000 HD 
BRANCH  14  22
HETATM   22  C   UNL     1     -11.936  15.754  69.728  1.00  0.00    -0.337 C  
BRANCH  22  23
HETATM   23  C   UNL     1     -12.881  15.153  70.779  1.00  0.00    -0.473 C  
HETATM   24  C   UNL     1     -12.749  13.641  70.950  1.00  0.00    -0.382 C  
HETATM   25  C   UNL     1     -13.413  13.390  72.293  1.00  0.00    -0.683 C  
HETATM   26  C   UNL     1     -12.970  14.563  73.157  1.00  0.00    -0.577 C  
HETATM   27  C   UNL     1     -12.611  15.694  72.191  1.00  0.00    -0.504 C  
ENDBRANCH  22  23
ENDBRANCH  14  22
ENDBRANCH   2   7
TORSDOF 3
ENDMDL
MODEL       58
REMARK 921   NORMALIZED FREE ENERGY PREDICTED BY IDOCK:   -5.41 KCAL/MOL
REMARK 922        TOTAL FREE ENERGY PREDICTED BY IDOCK:   -6.60 KCAL/MOL
REMARK 923 INTER-LIGAND FREE ENERGY PREDICTED BY IDOCK:   -6.40 KCAL/MOL
REMARK 924 INTRA-LIGAND FREE ENERGY PREDICTED BY IDOCK:   -0.19 KCAL/MOL
REMARK 927      BINDING AFFINITY PREDICTED BY RF-SCORE:    0.00 PKD
ROOT
HETATM    1  N   UNL     1     -11.953   6.118  72.438  1.00  0.00    -0.501 N  
HETATM    2  S   UNL     1     -10.522   6.956  72.699  1.00  0.00    -0.231 S  
HETATM    3  H2  UNL     1     -12.746   6.031  73.074  1.00  0.00     0.000 HD 
HETATM    4  H1  UNL     1     -11.859   5.716  71.505  1.00  0.00     0.000 HD 
HETATM    5  O   UNL     1     -10.655   7.528  74.023  1.00  0.00    -0.211 OA 
HETATM    6  O   UNL     1      -9.437   6.079  72.360  1.00  0.00    -0.147 OA 
ENDROOT
BRANCH   2   7
HETATM    7  C   UNL     1     -10.609   8.255  71.506  1.00  0.00    -0.235 A  
HETATM    8  C   UNL     1      -9.579   8.375  70.567  1.00  0.00    -0.188 A  
HETATM    9  C   UNL     1      -9.636   9.408  69.621  1.00  0.00    -0.188 A  
HETATM   10  C   UNL     1     -10.691  10.321  69.567  1.00  0.00    -0.249 A  
HETATM   11  N   UNL     1     -10.801  11.284  68.563  1.00  0.00    -0.190 NA 
HETATM   12  C   UNL     1     -11.721  10.162  70.503  1.00  0.00    -0.407 A  
HETATM   13  H   UNL     1     -11.714  11.632  68.269  1.00  0.00     0.000 HD 
HETATM   14  C   UNL     1      -9.583  11.774  67.951  1.00  0.00    -0.187 C  
HETATM   15  C   UNL     1     -11.687   9.145  71.474  1.00  0.00    -0.363 A  
HETATM   16  N   UNL     1      -8.948  10.638  67.330  1.00  0.00    -0.136 N  
HETATM   17 CL   UNL     1     -13.018   9.087  72.575  1.00  0.00    -0.470 Cl 
HETATM   18  O   UNL     1      -8.231   8.279  67.748  1.00  0.00    -0.124 OA 
HETATM   19  S   UNL     1      -8.339   9.545  68.437  1.00  0.00    -0.119 S  
HETATM   20  O   UNL     1      -7.220  10.162  69.109  1.00  0.00    -0.068 OA 
HETATM   21  H   UNL     1      -8.878  10.515  66.320  1.00  0.00     0.000 HD 
BRANCH  14  22
HETATM   22  C   UNL     1      -9.914  12.802  66.856  1.00  0.00    -0.232 C  
BRANCH  22  23
HETATM   23  C   UNL     1     -10.968  12.324  65.847  1.00  0.00    -0.338 C  
HETATM   24  C   UNL     1     -12.166  13.260  65.700  1.00  0.00    -0.514 C  
HETATM   25  C   UNL     1     -12.784  12.820  64.384  1.00  0.00    -0.370 C  
HETATM   26  C   UNL     1     -11.589  12.533  63.485  1.00  0.00    -0.584 C  
HETATM   27  C   UNL     1     -10.415  12.229  64.417  1.00  0.00    -0.355 C  
ENDBRANCH  22  23
ENDBRANCH  14  22
ENDBRANCH   2   7
TORSDOF 3
ENDMDL
MODEL       59
REMARK 921   NORMALIZED FREE ENERGY PREDICTED BY IDOCK:   -5.36 KCAL/MOL
REMARK 922        TOTAL FREE ENERGY PREDICTED BY IDOCK:   -6.54 KCAL/MOL
REMARK 923 INTER-LIGAND FREE ENERGY PREDICTED BY IDOCK:   -6.06 KCAL/MOL
REMARK 924 INTRA-LIGAND FREE ENERGY PREDICTED BY IDOCK:   -0.48 KCAL/MOL
REMARK 927      BINDING AFFINITY PREDICTED BY RF-SCORE:    0.00 PKD
ROOT
HETATM    1  N   UNL     1      -7.791   4.798  70.537  1.00  0.00    -0.061 N  
HETATM    2  S   UNL     1      -8.692   4.410  69.175  1.00  0.00    -0.089 S  
HETATM    3  H2  UNL     1      -6.777   4.753  70.643  1.00  0.00     0.000 HD 
HETATM    4  H1  UNL     1      -8.476   5.088  71.235  1.00  0.00     0.000 HD 
HETATM    5  O   UNL     1      -7.719   3.997  68.184  1.00  0.00    -0.066 OA 
HETATM    6  O   UNL     1      -9.759   3.544  69.592  1.00  0.00    -0.164 OA 
ENDROOT
BRANCH   2   7
HETATM    7  C   UNL     1      -9.366   5.970  68.698  1.00  0.00    -0.117 A  
HETATM    8  C   UNL     1      -9.191   7.067  69.547  1.00  0.00    -0.149 A  
HETATM    9  C   UNL     1      -9.730   8.307  69.179  1.00  0.00    -0.171 A  
HETATM   10  C   UNL     1     -10.429   8.500  67.986  1.00  0.00    -0.191 A  
HETATM   11  N   UNL     1     -10.875   9.754  67.570  1.00  0.00    -0.356 NA 
HETATM   12  C   UNL     1     -10.568   7.390  67.142  1.00  0.00    -0.413 A  
HETATM   13  H   UNL     1     -10.978   9.973  66.579  1.00  0.00     0.000 HD 
HETATM   14  C   UNL     1     -11.188  10.738  68.586  1.00  0.00    -0.274 C  
HETATM   15  C   UNL     1     -10.051   6.129  67.489  1.00  0.00    -0.158 A  
HETATM   16  N   UNL     1      -9.968  10.983  69.313  1.00  0.00    -0.406 N  
HETATM   17 CL   UNL     1     -10.319   4.849  66.357  1.00  0.00    -0.312 Cl 
HETATM   18  O   UNL     1      -8.075   9.835  70.478  1.00  0.00    -0.222 OA 
HETATM   19  S   UNL     1      -9.495   9.685  70.252  1.00  0.00    -0.202 S  
HETATM   20  O   UNL     1     -10.443   9.543  71.332  1.00  0.00    -0.317 OA 
HETATM   21  H   UNL     1      -9.446  11.858  69.259  1.00  0.00     0.000 HD 
BRANCH  14  22
HETATM   22  C   UNL     1     -11.635  12.057  67.931  1.00  0.00    -0.405 C  
BRANCH  22  23
HETATM   23  C   UNL     1     -11.260  12.176  66.447  1.00  0.00    -0.380 C  
HETATM   24  C   UNL     1     -12.386  12.693  65.555  1.00  0.00    -0.455 C  
HETATM   25  C   UNL     1     -11.653  13.136  64.300  1.00  0.00    -0.440 C  
HETATM   26  C   UNL     1     -10.375  13.782  64.820  1.00  0.00    -0.422 C  
HETATM   27  C   UNL     1     -10.125  13.182  66.205  1.00  0.00    -0.291 C  
ENDBRANCH  22  23
ENDBRANCH  14  22
ENDBRANCH   2   7
TORSDOF 3
ENDMDL
MODEL       60
REMARK 921   NORMALIZED FREE ENERGY PREDICTED BY IDOCK:   -5.32 KCAL/MOL
REMARK 922        TOTAL FREE ENERGY PREDICTED BY IDOCK:   -6.49 KCAL/MOL
REMARK 923 INTER-LIGAND FREE ENERGY PREDICTED BY IDOCK:   -6.02 KCAL/MOL
REMARK 924 INTRA-LIGAND FREE ENERGY PREDICTED BY IDOCK:   -0.47 KCAL/MOL
REMARK 927      BINDING AFFINITY PREDICTED BY RF-SCORE:    0.00 PKD
ROOT
HETATM    1  N   UNL     1      -6.819   4.046  71.460  1.00  0.00    -0.029 N  
HETATM    2  S   UNL     1      -7.730   3.718  70.088  1.00  0.00    -0.047 S  
HETATM    3  H2  UNL     1      -5.840   4.329  71.501  1.00  0.00     0.000 HD 
HETATM    4  H1  UNL     1      -7.457   3.901  72.243  1.00  0.00     0.000 HD 
HETATM    5  O   UNL     1      -6.825   3.924  68.977  1.00  0.00    -0.044 OA 
HETATM    6  O   UNL     1      -8.396   2.463  70.299  1.00  0.00    -0.041 OA 
ENDROOT
BRANCH   2   7
HETATM    7  C   UNL     1      -8.927   5.016  70.097  1.00  0.00    -0.111 A  
HETATM    8  C   UNL     1      -8.924   5.927  71.158  1.00  0.00    -0.145 A  
HETATM    9  C   UNL     1      -9.875   6.955  71.177  1.00  0.00    -0.177 A  
HETATM   10  C   UNL     1     -10.826   7.119  70.167  1.00  0.00    -0.257 A  
HETATM   11  N   UNL     1     -11.706   8.201  70.132  1.00  0.00    -0.458 NA 
HETATM   12  C   UNL     1     -10.791   6.207  69.104  1.00  0.00    -0.418 A  
HETATM   13  H   UNL     1     -12.069   8.554  69.245  1.00  0.00     0.000 HD 
HETATM   14  C   UNL     1     -12.089   8.811  71.388  1.00  0.00    -0.307 C  
HETATM   15  C   UNL     1      -9.858   5.157  69.063  1.00  0.00    -0.176 A  
HETATM   16  N   UNL     1     -10.880   9.316  71.988  1.00  0.00    -0.205 N  
HETATM   17 CL   UNL     1      -9.950   4.098  67.699  1.00  0.00    -0.120 Cl 
HETATM   18  O   UNL     1      -8.534   8.683  72.583  1.00  0.00    -0.378 OA 
HETATM   19  S   UNL     1      -9.856   8.104  72.513  1.00  0.00    -0.306 S  
HETATM   20  O   UNL     1     -10.477   7.448  73.639  1.00  0.00    -0.360 OA 
HETATM   21  H   UNL     1     -10.670  10.309  72.082  1.00  0.00     0.000 HD 
BRANCH  14  22
HETATM   22  C   UNL     1     -13.037   9.997  71.138  1.00  0.00    -0.472 C  
BRANCH  22  23
HETATM   23  C   UNL     1     -12.337  11.364  71.127  1.00  0.00    -0.404 C  
HETATM   24  C   UNL     1     -12.155  11.964  69.734  1.00  0.00    -0.321 C  
HETATM   25  C   UNL     1     -11.884  13.430  70.026  1.00  0.00    -0.364 C  
HETATM   26  C   UNL     1     -12.828  13.765  71.173  1.00  0.00    -0.409 C  
HETATM   27  C   UNL     1     -13.136  12.441  71.875  1.00  0.00    -0.471 C  
ENDBRANCH  22  23
ENDBRANCH  14  22
ENDBRANCH   2   7
TORSDOF 3
ENDMDL
MODEL       61
REMARK 921   NORMALIZED FREE ENERGY PREDICTED BY IDOCK:   -5.30 KCAL/MOL
REMARK 922        TOTAL FREE ENERGY PREDICTED BY IDOCK:   -6.47 KCAL/MOL
REMARK 923 INTER-LIGAND FREE ENERGY PREDICTED BY IDOCK:   -6.08 KCAL/MOL
REMARK 924 INTRA-LIGAND FREE ENERGY PREDICTED BY IDOCK:   -0.38 KCAL/MOL
REMARK 927      BINDING AFFINITY PREDICTED BY RF-SCORE:    0.00 PKD
ROOT
HETATM    1  N   UNL     1      -8.604   4.344  70.346  1.00  0.00    -0.076 N  
HETATM    2  S   UNL     1      -9.200   5.042  71.752  1.00  0.00    -0.143 S  
HETATM    3  H2  UNL     1      -8.927   3.489  69.894  1.00  0.00     0.000 HD 
HETATM    4  H1  UNL     1      -7.849   4.960  70.044  1.00  0.00     0.000 HD 
HETATM    5  O   UNL     1     -10.271   4.168  72.182  1.00  0.00    -0.182 OA 
HETATM    6  O   UNL     1      -8.079   5.338  72.600  1.00  0.00    -0.107 OA 
ENDROOT
BRANCH   2   7
HETATM    7  C   UNL     1      -9.898   6.555  71.169  1.00  0.00    -0.182 A  
HETATM    8  C   UNL     1      -9.736   6.896  69.821  1.00  0.00    -0.166 A  
HETATM    9  C   UNL     1     -10.281   8.098  69.352  1.00  0.00    -0.211 A  
HETATM   10  C   UNL     1     -10.994   8.973  70.174  1.00  0.00    -0.233 A  
HETATM   11  N   UNL     1     -11.624  10.118  69.686  1.00  0.00    -0.414 NA 
HETATM   12  C   UNL     1     -11.162   8.595  71.513  1.00  0.00    -0.360 A  
HETATM   13  H   UNL     1     -12.456  10.494  70.142  1.00  0.00     0.000 HD 
HETATM   14  C   UNL     1     -11.064  10.758  68.513  1.00  0.00    -0.262 C  
HETATM   15  C   UNL     1     -10.617   7.402  72.018  1.00  0.00    -0.208 A  
HETATM   16  N   UNL     1     -11.134   9.793  67.445  1.00  0.00    -0.357 N  
HETATM   17 CL   UNL     1     -10.889   7.080  73.695  1.00  0.00    -0.309 Cl 
HETATM   18  O   UNL     1     -10.601   7.419  66.863  1.00  0.00    -0.326 OA 
HETATM   19  S   UNL     1     -10.080   8.513  67.651  1.00  0.00    -0.230 S  
HETATM   20  O   UNL     1      -8.733   9.010  67.496  1.00  0.00    -0.120 OA 
HETATM   21  H   UNL     1     -11.761   9.882  66.645  1.00  0.00     0.000 HD 
BRANCH  14  22
HETATM   22  C   UNL     1     -11.911  11.980  68.117  1.00  0.00    -0.352 C  
BRANCH  22  23
HETATM   23  C   UNL     1     -11.335  13.320  68.595  1.00  0.00    -0.324 C  
HETATM   24  C   UNL     1     -11.676  14.507  67.696  1.00  0.00    -0.410 C  
HETATM   25  C   UNL     1     -11.403  15.704  68.590  1.00  0.00    -0.359 C  
HETATM   26  C   UNL     1     -11.912  15.274  69.960  1.00  0.00    -0.375 C  
HETATM   27  C   UNL     1     -11.886  13.744  69.965  1.00  0.00    -0.377 C  
ENDBRANCH  22  23
ENDBRANCH  14  22
ENDBRANCH   2   7
TORSDOF 3
ENDMDL
MODEL       62
REMARK 921   NORMALIZED FREE ENERGY PREDICTED BY IDOCK:   -5.29 KCAL/MOL
REMARK 922        TOTAL FREE ENERGY PREDICTED BY IDOCK:   -6.46 KCAL/MOL
REMARK 923 INTER-LIGAND FREE ENERGY PREDICTED BY IDOCK:   -6.33 KCAL/MOL
REMARK 924 INTRA-LIGAND FREE ENERGY PREDICTED BY IDOCK:   -0.12 KCAL/MOL
REMARK 927      BINDING AFFINITY PREDICTED BY RF-SCORE:    0.00 PKD
ROOT
HETATM    1  N   UNL     1     -10.603  17.216  66.939  1.00  0.00    -0.261 N  
HETATM    2  S   UNL     1      -9.800  16.180  65.890  1.00  0.00    -0.339 S  
HETATM    3  H2  UNL     1     -11.526  17.632  66.813  1.00  0.00     0.000 HD 
HETATM    4  H1  UNL     1      -9.969  17.340  67.728  1.00  0.00     0.000 HD 
HETATM    5  O   UNL     1     -10.700  16.004  64.770  1.00  0.00    -0.611 OA 
HETATM    6  O   UNL     1      -8.466  16.685  65.717  1.00  0.00    -0.433 OA 
ENDROOT
BRANCH   2   7
HETATM    7  C   UNL     1      -9.732  14.674  66.810  1.00  0.00    -0.257 A  
HETATM    8  C   UNL     1      -8.525  14.309  67.416  1.00  0.00    -0.216 A  
HETATM    9  C   UNL     1      -8.460  13.112  68.140  1.00  0.00    -0.173 A  
HETATM   10  C   UNL     1      -9.561  12.266  68.297  1.00  0.00    -0.212 A  
HETATM   11  N   UNL     1      -9.526  11.129  69.103  1.00  0.00    -0.407 NA 
HETATM   12  C   UNL     1     -10.763  12.668  67.700  1.00  0.00    -0.239 A  
HETATM   13  H   UNL     1     -10.372  10.779  69.553  1.00  0.00     0.000 HD 
HETATM   14  C   UNL     1      -8.255  10.458  69.283  1.00  0.00    -0.158 C  
HETATM   15  C   UNL     1     -10.857  13.857  66.955  1.00  0.00    -0.285 A  
HETATM   16  N   UNL     1      -7.374  11.408  69.916  1.00  0.00    -0.270 N  
HETATM   17 CL   UNL     1     -12.401  14.210  66.261  1.00  0.00    -0.482 Cl 
HETATM   18  O   UNL     1      -6.536  13.760  69.764  1.00  0.00    -0.125 OA 
HETATM   19  S   UNL     1      -6.938  12.667  68.908  1.00  0.00    -0.056 S  
HETATM   20  O   UNL     1      -6.084  12.137  67.871  1.00  0.00    -0.059 OA 
HETATM   21  H   UNL     1      -7.051  11.320  70.880  1.00  0.00     0.000 HD 
BRANCH  14  22
HETATM   22  C   UNL     1      -8.418   9.250  70.221  1.00  0.00    -0.224 C  
BRANCH  22  23
HETATM   23  C   UNL     1      -9.864   8.752  70.354  1.00  0.00    -0.212 C  
HETATM   24  C   UNL     1     -10.041   7.258  70.091  1.00  0.00    -0.192 C  
HETATM   25  C   UNL     1     -11.395   6.960  70.712  1.00  0.00    -0.355 C  
HETATM   26  C   UNL     1     -11.413   7.786  71.991  1.00  0.00    -0.337 C  
HETATM   27  C   UNL     1     -10.420   8.931  71.775  1.00  0.00    -0.431 C  
ENDBRANCH  22  23
ENDBRANCH  14  22
ENDBRANCH   2   7
TORSDOF 3
ENDMDL
MODEL       63
REMARK 921   NORMALIZED FREE ENERGY PREDICTED BY IDOCK:   -5.29 KCAL/MOL
REMARK 922        TOTAL FREE ENERGY PREDICTED BY IDOCK:   -6.45 KCAL/MOL
REMARK 923 INTER-LIGAND FREE ENERGY PREDICTED BY IDOCK:   -6.22 KCAL/MOL
REMARK 924 INTRA-LIGAND FREE ENERGY PREDICTED BY IDOCK:   -0.23 KCAL/MOL
REMARK 927      BINDING AFFINITY PREDICTED BY RF-SCORE:    0.00 PKD
ROOT
HETATM    1  N   UNL     1     -12.103  16.652  71.715  1.00  0.00    -0.447 N  
HETATM    2  S   UNL     1     -13.008  15.242  71.827  1.00  0.00    -0.433 S  
HETATM    3  H2  UNL     1     -11.525  17.076  72.440  1.00  0.00     0.000 HD 
HETATM    4  H1  UNL     1     -12.255  16.990  70.765  1.00  0.00     0.000 HD 
HETATM    5  O   UNL     1     -12.791  14.761  73.175  1.00  0.00    -0.463 OA 
HETATM    6  O   UNL     1     -14.324  15.531  71.329  1.00  0.00    -0.536 OA 
ENDROOT
BRANCH   2   7
HETATM    7  C   UNL     1     -12.187  14.162  70.697  1.00  0.00    -0.362 A  
HETATM    8  C   UNL     1     -11.420  14.721  69.669  1.00  0.00    -0.327 A  
HETATM    9  C   UNL     1     -10.771  13.871  68.763  1.00  0.00    -0.262 A  
HETATM   10  C   UNL     1     -10.848  12.479  68.850  1.00  0.00    -0.196 A  
HETATM   11  N   UNL     1     -10.120  11.633  68.013  1.00  0.00    -0.184 NA 
HETATM   12  C   UNL     1     -11.602  11.947  69.903  1.00  0.00    -0.333 A  
HETATM   13  H   UNL     1      -9.834  10.704  68.326  1.00  0.00     0.000 HD 
HETATM   14  C   UNL     1      -9.781  12.109  66.688  1.00  0.00    -0.219 C  
HETATM   15  C   UNL     1     -12.276  12.772  70.821  1.00  0.00    -0.248 A  
HETATM   16  N   UNL     1      -8.956  13.277  66.869  1.00  0.00    -0.294 N  
HETATM   17 CL   UNL     1     -13.186  11.971  72.054  1.00  0.00    -0.570 Cl 
HETATM   18  O   UNL     1      -8.822  15.455  68.092  1.00  0.00    -0.166 OA 
HETATM   19  S   UNL     1      -9.799  14.585  67.479  1.00  0.00    -0.224 S  
HETATM   20  O   UNL     1     -10.717  15.041  66.462  1.00  0.00    -0.300 OA 
HETATM   21  H   UNL     1      -7.961  13.304  66.647  1.00  0.00     0.000 HD 
BRANCH  14  22
HETATM   22  C   UNL     1      -8.960  11.049  65.934  1.00  0.00    -0.208 C  
BRANCH  22  23
HETATM   23  C   UNL     1      -7.785  10.478  66.741  1.00  0.00    -0.118 C  
HETATM   24  C   UNL     1      -7.677   8.955  66.701  1.00  0.00    -0.100 C  
HETATM   25  C   UNL     1      -6.251   8.701  67.158  1.00  0.00    -0.056 C  
HETATM   26  C   UNL     1      -5.440   9.807  66.494  1.00  0.00    -0.045 C  
HETATM   27  C   UNL     1      -6.422  10.945  66.209  1.00  0.00    -0.129 C  
ENDBRANCH  22  23
ENDBRANCH  14  22
ENDBRANCH   2   7
TORSDOF 3
ENDMDL
MODEL       64
REMARK 921   NORMALIZED FREE ENERGY PREDICTED BY IDOCK:   -5.21 KCAL/MOL
REMARK 922        TOTAL FREE ENERGY PREDICTED BY IDOCK:   -6.37 KCAL/MOL
REMARK 923 INTER-LIGAND FREE ENERGY PREDICTED BY IDOCK:   -5.92 KCAL/MOL
REMARK 924 INTRA-LIGAND FREE ENERGY PREDICTED BY IDOCK:   -0.45 KCAL/MOL
REMARK 927      BINDING AFFINITY PREDICTED BY RF-SCORE:    0.00 PKD
ROOT
HETATM    1  N   UNL     1     -10.153  13.526  64.938  1.00  0.00    -0.585 N  
HETATM    2  S   UNL     1     -11.164  14.057  66.169  1.00  0.00    -0.324 S  
HETATM    3  H2  UNL     1      -9.250  13.915  64.667  1.00  0.00     0.000 HD 
HETATM    4  H1  UNL     1     -10.637  12.730  64.522  1.00  0.00     0.000 HD 
HETATM    5  O   UNL     1     -10.477  15.186  66.761  1.00  0.00    -0.272 OA 
HETATM    6  O   UNL     1     -12.486  14.177  65.623  1.00  0.00    -0.457 OA 
ENDROOT
BRANCH   2   7
HETATM    7  C   UNL     1     -11.131  12.708  67.308  1.00  0.00    -0.278 A  
HETATM    8  C   UNL     1     -10.488  11.524  66.931  1.00  0.00    -0.270 A  
HETATM    9  C   UNL     1     -10.464  10.446  67.826  1.00  0.00    -0.226 A  
HETATM   10  C   UNL     1     -11.047  10.507  69.093  1.00  0.00    -0.250 A  
HETATM   11  N   UNL     1     -10.934   9.473  70.023  1.00  0.00    -0.242 NA 
HETATM   12  C   UNL     1     -11.662  11.713  69.455  1.00  0.00    -0.405 A  
HETATM   13  H   UNL     1     -10.961   9.664  71.025  1.00  0.00     0.000 HD 
HETATM   14  C   UNL     1     -10.777   8.122  69.526  1.00  0.00    -0.175 C  
HETATM   15  C   UNL     1     -11.715  12.808  68.574  1.00  0.00    -0.333 A  
HETATM   16  N   UNL     1      -9.549   8.100  68.772  1.00  0.00    -0.148 N  
HETATM   17 CL   UNL     1     -12.527  14.221  69.152  1.00  0.00    -0.152 Cl 
HETATM   18  O   UNL     1      -8.286   9.304  66.979  1.00  0.00    -0.118 OA 
HETATM   19  S   UNL     1      -9.643   8.963  67.344  1.00  0.00    -0.166 S  
HETATM   20  O   UNL     1     -10.534   8.260  66.452  1.00  0.00    -0.168 OA 
HETATM   21  H   UNL     1      -8.709   7.609  69.078  1.00  0.00     0.000 HD 
BRANCH  14  22
HETATM   22  C   UNL     1     -10.643   7.135  70.698  1.00  0.00    -0.243 C  
BRANCH  22  23
HETATM   23  C   UNL     1      -9.576   7.530  71.729  1.00  0.00    -0.178 C  
HETATM   24  C   UNL     1     -10.119   7.757  73.139  1.00  0.00    -0.390 C  
HETATM   25  C   UNL     1      -8.872   7.677  74.002  1.00  0.00    -0.305 C  
HETATM   26  C   UNL     1      -8.059   6.547  73.385  1.00  0.00    -0.109 C  
HETATM   27  C   UNL     1      -8.517   6.436  71.929  1.00  0.00    -0.123 C  
ENDBRANCH  22  23
ENDBRANCH  14  22
ENDBRANCH   2   7
TORSDOF 3
ENDMDL
MODEL       65
REMARK 921   NORMALIZED FREE ENERGY PREDICTED BY IDOCK:   -5.20 KCAL/MOL
REMARK 922        TOTAL FREE ENERGY PREDICTED BY IDOCK:   -6.35 KCAL/MOL
REMARK 923 INTER-LIGAND FREE ENERGY PREDICTED BY IDOCK:   -6.30 KCAL/MOL
REMARK 924 INTRA-LIGAND FREE ENERGY PREDICTED BY IDOCK:   -0.05 KCAL/MOL
REMARK 927      BINDING AFFINITY PREDICTED BY RF-SCORE:    0.00 PKD
ROOT
HETATM    1  N   UNL     1     -12.651  15.633  69.440  1.00  0.00    -0.526 N  
HETATM    2  S   UNL     1     -11.029  15.227  69.289  1.00  0.00    -0.280 S  
HETATM    3  H2  UNL     1     -13.212  16.195  68.800  1.00  0.00     0.000 HD 
HETATM    4  H1  UNL     1     -12.955  15.195  70.310  1.00  0.00     0.000 HD 
HETATM    5  O   UNL     1     -10.598  15.848  68.054  1.00  0.00    -0.269 OA 
HETATM    6  O   UNL     1     -10.391  15.515  70.543  1.00  0.00    -0.260 OA 
ENDROOT
BRANCH   2   7
HETATM    7  C   UNL     1     -11.086  13.478  69.058  1.00  0.00    -0.250 A  
HETATM    8  C   UNL     1     -10.309  12.907  68.045  1.00  0.00    -0.230 A  
HETATM    9  C   UNL     1     -10.354  11.520  67.850  1.00  0.00    -0.183 A  
HETATM   10  C   UNL     1     -11.138  10.674  68.638  1.00  0.00    -0.263 A  
HETATM   11  N   UNL     1     -11.104   9.286  68.513  1.00  0.00    -0.464 NA 
HETATM   12  C   UNL     1     -11.887  11.270  69.661  1.00  0.00    -0.430 A  
HETATM   13  H   UNL     1     -11.307   8.682  69.311  1.00  0.00     0.000 HD 
HETATM   14  C   UNL     1     -10.774   8.725  67.219  1.00  0.00    -0.147 C  
HETATM   15  C   UNL     1     -11.874  12.660  69.874  1.00  0.00    -0.294 A  
HETATM   16  N   UNL     1      -9.441   9.173  66.904  1.00  0.00    -0.161 N  
HETATM   17 CL   UNL     1     -12.866  13.251  71.160  1.00  0.00    -0.394 Cl 
HETATM   18  O   UNL     1      -7.993  11.211  66.806  1.00  0.00    -0.144 OA 
HETATM   19  S   UNL     1      -9.363  10.810  66.578  1.00  0.00    -0.172 S  
HETATM   20  O   UNL     1     -10.046  11.053  65.329  1.00  0.00    -0.245 OA 
HETATM   21  H   UNL     1      -8.629   8.556  66.881  1.00  0.00     0.000 HD 
BRANCH  14  22
HETATM   22  C   UNL     1     -10.762   7.188  67.292  1.00  0.00    -0.399 C  
BRANCH  22  23
HETATM   23  C   UNL     1     -10.065   6.626  68.539  1.00  0.00    -0.166 C  
HETATM   24  C   UNL     1     -11.005   5.933  69.524  1.00  0.00    -0.438 C  
HETATM   25  C   UNL     1     -10.056   5.110  70.379  1.00  0.00    -0.333 C  
HETATM   26  C   UNL     1      -9.027   4.575  69.391  1.00  0.00    -0.142 C  
HETATM   27  C   UNL     1      -9.039   5.535  68.200  1.00  0.00    -0.111 C  
ENDBRANCH  22  23
ENDBRANCH  14  22
ENDBRANCH   2   7
TORSDOF 3
ENDMDL
MODEL       66
REMARK 921   NORMALIZED FREE ENERGY PREDICTED BY IDOCK:   -5.18 KCAL/MOL
REMARK 922        TOTAL FREE ENERGY PREDICTED BY IDOCK:   -6.33 KCAL/MOL
REMARK 923 INTER-LIGAND FREE ENERGY PREDICTED BY IDOCK:   -6.23 KCAL/MOL
REMARK 924 INTRA-LIGAND FREE ENERGY PREDICTED BY IDOCK:   -0.10 KCAL/MOL
REMARK 927      BINDING AFFINITY PREDICTED BY RF-SCORE:    0.00 PKD
ROOT
HETATM    1  N   UNL     1     -11.728  10.619  68.298  1.00  0.00    -0.454 N  
HETATM    2  S   UNL     1     -10.180  10.481  67.663  1.00  0.00    -0.210 S  
HETATM    3  H2  UNL     1     -12.011  10.499  69.271  1.00  0.00     0.000 HD 
HETATM    4  H1  UNL     1     -12.323  10.848  67.502  1.00  0.00     0.000 HD 
HETATM    5  O   UNL     1      -9.335  10.156  68.792  1.00  0.00    -0.152 OA 
HETATM    6  O   UNL     1     -10.259   9.631  66.508  1.00  0.00    -0.239 OA 
ENDROOT
BRANCH   2   7
HETATM    7  C   UNL     1      -9.826  12.131  67.142  1.00  0.00    -0.197 A  
HETATM    8  C   UNL     1      -8.676  12.759  67.631  1.00  0.00    -0.180 A  
HETATM    9  C   UNL     1      -8.392  14.070  67.229  1.00  0.00    -0.194 A  
HETATM   10  C   UNL     1      -9.206  14.780  66.344  1.00  0.00    -0.269 A  
HETATM   11  N   UNL     1      -8.871  16.045  65.863  1.00  0.00    -0.324 NA 
HETATM   12  C   UNL     1     -10.339  14.118  65.850  1.00  0.00    -0.326 A  
HETATM   13  H   UNL     1      -9.194  16.361  64.948  1.00  0.00     0.000 HD 
HETATM   14  C   UNL     1      -8.050  16.897  66.698  1.00  0.00    -0.263 C  
HETATM   15  C   UNL     1     -10.659  12.807  66.245  1.00  0.00    -0.257 A  
HETATM   16  N   UNL     1      -6.797  16.209  66.883  1.00  0.00    -0.176 N  
HETATM   17 CL   UNL     1     -12.099  12.130  65.569  1.00  0.00    -0.326 Cl 
HETATM   18  O   UNL     1      -5.809  14.001  67.521  1.00  0.00    -0.338 OA 
HETATM   19  S   UNL     1      -6.935  14.848  67.843  1.00  0.00    -0.173 S  
HETATM   20  O   UNL     1      -7.224  15.277  69.191  1.00  0.00    -0.139 OA 
HETATM   21  H   UNL     1      -5.917  16.520  66.471  1.00  0.00     0.000 HD 
BRANCH  14  22
HETATM   22  C   UNL     1      -7.768  18.231  65.985  1.00  0.00    -0.200 C  
BRANCH  22  23
HETATM   23  C   UNL     1      -8.729  19.363  66.375  1.00  0.00    -0.376 C  
HETATM   24  C   UNL     1     -10.205  19.038  66.155  1.00  0.00    -0.508 C  
HETATM   25  C   UNL     1     -10.914  20.076  67.008  1.00  0.00    -0.098 C  
HETATM   26  C   UNL     1     -10.062  20.175  68.266  1.00  0.00    -0.471 C  
HETATM   27  C   UNL     1      -8.661  19.704  67.871  1.00  0.00    -0.360 C  
ENDBRANCH  22  23
ENDBRANCH  14  22
ENDBRANCH   2   7
TORSDOF 3
ENDMDL
MODEL       67
REMARK 921   NORMALIZED FREE ENERGY PREDICTED BY IDOCK:   -5.18 KCAL/MOL
REMARK 922        TOTAL FREE ENERGY PREDICTED BY IDOCK:   -6.33 KCAL/MOL
REMARK 923 INTER-LIGAND FREE ENERGY PREDICTED BY IDOCK:   -5.99 KCAL/MOL
REMARK 924 INTRA-LIGAND FREE ENERGY PREDICTED BY IDOCK:   -0.34 KCAL/MOL
REMARK 927      BINDING AFFINITY PREDICTED BY RF-SCORE:    0.00 PKD
ROOT
HETATM    1  N   UNL     1     -11.060   7.329  67.537  1.00  0.00    -0.562 N  
HETATM    2  S   UNL     1      -9.442   7.456  67.111  1.00  0.00    -0.158 S  
HETATM    3  H2  UNL     1     -11.443   7.025  68.433  1.00  0.00     0.000 HD 
HETATM    4  H1  UNL     1     -11.577   7.621  66.708  1.00  0.00     0.000 HD 
HETATM    5  O   UNL     1      -8.707   7.041  68.287  1.00  0.00    -0.128 OA 
HETATM    6  O   UNL     1      -9.274   6.800  65.844  1.00  0.00    -0.091 OA 
ENDROOT
BRANCH   2   7
HETATM    7  C   UNL     1      -9.233   9.196  66.892  1.00  0.00    -0.148 A  
HETATM    8  C   UNL     1     -10.366  10.016  66.902  1.00  0.00    -0.297 A  
HETATM    9  C   UNL     1     -10.210  11.396  66.721  1.00  0.00    -0.223 A  
HETATM   10  C   UNL     1      -8.962  11.996  66.543  1.00  0.00    -0.193 A  
HETATM   11  N   UNL     1      -8.796  13.379  66.467  1.00  0.00    -0.451 NA 
HETATM   12  C   UNL     1      -7.842  11.154  66.562  1.00  0.00    -0.151 A  
HETATM   13  H   UNL     1      -7.926  13.820  66.767  1.00  0.00     0.000 HD 
HETATM   14  C   UNL     1      -9.894  14.171  65.951  1.00  0.00    -0.289 C  
HETATM   15  C   UNL     1      -7.966   9.763  66.728  1.00  0.00    -0.105 A  
HETATM   16  N   UNL     1     -11.006  13.963  66.844  1.00  0.00    -0.293 N  
HETATM   17 CL   UNL     1      -6.497   8.852  66.708  1.00  0.00    -0.063 Cl 
HETATM   18  O   UNL     1     -12.339  12.183  67.990  1.00  0.00    -0.292 OA 
HETATM   19  S   UNL     1     -11.643  12.421  66.746  1.00  0.00    -0.367 S  
HETATM   20  O   UNL     1     -12.283  12.280  65.459  1.00  0.00    -0.577 OA 
HETATM   21  H   UNL     1     -11.368  14.682  67.470  1.00  0.00     0.000 HD 
BRANCH  14  22
HETATM   22  C   UNL     1      -9.529  15.665  65.972  1.00  0.00    -0.390 C  
BRANCH  22  23
HETATM   23  C   UNL     1      -8.195  15.973  66.668  1.00  0.00    -0.324 C  
HETATM   24  C   UNL     1      -7.514  17.251  66.181  1.00  0.00    -0.321 C  
HETATM   25  C   UNL     1      -6.520  17.552  67.289  1.00  0.00    -0.177 C  
HETATM   26  C   UNL     1      -7.270  17.212  68.570  1.00  0.00    -0.220 C  
HETATM   27  C   UNL     1      -8.358  16.211  68.176  1.00  0.00    -0.166 C  
ENDBRANCH  22  23
ENDBRANCH  14  22
ENDBRANCH   2   7
TORSDOF 3
ENDMDL
MODEL       68
REMARK 921   NORMALIZED FREE ENERGY PREDICTED BY IDOCK:   -5.17 KCAL/MOL
REMARK 922        TOTAL FREE ENERGY PREDICTED BY IDOCK:   -6.32 KCAL/MOL
REMARK 923 INTER-LIGAND FREE ENERGY PREDICTED BY IDOCK:   -6.20 KCAL/MOL
REMARK 924 INTRA-LIGAND FREE ENERGY PREDICTED BY IDOCK:   -0.12 KCAL/MOL
REMARK 927      BINDING AFFINITY PREDICTED BY RF-SCORE:    0.00 PKD
ROOT
HETATM    1  N   UNL     1     -10.610   4.832  72.741  1.00  0.00    -0.204 N  
HETATM    2  S   UNL     1      -9.747   5.209  71.351  1.00  0.00    -0.175 S  
HETATM    3  H2  UNL     1     -10.233   4.583  73.656  1.00  0.00     0.000 HD 
HETATM    4  H1  UNL     1     -11.591   4.907  72.473  1.00  0.00     0.000 HD 
HETATM    5  O   UNL     1      -8.354   5.102  71.731  1.00  0.00    -0.114 OA 
HETATM    6  O   UNL     1     -10.299   4.434  70.274  1.00  0.00    -0.094 OA 
ENDROOT
BRANCH   2   7
HETATM    7  C   UNL     1     -10.141   6.911  71.098  1.00  0.00    -0.191 A  
HETATM    8  C   UNL     1     -11.389   7.383  71.520  1.00  0.00    -0.285 A  
HETATM    9  C   UNL     1     -11.712   8.731  71.316  1.00  0.00    -0.298 A  
HETATM   10  C   UNL     1     -10.832   9.634  70.716  1.00  0.00    -0.330 A  
HETATM   11  N   UNL     1     -11.111  10.996  70.607  1.00  0.00    -0.240 NA 
HETATM   12  C   UNL     1      -9.581   9.140  70.325  1.00  0.00    -0.249 A  
HETATM   13  H   UNL     1     -10.360  11.686  70.585  1.00  0.00     0.000 HD 
HETATM   14  C   UNL     1     -12.499  11.404  70.524  1.00  0.00    -0.293 C  
HETATM   15  C   UNL     1      -9.230   7.790  70.504  1.00  0.00    -0.162 A  
HETATM   16  N   UNL     1     -13.127  10.977  71.750  1.00  0.00    -0.480 N  
HETATM   17 CL   UNL     1      -7.660   7.322  69.952  1.00  0.00    -0.092 Cl 
HETATM   18  O   UNL     1     -13.408   9.009  73.268  1.00  0.00    -0.048 OA 
HETATM   19  S   UNL     1     -13.282   9.317  71.861  1.00  0.00    -0.456 S  
HETATM   20  O   UNL     1     -14.253   8.890  70.882  1.00  0.00    -0.064 OA 
HETATM   21  H   UNL     1     -13.444  11.622  72.474  1.00  0.00     0.000 HD 
BRANCH  14  22
HETATM   22  C   UNL     1     -12.600  12.936  70.437  1.00  0.00    -0.145 C  
BRANCH  22  23
HETATM   23  C   UNL     1     -12.980  13.614  71.761  1.00  0.00    -0.441 C  
HETATM   24  C   UNL     1     -12.031  14.733  72.188  1.00  0.00    -0.350 C  
HETATM   25  C   UNL     1     -12.846  15.499  73.215  1.00  0.00    -0.633 C  
HETATM   26  C   UNL     1     -14.257  15.512  72.642  1.00  0.00    -0.397 C  
HETATM   27  C   UNL     1     -14.345  14.314  71.695  1.00  0.00    -0.458 C  
ENDBRANCH  22  23
ENDBRANCH  14  22
ENDBRANCH   2   7
TORSDOF 3
ENDMDL
MODEL       69
REMARK 921   NORMALIZED FREE ENERGY PREDICTED BY IDOCK:   -5.17 KCAL/MOL
REMARK 922        TOTAL FREE ENERGY PREDICTED BY IDOCK:   -6.31 KCAL/MOL
REMARK 923 INTER-LIGAND FREE ENERGY PREDICTED BY IDOCK:   -6.28 KCAL/MOL
REMARK 924 INTRA-LIGAND FREE ENERGY PREDICTED BY IDOCK:   -0.03 KCAL/MOL
REMARK 927      BINDING AFFINITY PREDICTED BY RF-SCORE:    0.00 PKD
ROOT
HETATM    1  N   UNL     1     -11.951  10.617  69.235  1.00  0.00    -0.510 N  
HETATM    2  S   UNL     1     -10.501  10.504  68.396  1.00  0.00    -0.201 S  
HETATM    3  H2  UNL     1     -12.097  10.505  70.238  1.00  0.00     0.000 HD 
HETATM    4  H1  UNL     1     -12.654  10.821  68.524  1.00  0.00     0.000 HD 
HETATM    5  O   UNL     1      -9.503  10.215  69.404  1.00  0.00    -0.204 OA 
HETATM    6  O   UNL     1     -10.716   9.636  67.272  1.00  0.00    -0.263 OA 
ENDROOT
BRANCH   2   7
HETATM    7  C   UNL     1     -10.261  12.154  67.813  1.00  0.00    -0.201 A  
HETATM    8  C   UNL     1     -10.658  13.220  68.627  1.00  0.00    -0.264 A  
HETATM    9  C   UNL     1     -10.478  14.531  68.169  1.00  0.00    -0.239 A  
HETATM   10  C   UNL     1      -9.904  14.824  66.930  1.00  0.00    -0.243 A  
HETATM   11  N   UNL     1      -9.629  16.127  66.517  1.00  0.00    -0.245 NA 
HETATM   12  C   UNL     1      -9.493  13.738  66.145  1.00  0.00    -0.180 A  
HETATM   13  H   UNL     1      -8.864  16.323  65.870  1.00  0.00     0.000 HD 
HETATM   14  C   UNL     1     -10.461  17.196  67.033  1.00  0.00    -0.282 C  
HETATM   15  C   UNL     1      -9.672  12.410  66.571  1.00  0.00    -0.240 A  
HETATM   16  N   UNL     1     -10.288  17.198  68.464  1.00  0.00    -0.341 N  
HETATM   17 CL   UNL     1      -9.136  11.175  65.486  1.00  0.00    -0.220 Cl 
HETATM   18  O   UNL     1     -10.299  15.714  70.477  1.00  0.00    -0.240 OA 
HETATM   19  S   UNL     1     -10.971  15.867  69.207  1.00  0.00    -0.320 S  
HETATM   20  O   UNL     1     -12.406  15.977  69.095  1.00  0.00    -0.116 OA 
HETATM   21  H   UNL     1      -9.799  17.937  68.970  1.00  0.00     0.000 HD 
BRANCH  14  22
HETATM   22  C   UNL     1      -9.986  18.553  66.485  1.00  0.00    -0.401 C  
BRANCH  22  23
HETATM   23  C   UNL     1      -8.609  18.990  67.007  1.00  0.00    -0.308 C  
HETATM   24  C   UNL     1      -7.489  18.905  65.972  1.00  0.00    -0.273 C  
HETATM   25  C   UNL     1      -6.404  19.784  66.570  1.00  0.00    -0.186 C  
HETATM   26  C   UNL     1      -7.162  20.962  67.169  1.00  0.00    -0.395 C  
HETATM   27  C   UNL     1      -8.583  20.464  67.438  1.00  0.00    -0.403 C  
ENDBRANCH  22  23
ENDBRANCH  14  22
ENDBRANCH   2   7
TORSDOF 3
ENDMDL
MODEL       70
REMARK 921   NORMALIZED FREE ENERGY PREDICTED BY IDOCK:   -5.17 KCAL/MOL
REMARK 922        TOTAL FREE ENERGY PREDICTED BY IDOCK:   -6.31 KCAL/MOL
REMARK 923 INTER-LIGAND FREE ENERGY PREDICTED BY IDOCK:   -6.02 KCAL/MOL
REMARK 924 INTRA-LIGAND FREE ENERGY PREDICTED BY IDOCK:   -0.29 KCAL/MOL
REMARK 927      BINDING AFFINITY PREDICTED BY RF-SCORE:    0.00 PKD
ROOT
HETATM    1  N   UNL     1     -10.703  15.096  64.896  1.00  0.00    -0.519 N  
HETATM    2  S   UNL     1     -11.771  14.204  65.836  1.00  0.00    -0.377 S  
HETATM    3  H2  UNL     1     -10.096  15.857  65.201  1.00  0.00     0.000 HD 
HETATM    4  H1  UNL     1     -10.793  14.712  63.956  1.00  0.00     0.000 HD 
HETATM    5  O   UNL     1     -11.644  14.749  67.171  1.00  0.00    -0.370 OA 
HETATM    6  O   UNL     1     -13.032  14.172  65.149  1.00  0.00    -0.729 OA 
ENDROOT
BRANCH   2   7
HETATM    7  C   UNL     1     -11.058  12.589  65.808  1.00  0.00    -0.308 A  
HETATM    8  C   UNL     1     -10.602  12.034  67.009  1.00  0.00    -0.258 A  
HETATM    9  C   UNL     1     -10.028  10.756  66.994  1.00  0.00    -0.197 A  
HETATM   10  C   UNL     1      -9.901  10.001  65.826  1.00  0.00    -0.278 A  
HETATM   11  N   UNL     1      -9.425   8.690  65.827  1.00  0.00    -0.428 NA 
HETATM   12  C   UNL     1     -10.388  10.571  64.643  1.00  0.00    -0.290 A  
HETATM   13  H   UNL     1      -9.724   8.023  65.114  1.00  0.00     0.000 HD 
HETATM   14  C   UNL     1      -8.495   8.302  66.867  1.00  0.00    -0.118 C  
HETATM   15  C   UNL     1     -10.957  11.857  64.621  1.00  0.00    -0.316 A  
HETATM   16  N   UNL     1      -9.189   8.462  68.120  1.00  0.00    -0.138 N  
HETATM   17 CL   UNL     1     -11.494  12.436  63.083  1.00  0.00    -0.382 Cl 
HETATM   18  O   UNL     1     -10.574  10.072  69.443  1.00  0.00    -0.204 OA 
HETATM   19  S   UNL     1      -9.467  10.062  68.513  1.00  0.00    -0.152 S  
HETATM   20  O   UNL     1      -8.196  10.678  68.813  1.00  0.00    -0.125 OA 
HETATM   21  H   UNL     1      -9.480   7.680  68.707  1.00  0.00     0.000 HD 
BRANCH  14  22
HETATM   22  C   UNL     1      -8.111   6.820  66.713  1.00  0.00    -0.109 C  
BRANCH  22  23
HETATM   23  C   UNL     1      -8.988   6.047  65.717  1.00  0.00    -0.116 C  
HETATM   24  C   UNL     1      -8.204   5.224  64.697  1.00  0.00    -0.134 C  
HETATM   25  C   UNL     1      -9.245   4.252  64.170  1.00  0.00    -0.150 C  
HETATM   26  C   UNL     1     -10.053   3.862  65.400  1.00  0.00    -0.099 C  
HETATM   27  C   UNL     1      -9.880   5.003  66.405  1.00  0.00    -0.218 C  
ENDBRANCH  22  23
ENDBRANCH  14  22
ENDBRANCH   2   7
TORSDOF 3
ENDMDL
MODEL       71
REMARK 921   NORMALIZED FREE ENERGY PREDICTED BY IDOCK:   -5.16 KCAL/MOL
REMARK 922        TOTAL FREE ENERGY PREDICTED BY IDOCK:   -6.31 KCAL/MOL
REMARK 923 INTER-LIGAND FREE ENERGY PREDICTED BY IDOCK:   -5.92 KCAL/MOL
REMARK 924 INTRA-LIGAND FREE ENERGY PREDICTED BY IDOCK:   -0.38 KCAL/MOL
REMARK 927      BINDING AFFINITY PREDICTED BY RF-SCORE:    0.00 PKD
ROOT
HETATM    1  N   UNL     1     -13.072   8.126  72.267  1.00  0.00    -0.525 N  
HETATM    2  S   UNL     1     -11.589   7.380  72.012  1.00  0.00    -0.295 S  
HETATM    3  H2  UNL     1     -13.470   8.426  73.158  1.00  0.00     0.000 HD 
HETATM    4  H1  UNL     1     -13.488   8.213  71.340  1.00  0.00     0.000 HD 
HETATM    5  O   UNL     1     -10.998   7.256  73.328  1.00  0.00    -0.352 OA 
HETATM    6  O   UNL     1     -11.817   6.237  71.174  1.00  0.00    -0.305 OA 
ENDROOT
BRANCH   2   7
HETATM    7  C   UNL     1     -10.695   8.597  71.098  1.00  0.00    -0.240 A  
HETATM    8  C   UNL     1     -11.388   9.702  70.591  1.00  0.00    -0.379 A  
HETATM    9  C   UNL     1     -10.687  10.669  69.858  1.00  0.00    -0.204 A  
HETATM   10  C   UNL     1      -9.314  10.583  69.619  1.00  0.00     0.023 A  
HETATM   11  N   UNL     1      -8.598  11.595  68.980  1.00  0.00    -0.371 NA 
HETATM   12  C   UNL     1      -8.641   9.480  70.159  1.00  0.00    -0.250 A  
HETATM   13  H   UNL     1      -7.608  11.746  69.181  1.00  0.00     0.000 HD 
HETATM   14  C   UNL     1      -9.298  12.426  68.022  1.00  0.00    -0.204 C  
HETATM   15  C   UNL     1      -9.317   8.485  70.888  1.00  0.00    -0.174 A  
HETATM   16  N   UNL     1     -10.348  13.095  68.747  1.00  0.00    -0.393 N  
HETATM   17 CL   UNL     1      -8.357   7.172  71.474  1.00  0.00    -0.111 Cl 
HETATM   18  O   UNL     1     -12.233  12.702  70.344  1.00  0.00    -0.349 OA 
HETATM   19  S   UNL     1     -11.568  12.061  69.232  1.00  0.00    -0.339 S  
HETATM   20  O   UNL     1     -12.275  11.617  68.055  1.00  0.00    -0.551 OA 
HETATM   21  H   UNL     1     -10.348  14.096  68.943  1.00  0.00     0.000 HD 
BRANCH  14  22
HETATM   22  C   UNL     1      -8.349  13.493  67.449  1.00  0.00    -0.199 C  
BRANCH  22  23
HETATM   23  C   UNL     1      -7.553  14.259  68.515  1.00  0.00    -0.127 C  
HETATM   24  C   UNL     1      -6.059  14.377  68.219  1.00  0.00    -0.119 C  
HETATM   25  C   UNL     1      -5.619  15.511  69.129  1.00  0.00    -0.104 C  
HETATM   26  C   UNL     1      -6.762  16.514  69.060  1.00  0.00    -0.200 C  
HETATM   27  C   UNL     1      -8.004  15.721  68.651  1.00  0.00    -0.155 C  
ENDBRANCH  22  23
ENDBRANCH  14  22
ENDBRANCH   2   7
TORSDOF 3
ENDMDL
MODEL       72
REMARK 921   NORMALIZED FREE ENERGY PREDICTED BY IDOCK:   -5.15 KCAL/MOL
REMARK 922        TOTAL FREE ENERGY PREDICTED BY IDOCK:   -6.30 KCAL/MOL
REMARK 923 INTER-LIGAND FREE ENERGY PREDICTED BY IDOCK:   -6.12 KCAL/MOL
REMARK 924 INTRA-LIGAND FREE ENERGY PREDICTED BY IDOCK:   -0.18 KCAL/MOL
REMARK 927      BINDING AFFINITY PREDICTED BY RF-SCORE:    0.00 PKD
ROOT
HETATM    1  N   UNL     1      -7.996   5.289  72.685  1.00  0.00    -0.102 N  
HETATM    2  S   UNL     1      -9.277   4.826  71.702  1.00  0.00    -0.142 S  
HETATM    3  H2  UNL     1      -7.004   5.104  72.537  1.00  0.00     0.000 HD 
HETATM    4  H1  UNL     1      -8.425   5.795  73.459  1.00  0.00     0.000 HD 
HETATM    5  O   UNL     1      -8.668   4.108  70.602  1.00  0.00    -0.073 OA 
HETATM    6  O   UNL     1     -10.272   4.221  72.543  1.00  0.00    -0.166 OA 
ENDROOT
BRANCH   2   7
HETATM    7  C   UNL     1      -9.887   6.372  71.106  1.00  0.00    -0.179 A  
HETATM    8  C   UNL     1      -9.811   6.642  69.736  1.00  0.00    -0.174 A  
HETATM    9  C   UNL     1     -10.287   7.870  69.256  1.00  0.00    -0.220 A  
HETATM   10  C   UNL     1     -10.849   8.838  70.090  1.00  0.00    -0.227 A  
HETATM   11  N   UNL     1     -11.415  10.015  69.601  1.00  0.00    -0.402 NA 
HETATM   12  C   UNL     1     -10.935   8.531  71.455  1.00  0.00    -0.329 A  
HETATM   13  H   UNL     1     -12.170  10.483  70.105  1.00  0.00     0.000 HD 
HETATM   14  C   UNL     1     -10.903  10.554  68.358  1.00  0.00    -0.240 C  
HETATM   15  C   UNL     1     -10.454   7.314  71.970  1.00  0.00    -0.201 A  
HETATM   16  N   UNL     1     -11.147   9.557  67.346  1.00  0.00    -0.362 N  
HETATM   17 CL   UNL     1     -10.609   7.086  73.677  1.00  0.00    -0.406 Cl 
HETATM   18  O   UNL     1     -10.875   7.123  66.835  1.00  0.00    -0.352 OA 
HETATM   19  S   UNL     1     -10.196   8.196  67.526  1.00  0.00    -0.264 S  
HETATM   20  O   UNL     1      -8.829   8.562  67.239  1.00  0.00    -0.128 OA 
HETATM   21  H   UNL     1     -11.830   9.671  66.596  1.00  0.00     0.000 HD 
BRANCH  14  22
HETATM   22  C   UNL     1     -11.671  11.831  67.974  1.00  0.00    -0.363 C  
BRANCH  22  23
HETATM   23  C   UNL     1     -11.199  12.473  66.662  1.00  0.00    -0.357 C  
HETATM   24  C   UNL     1     -12.331  12.889  65.724  1.00  0.00    -0.437 C  
HETATM   25  C   UNL     1     -11.650  13.861  64.776  1.00  0.00    -0.383 C  
HETATM   26  C   UNL     1     -10.710  14.660  65.669  1.00  0.00    -0.340 C  
HETATM   27  C   UNL     1     -10.428  13.782  66.889  1.00  0.00    -0.272 C  
ENDBRANCH  22  23
ENDBRANCH  14  22
ENDBRANCH   2   7
TORSDOF 3
ENDMDL
MODEL       73
REMARK 921   NORMALIZED FREE ENERGY PREDICTED BY IDOCK:   -5.13 KCAL/MOL
REMARK 922        TOTAL FREE ENERGY PREDICTED BY IDOCK:   -6.27 KCAL/MOL
REMARK 923 INTER-LIGAND FREE ENERGY PREDICTED BY IDOCK:   -6.05 KCAL/MOL
REMARK 924 INTRA-LIGAND FREE ENERGY PREDICTED BY IDOCK:   -0.22 KCAL/MOL
REMARK 927      BINDING AFFINITY PREDICTED BY RF-SCORE:    0.00 PKD
ROOT
HETATM    1  N   UNL     1      -9.144   7.879  65.274  1.00  0.00    -0.372 N  
HETATM    2  S   UNL     1      -9.419   7.862  66.930  1.00  0.00    -0.206 S  
HETATM    3  H2  UNL     1      -9.824   7.716  64.531  1.00  0.00     0.000 HD 
HETATM    4  H1  UNL     1      -8.151   8.089  65.171  1.00  0.00     0.000 HD 
HETATM    5  O   UNL     1     -10.828   7.564  67.075  1.00  0.00    -0.348 OA 
HETATM    6  O   UNL     1      -8.406   7.039  67.529  1.00  0.00    -0.118 OA 
ENDROOT
BRANCH   2   7
HETATM    7  C   UNL     1      -9.141   9.544  67.387  1.00  0.00    -0.130 A  
HETATM    8  C   UNL     1     -10.217  10.297  67.871  1.00  0.00    -0.217 A  
HETATM    9  C   UNL     1     -10.007  11.635  68.230  1.00  0.00    -0.201 A  
HETATM   10  C   UNL     1      -8.757  12.252  68.136  1.00  0.00    -0.186 A  
HETATM   11  N   UNL     1      -8.524  13.550  68.589  1.00  0.00    -0.337 NA 
HETATM   12  C   UNL     1      -7.693  11.468  67.672  1.00  0.00    -0.123 A  
HETATM   13  H   UNL     1      -7.601  13.833  68.918  1.00  0.00     0.000 HD 
HETATM   14  C   UNL     1      -9.631  14.485  68.578  1.00  0.00    -0.220 C  
HETATM   15  C   UNL     1      -7.874  10.127  67.291  1.00  0.00    -0.103 A  
HETATM   16  N   UNL     1     -10.636  13.944  69.458  1.00  0.00    -0.441 N  
HETATM   17 CL   UNL     1      -6.472   9.293  66.717  1.00  0.00    -0.066 Cl 
HETATM   18  O   UNL     1     -11.917  11.859  69.979  1.00  0.00    -0.322 OA 
HETATM   19  S   UNL     1     -11.366  12.570  68.847  1.00  0.00    -0.316 S  
HETATM   20  O   UNL     1     -12.164  12.954  67.707  1.00  0.00    -0.243 OA 
HETATM   21  H   UNL     1     -10.878  14.356  70.359  1.00  0.00     0.000 HD 
BRANCH  14  22
HETATM   22  C   UNL     1      -9.183  15.847  69.137  1.00  0.00    -0.253 C  
BRANCH  22  23
HETATM   23  C   UNL     1      -9.256  16.994  68.119  1.00  0.00    -0.244 C  
HETATM   24  C   UNL     1     -10.098  16.685  66.883  1.00  0.00    -0.280 C  
HETATM   25  C   UNL     1     -10.375  18.061  66.304  1.00  0.00    -0.384 C  
HETATM   26  C   UNL     1     -10.624  18.939  67.523  1.00  0.00    -0.524 C  
HETATM   27  C   UNL     1      -9.922  18.252  68.696  1.00  0.00    -0.410 C  
ENDBRANCH  22  23
ENDBRANCH  14  22
ENDBRANCH   2   7
TORSDOF 3
ENDMDL
MODEL       74
REMARK 921   NORMALIZED FREE ENERGY PREDICTED BY IDOCK:   -5.12 KCAL/MOL
REMARK 922        TOTAL FREE ENERGY PREDICTED BY IDOCK:   -6.26 KCAL/MOL
REMARK 923 INTER-LIGAND FREE ENERGY PREDICTED BY IDOCK:   -6.15 KCAL/MOL
REMARK 924 INTRA-LIGAND FREE ENERGY PREDICTED BY IDOCK:   -0.11 KCAL/MOL
REMARK 927      BINDING AFFINITY PREDICTED BY RF-SCORE:    0.00 PKD
ROOT
HETATM    1  N   UNL     1     -12.554  14.263  66.672  1.00  0.00    -0.495 N  
HETATM    2  S   UNL     1     -11.154  14.328  67.596  1.00  0.00    -0.304 S  
HETATM    3  H2  UNL     1     -12.637  14.001  65.689  1.00  0.00     0.000 HD 
HETATM    4  H1  UNL     1     -13.304  14.541  67.305  1.00  0.00     0.000 HD 
HETATM    5  O   UNL     1     -10.090  13.933  66.698  1.00  0.00    -0.261 OA 
HETATM    6  O   UNL     1     -11.140  15.593  68.275  1.00  0.00    -0.304 OA 
ENDROOT
BRANCH   2   7
HETATM    7  C   UNL     1     -11.409  13.042  68.778  1.00  0.00    -0.289 A  
HETATM    8  C   UNL     1     -10.763  11.816  68.590  1.00  0.00    -0.252 A  
HETATM    9  C   UNL     1     -10.966  10.787  69.519  1.00  0.00    -0.266 A  
HETATM   10  C   UNL     1     -11.782  10.938  70.642  1.00  0.00    -0.316 A  
HETATM   11  N   UNL     1     -11.903   9.952  71.621  1.00  0.00    -0.359 NA 
HETATM   12  C   UNL     1     -12.398  12.184  70.820  1.00  0.00    -0.391 A  
HETATM   13  H   UNL     1     -12.117  10.197  72.589  1.00  0.00     0.000 HD 
HETATM   14  C   UNL     1     -11.717   8.571  71.226  1.00  0.00    -0.284 C  
HETATM   15  C   UNL     1     -12.225  13.231  69.898  1.00  0.00    -0.246 A  
HETATM   16  N   UNL     1     -10.367   8.462  70.732  1.00  0.00    -0.192 N  
HETATM   17 CL   UNL     1     -13.066  14.703  70.239  1.00  0.00    -0.176 Cl 
HETATM   18  O   UNL     1      -8.722   9.520  69.173  1.00  0.00    -0.133 OA 
HETATM   19  S   UNL     1     -10.138   9.251  69.277  1.00  0.00    -0.208 S  
HETATM   20  O   UNL     1     -10.870   8.535  68.259  1.00  0.00    -0.084 OA 
HETATM   21  H   UNL     1      -9.628   7.956  71.221  1.00  0.00     0.000 HD 
BRANCH  14  22
HETATM   22  C   UNL     1     -11.862   7.643  72.445  1.00  0.00    -0.336 C  
BRANCH  22  23
HETATM   23  C   UNL     1     -10.646   6.739  72.691  1.00  0.00    -0.252 C  
HETATM   24  C   UNL     1     -10.099   6.797  74.116  1.00  0.00    -0.381 C  
HETATM   25  C   UNL     1      -9.253   5.539  74.208  1.00  0.00    -0.123 C  
HETATM   26  C   UNL     1     -10.061   4.486  73.461  1.00  0.00    -0.200 C  
HETATM   27  C   UNL     1     -10.969   5.250  72.496  1.00  0.00    -0.298 C  
ENDBRANCH  22  23
ENDBRANCH  14  22
ENDBRANCH   2   7
TORSDOF 3
ENDMDL
MODEL       75
REMARK 921   NORMALIZED FREE ENERGY PREDICTED BY IDOCK:   -5.12 KCAL/MOL
REMARK 922        TOTAL FREE ENERGY PREDICTED BY IDOCK:   -6.26 KCAL/MOL
REMARK 923 INTER-LIGAND FREE ENERGY PREDICTED BY IDOCK:   -6.41 KCAL/MOL
REMARK 924 INTRA-LIGAND FREE ENERGY PREDICTED BY IDOCK:    0.15 KCAL/MOL
REMARK 927      BINDING AFFINITY PREDICTED BY RF-SCORE:    0.00 PKD
ROOT
HETATM    1  N   UNL     1     -10.075  13.496  64.441  1.00  0.00    -0.665 N  
HETATM    2  S   UNL     1     -10.455  11.954  63.895  1.00  0.00    -0.443 S  
HETATM    3  H2  UNL     1     -10.699  14.301  64.507  1.00  0.00     0.000 HD 
HETATM    4  H1  UNL     1      -9.088  13.452  64.693  1.00  0.00     0.000 HD 
HETATM    5  O   UNL     1     -11.857  12.015  63.538  1.00  0.00    -0.466 OA 
HETATM    6  O   UNL     1      -9.449  11.570  62.945  1.00  0.00    -0.381 OA 
ENDROOT
BRANCH   2   7
HETATM    7  C   UNL     1     -10.279  10.972  65.352  1.00  0.00    -0.274 A  
HETATM    8  C   UNL     1      -9.488   9.820  65.295  1.00  0.00    -0.343 A  
HETATM    9  C   UNL     1      -9.349   9.031  66.444  1.00  0.00    -0.206 A  
HETATM   10  C   UNL     1      -9.961   9.353  67.657  1.00  0.00    -0.190 A  
HETATM   11  N   UNL     1      -9.740   8.626  68.827  1.00  0.00    -0.163 NA 
HETATM   12  C   UNL     1     -10.728  10.525  67.692  1.00  0.00    -0.324 A  
HETATM   13  H   UNL     1      -9.811   9.072  69.743  1.00  0.00     0.000 HD 
HETATM   14  C   UNL     1      -9.408   7.222  68.706  1.00  0.00    -0.143 C  
HETATM   15  C   UNL     1     -10.898  11.332  66.553  1.00  0.00    -0.265 A  
HETATM   16  N   UNL     1      -8.171   7.154  67.969  1.00  0.00    -0.119 N  
HETATM   17 CL   UNL     1     -11.889  12.735  66.744  1.00  0.00    -0.460 Cl 
HETATM   18  O   UNL     1      -7.030   7.985  65.904  1.00  0.00    -0.056 OA 
HETATM   19  S   UNL     1      -8.342   7.587  66.364  1.00  0.00    -0.133 S  
HETATM   20  O   UNL     1      -9.121   6.567  65.704  1.00  0.00    -0.059 OA 
HETATM   21  H   UNL     1      -7.283   6.870  68.384  1.00  0.00     0.000 HD 
BRANCH  14  22
HETATM   22  C   UNL     1      -9.177   6.606  70.097  1.00  0.00    -0.155 C  
BRANCH  22  23
HETATM   23  C   UNL     1     -10.429   6.584  70.986  1.00  0.00    -0.260 C  
HETATM   24  C   UNL     1     -10.603   7.829  71.855  1.00  0.00    -0.270 C  
HETATM   25  C   UNL     1     -12.067   7.763  72.255  1.00  0.00    -0.332 C  
HETATM   26  C   UNL     1     -12.779   7.280  70.998  1.00  0.00    -0.284 C  
HETATM   27  C   UNL     1     -11.730   6.536  70.171  1.00  0.00    -0.419 C  
ENDBRANCH  22  23
ENDBRANCH  14  22
ENDBRANCH   2   7
TORSDOF 3
ENDMDL
MODEL       76
REMARK 921   NORMALIZED FREE ENERGY PREDICTED BY IDOCK:   -5.07 KCAL/MOL
REMARK 922        TOTAL FREE ENERGY PREDICTED BY IDOCK:   -6.20 KCAL/MOL
REMARK 923 INTER-LIGAND FREE ENERGY PREDICTED BY IDOCK:   -5.85 KCAL/MOL
REMARK 924 INTRA-LIGAND FREE ENERGY PREDICTED BY IDOCK:   -0.34 KCAL/MOL
REMARK 927      BINDING AFFINITY PREDICTED BY RF-SCORE:    0.00 PKD
ROOT
HETATM    1  N   UNL     1      -9.788  11.302  62.941  1.00  0.00    -0.562 N  
HETATM    2  S   UNL     1     -10.800  12.181  63.951  1.00  0.00    -0.452 S  
HETATM    3  H2  UNL     1      -8.890  11.596  62.555  1.00  0.00     0.000 HD 
HETATM    4  H1  UNL     1     -10.264  10.412  62.796  1.00  0.00     0.000 HD 
HETATM    5  O   UNL     1     -10.124  13.445  64.157  1.00  0.00    -0.338 OA 
HETATM    6  O   UNL     1     -12.126  12.113  63.404  1.00  0.00    -0.503 OA 
ENDROOT
BRANCH   2   7
HETATM    7  C   UNL     1     -10.747  11.256  65.454  1.00  0.00    -0.227 A  
HETATM    8  C   UNL     1     -10.072  10.030  65.467  1.00  0.00    -0.325 A  
HETATM    9  C   UNL     1     -10.032   9.286  66.653  1.00  0.00    -0.264 A  
HETATM   10  C   UNL     1     -10.631   9.723  67.836  1.00  0.00    -0.259 A  
HETATM   11  N   UNL     1     -10.504   9.034  69.042  1.00  0.00    -0.223 NA 
HETATM   12  C   UNL     1     -11.280  10.965  67.802  1.00  0.00    -0.384 A  
HETATM   13  H   UNL     1     -10.547   9.526  69.935  1.00  0.00     0.000 HD 
HETATM   14  C   UNL     1     -10.309   7.599  68.991  1.00  0.00    -0.213 C  
HETATM   15  C   UNL     1     -11.349  11.729  66.624  1.00  0.00    -0.316 A  
HETATM   16  N   UNL     1      -9.072   7.377  68.286  1.00  0.00    -0.129 N  
HETATM   17 CL   UNL     1     -12.201  13.230  66.730  1.00  0.00    -0.388 Cl 
HETATM   18  O   UNL     1      -7.818   7.996  66.212  1.00  0.00    -0.095 OA 
HETATM   19  S   UNL     1      -9.170   7.749  66.660  1.00  0.00    -0.186 S  
HETATM   20  O   UNL     1     -10.034   6.780  66.029  1.00  0.00     0.126 OA 
HETATM   21  H   UNL     1      -8.224   7.027  68.733  1.00  0.00     0.000 HD 
BRANCH  14  22
HETATM   22  C   UNL     1     -10.165   7.030  70.413  1.00  0.00    -0.209 C  
BRANCH  22  23
HETATM   23  C   UNL     1      -9.209   7.828  71.312  1.00  0.00    -0.158 C  
HETATM   24  C   UNL     1      -9.646   7.915  72.773  1.00  0.00    -0.311 C  
HETATM   25  C   UNL     1      -8.371   8.325  73.488  1.00  0.00    -0.259 C  
HETATM   26  C   UNL     1      -7.276   7.529  72.790  1.00  0.00    -0.080 C  
HETATM   27  C   UNL     1      -7.813   7.193  71.397  1.00  0.00    -0.097 C  
ENDBRANCH  22  23
ENDBRANCH  14  22
ENDBRANCH   2   7
TORSDOF 3
ENDMDL
MODEL       77
REMARK 921   NORMALIZED FREE ENERGY PREDICTED BY IDOCK:   -5.06 KCAL/MOL
REMARK 922        TOTAL FREE ENERGY PREDICTED BY IDOCK:   -6.19 KCAL/MOL
REMARK 923 INTER-LIGAND FREE ENERGY PREDICTED BY IDOCK:   -6.24 KCAL/MOL
REMARK 924 INTRA-LIGAND FREE ENERGY PREDICTED BY IDOCK:    0.05 KCAL/MOL
REMARK 927      BINDING AFFINITY PREDICTED BY RF-SCORE:    0.00 PKD
ROOT
HETATM    1  N   UNL     1      -9.946   9.059  65.334  1.00  0.00    -0.298 N  
HETATM    2  S   UNL     1      -9.196  10.181  64.335  1.00  0.00    -0.279 S  
HETATM    3  H2  UNL     1      -9.499   8.403  65.974  1.00  0.00     0.000 HD 
HETATM    4  H1  UNL     1     -10.945   9.177  65.163  1.00  0.00     0.000 HD 
HETATM    5  O   UNL     1      -7.778  10.014  64.578  1.00  0.00    -0.138 OA 
HETATM    6  O   UNL     1      -9.760  10.038  63.022  1.00  0.00    -0.193 OA 
ENDROOT
BRANCH   2   7
HETATM    7  C   UNL     1      -9.715  11.722  65.022  1.00  0.00    -0.187 A  
HETATM    8  C   UNL     1      -8.913  12.329  65.994  1.00  0.00     0.060 A  
HETATM    9  C   UNL     1      -9.321  13.549  66.550  1.00  0.00    -0.215 A  
HETATM   10  C   UNL     1     -10.497  14.196  66.164  1.00  0.00    -0.296 A  
HETATM   11  N   UNL     1     -10.852  15.458  66.640  1.00  0.00    -0.311 NA 
HETATM   12  C   UNL     1     -11.268  13.578  65.171  1.00  0.00    -0.320 A  
HETATM   13  H   UNL     1     -11.423  16.090  66.077  1.00  0.00     0.000 HD 
HETATM   14  C   UNL     1     -10.386  15.847  67.955  1.00  0.00    -0.262 C  
HETATM   15  C   UNL     1     -10.893  12.348  64.603  1.00  0.00    -0.309 A  
HETATM   16  N   UNL     1      -8.946  15.845  67.900  1.00  0.00    -0.181 N  
HETATM   17 CL   UNL     1     -11.956  11.697  63.404  1.00  0.00    -0.444 Cl 
HETATM   18  O   UNL     1      -6.978  14.468  67.201  1.00  0.00    -0.190 OA 
HETATM   19  S   UNL     1      -8.299  14.310  67.766  1.00  0.00    -0.187 S  
HETATM   20  O   UNL     1      -8.535  13.614  69.009  1.00  0.00     0.094 OA 
HETATM   21  H   UNL     1      -8.380  16.693  67.938  1.00  0.00     0.000 HD 
BRANCH  14  22
HETATM   22  C   UNL     1     -10.856  17.274  68.287  1.00  0.00    -0.287 C  
BRANCH  22  23
HETATM   23  C   UNL     1      -9.987  18.378  67.667  1.00  0.00    -0.355 C  
HETATM   24  C   UNL     1     -10.476  18.871  66.305  1.00  0.00    -0.510 C  
HETATM   25  C   UNL     1      -9.759  20.200  66.146  1.00  0.00    -0.481 C  
HETATM   26  C   UNL     1      -9.799  20.819  67.537  1.00  0.00    -0.409 C  
HETATM   27  C   UNL     1      -9.961  19.656  68.518  1.00  0.00    -0.542 C  
ENDBRANCH  22  23
ENDBRANCH  14  22
ENDBRANCH   2   7
TORSDOF 3
ENDMDL
MODEL       78
REMARK 921   NORMALIZED FREE ENERGY PREDICTED BY IDOCK:   -5.06 KCAL/MOL
REMARK 922        TOTAL FREE ENERGY PREDICTED BY IDOCK:   -6.18 KCAL/MOL
REMARK 923 INTER-LIGAND FREE ENERGY PREDICTED BY IDOCK:   -6.35 KCAL/MOL
REMARK 924 INTRA-LIGAND FREE ENERGY PREDICTED BY IDOCK:    0.16 KCAL/MOL
REMARK 927      BINDING AFFINITY PREDICTED BY RF-SCORE:    0.00 PKD
ROOT
HETATM    1  N   UNL     1      -8.782   8.068  62.909  1.00  0.00    -0.385 N  
HETATM    2  S   UNL     1      -8.142   9.349  63.785  1.00  0.00    -0.167 S  
HETATM    3  H2  UNL     1      -8.306   7.211  62.627  1.00  0.00     0.000 HD 
HETATM    4  H1  UNL     1      -9.749   8.333  62.720  1.00  0.00     0.000 HD 
HETATM    5  O   UNL     1      -6.770   8.974  64.054  1.00  0.00    -0.086 OA 
HETATM    6  O   UNL     1      -8.472  10.561  63.087  1.00  0.00    -0.167 OA 
ENDROOT
BRANCH   2   7
HETATM    7  C   UNL     1      -9.057   9.284  65.293  1.00  0.00    -0.215 A  
HETATM    8  C   UNL     1      -9.704  10.442  65.739  1.00  0.00    -0.285 A  
HETATM    9  C   UNL     1     -10.426  10.401  66.938  1.00  0.00    -0.240 A  
HETATM   10  C   UNL     1     -10.540   9.242  67.709  1.00  0.00    -0.246 A  
HETATM   11  N   UNL     1     -11.343   9.173  68.848  1.00  0.00    -0.322 NA 
HETATM   12  C   UNL     1      -9.903   8.091  67.227  1.00  0.00    -0.258 A  
HETATM   13  H   UNL     1     -11.762   8.289  69.141  1.00  0.00     0.000 HD 
HETATM   14  C   UNL     1     -11.565  10.389  69.602  1.00  0.00    -0.239 C  
HETATM   15  C   UNL     1      -9.160   8.103  66.034  1.00  0.00    -0.167 A  
HETATM   16  N   UNL     1     -12.232  11.308  68.714  1.00  0.00    -0.233 N  
HETATM   17 CL   UNL     1      -8.413   6.612  65.578  1.00  0.00    -0.150 Cl 
HETATM   18  O   UNL     1     -12.119  12.306  66.422  1.00  0.00    -0.623 OA 
HETATM   19  S   UNL     1     -11.245  11.862  67.485  1.00  0.00    -0.317 S  
HETATM   20  O   UNL     1     -10.237  12.715  68.069  1.00  0.00    -0.217 OA 
HETATM   21  H   UNL     1     -13.206  11.591  68.824  1.00  0.00     0.000 HD 
BRANCH  14  22
HETATM   22  C   UNL     1     -12.492  10.113  70.798  1.00  0.00    -0.417 C  
BRANCH  22  23
HETATM   23  C   UNL     1     -11.909   9.136  71.828  1.00  0.00    -0.453 C  
HETATM   24  C   UNL     1     -12.259   7.671  71.572  1.00  0.00    -0.351 C  
HETATM   25  C   UNL     1     -11.234   6.923  72.407  1.00  0.00    -0.303 C  
HETATM   26  C   UNL     1      -9.948   7.718  72.225  1.00  0.00    -0.259 C  
HETATM   27  C   UNL     1     -10.373   9.136  71.837  1.00  0.00    -0.243 C  
ENDBRANCH  22  23
ENDBRANCH  14  22
ENDBRANCH   2   7
TORSDOF 3
ENDMDL
MODEL       79
REMARK 921   NORMALIZED FREE ENERGY PREDICTED BY IDOCK:   -5.02 KCAL/MOL
REMARK 922        TOTAL FREE ENERGY PREDICTED BY IDOCK:   -6.14 KCAL/MOL
REMARK 923 INTER-LIGAND FREE ENERGY PREDICTED BY IDOCK:   -5.68 KCAL/MOL
REMARK 924 INTRA-LIGAND FREE ENERGY PREDICTED BY IDOCK:   -0.46 KCAL/MOL
REMARK 927      BINDING AFFINITY PREDICTED BY RF-SCORE:    0.00 PKD
ROOT
HETATM    1  N   UNL     1     -11.084   9.140  67.924  1.00  0.00    -0.489 N  
HETATM    2  S   UNL     1      -9.526   9.353  67.336  1.00  0.00    -0.134 S  
HETATM    3  H2  UNL     1     -11.357   8.760  68.830  1.00  0.00     0.000 HD 
HETATM    4  H1  UNL     1     -11.697   9.473  67.180  1.00  0.00     0.000 HD 
HETATM    5  O   UNL     1      -8.656   8.880  68.392  1.00  0.00    -0.132 OA 
HETATM    6  O   UNL     1      -9.481   8.795  66.013  1.00  0.00    -0.227 OA 
ENDROOT
BRANCH   2   7
HETATM    7  C   UNL     1      -9.388  11.109  67.227  1.00  0.00    -0.160 A  
HETATM    8  C   UNL     1     -10.532  11.888  67.435  1.00  0.00    -0.242 A  
HETATM    9  C   UNL     1     -10.432  13.283  67.343  1.00  0.00    -0.243 A  
HETATM   10  C   UNL     1      -9.230  13.935  67.062  1.00  0.00    -0.250 A  
HETATM   11  N   UNL     1      -9.108  15.325  67.073  1.00  0.00    -0.212 NA 
HETATM   12  C   UNL     1      -8.096  13.132  66.882  1.00  0.00     0.065 A  
HETATM   13  H   UNL     1      -8.219  15.772  67.298  1.00  0.00     0.000 HD 
HETATM   14  C   UNL     1     -10.280  16.115  66.754  1.00  0.00    -0.281 C  
HETATM   15  C   UNL     1      -8.165  11.730  66.955  1.00  0.00    -0.166 A  
HETATM   16  N   UNL     1     -11.270  15.806  67.755  1.00  0.00    -0.320 N  
HETATM   17 CL   UNL     1      -6.687  10.872  66.690  1.00  0.00    -0.118 Cl 
HETATM   18  O   UNL     1     -12.409  13.904  68.914  1.00  0.00    -0.301 OA 
HETATM   19  S   UNL     1     -11.876  14.255  67.617  1.00  0.00    -0.367 S  
HETATM   20  O   UNL     1     -12.664  14.186  66.409  1.00  0.00    -0.356 OA 
HETATM   21  H   UNL     1     -11.570  16.465  68.473  1.00  0.00     0.000 HD 
BRANCH  14  22
HETATM   22  C   UNL     1      -9.952  17.615  66.845  1.00  0.00    -0.323 C  
BRANCH  22  23
HETATM   23  C   UNL     1      -8.482  17.915  67.170  1.00  0.00    -0.242 C  
HETATM   24  C   UNL     1      -7.753  18.723  66.097  1.00  0.00    -0.274 C  
HETATM   25  C   UNL     1      -6.535  19.251  66.835  1.00  0.00    -0.197 C  
HETATM   26  C   UNL     1      -7.062  19.618  68.216  1.00  0.00    -0.337 C  
HETATM   27  C   UNL     1      -8.320  18.775  68.432  1.00  0.00    -0.373 C  
ENDBRANCH  22  23
ENDBRANCH  14  22
ENDBRANCH   2   7
TORSDOF 3
ENDMDL
MODEL       80
REMARK 921   NORMALIZED FREE ENERGY PREDICTED BY IDOCK:   -5.00 KCAL/MOL
REMARK 922        TOTAL FREE ENERGY PREDICTED BY IDOCK:   -6.12 KCAL/MOL
REMARK 923 INTER-LIGAND FREE ENERGY PREDICTED BY IDOCK:   -5.93 KCAL/MOL
REMARK 924 INTRA-LIGAND FREE ENERGY PREDICTED BY IDOCK:   -0.19 KCAL/MOL
REMARK 927      BINDING AFFINITY PREDICTED BY RF-SCORE:    0.00 PKD
ROOT
HETATM    1  N   UNL     1     -11.113   5.290  65.954  1.00  0.00    -0.800 N  
HETATM    2  S   UNL     1     -10.100   5.645  67.244  1.00  0.00    -0.201 S  
HETATM    3  H2  UNL     1     -12.082   4.971  65.995  1.00  0.00     0.000 HD 
HETATM    4  H1  UNL     1     -10.552   5.461  65.120  1.00  0.00     0.000 HD 
HETATM    5  O   UNL     1     -10.898   5.401  68.428  1.00  0.00    -0.092 OA 
HETATM    6  O   UNL     1      -8.855   4.966  67.019  1.00  0.00    -0.108 OA 
ENDROOT
BRANCH   2   7
HETATM    7  C   UNL     1      -9.849   7.384  67.074  1.00  0.00    -0.209 A  
HETATM    8  C   UNL     1     -10.410   8.242  68.026  1.00  0.00    -0.268 A  
HETATM    9  C   UNL     1     -10.221   9.624  67.893  1.00  0.00    -0.198 A  
HETATM   10  C   UNL     1      -9.481  10.186  66.851  1.00  0.00    -0.169 A  
HETATM   11  N   UNL     1      -9.206  11.551  66.776  1.00  0.00    -0.176 NA 
HETATM   12  C   UNL     1      -8.910   9.303  65.926  1.00  0.00    -0.199 A  
HETATM   13  H   UNL     1      -8.362  11.892  66.314  1.00  0.00     0.000 HD 
HETATM   14  C   UNL     1     -10.152  12.472  67.372  1.00  0.00    -0.210 C  
HETATM   15  C   UNL     1      -9.092   7.912  66.023  1.00  0.00    -0.132 A  
HETATM   16  N   UNL     1     -10.196  12.164  68.779  1.00  0.00    -0.381 N  
HETATM   17 CL   UNL     1      -8.345   6.950  64.796  1.00  0.00    -0.046 Cl 
HETATM   18  O   UNL     1     -10.443  10.275  70.401  1.00  0.00    -0.247 OA 
HETATM   19  S   UNL     1     -10.923  10.695  69.104  1.00  0.00    -0.267 S  
HETATM   20  O   UNL     1     -12.329  10.812  68.796  1.00  0.00    -0.435 OA 
HETATM   21  H   UNL     1      -9.822  12.778  69.503  1.00  0.00     0.000 HD 
BRANCH  14  22
HETATM   22  C   UNL     1      -9.660  13.921  67.210  1.00  0.00    -0.243 C  
BRANCH  22  23
HETATM   23  C   UNL     1     -10.040  14.563  65.868  1.00  0.00    -0.346 C  
HETATM   24  C   UNL     1     -11.452  14.230  65.389  1.00  0.00    -0.332 C  
HETATM   25  C   UNL     1     -11.721  15.301  64.346  1.00  0.00    -0.289 C  
HETATM   26  C   UNL     1     -11.108  16.564  64.937  1.00  0.00    -0.199 C  
HETATM   27  C   UNL     1     -10.039  16.097  65.927  1.00  0.00    -0.379 C  
ENDBRANCH  22  23
ENDBRANCH  14  22
ENDBRANCH   2   7
TORSDOF 3
ENDMDL
MODEL       81
REMARK 921   NORMALIZED FREE ENERGY PREDICTED BY IDOCK:   -4.93 KCAL/MOL
REMARK 922        TOTAL FREE ENERGY PREDICTED BY IDOCK:   -6.03 KCAL/MOL
REMARK 923 INTER-LIGAND FREE ENERGY PREDICTED BY IDOCK:   -5.96 KCAL/MOL
REMARK 924 INTRA-LIGAND FREE ENERGY PREDICTED BY IDOCK:   -0.07 KCAL/MOL
REMARK 927      BINDING AFFINITY PREDICTED BY RF-SCORE:    0.00 PKD
ROOT
HETATM    1  N   UNL     1      -9.571  13.817  65.402  1.00  0.00    -0.532 N  
HETATM    2  S   UNL     1      -9.231  14.062  67.028  1.00  0.00    -0.262 S  
HETATM    3  H2  UNL     1      -8.906  13.634  64.650  1.00  0.00     0.000 HD 
HETATM    4  H1  UNL     1     -10.586  13.891  65.329  1.00  0.00     0.000 HD 
HETATM    5  O   UNL     1      -7.791  13.958  67.132  1.00  0.00    -0.139 OA 
HETATM    6  O   UNL     1      -9.936  15.241  67.446  1.00  0.00    -0.222 OA 
ENDROOT
BRANCH   2   7
HETATM    7  C   UNL     1      -9.962  12.650  67.794  1.00  0.00    -0.218 A  
HETATM    8  C   UNL     1      -9.125  11.660  68.320  1.00  0.00    -0.187 A  
HETATM    9  C   UNL     1      -9.697  10.533  68.923  1.00  0.00    -0.199 A  
HETATM   10  C   UNL     1     -11.078  10.358  69.035  1.00  0.00    -0.248 A  
HETATM   11  N   UNL     1     -11.647   9.289  69.726  1.00  0.00    -0.432 NA 
HETATM   12  C   UNL     1     -11.893  11.377  68.523  1.00  0.00    -0.364 A  
HETATM   13  H   UNL     1     -12.562   9.378  70.170  1.00  0.00     0.000 HD 
HETATM   14  C   UNL     1     -10.903   8.048  69.796  1.00  0.00    -0.194 C  
HETATM   15  C   UNL     1     -11.350  12.514  67.900  1.00  0.00    -0.291 A  
HETATM   16  N   UNL     1      -9.673   8.344  70.487  1.00  0.00    -0.171 N  
HETATM   17 CL   UNL     1     -12.480  13.675  67.297  1.00  0.00    -0.166 Cl 
HETATM   18  O   UNL     1      -7.745   9.937  70.534  1.00  0.00    -0.254 OA 
HETATM   19  S   UNL     1      -8.634   9.296  69.590  1.00  0.00    -0.165 S  
HETATM   20  O   UNL     1      -8.152   8.512  68.478  1.00  0.00    -0.118 OA 
HETATM   21  H   UNL     1      -9.459   8.007  71.426  1.00  0.00     0.000 HD 
BRANCH  14  22
HETATM   22  C   UNL     1     -11.681   7.006  70.619  1.00  0.00    -0.384 C  
BRANCH  22  23
HETATM   23  C   UNL     1     -10.824   6.260  71.652  1.00  0.00    -0.298 C  
HETATM   24  C   UNL     1     -11.620   5.653  72.806  1.00  0.00    -0.289 C  
HETATM   25  C   UNL     1     -10.654   4.637  73.391  1.00  0.00    -0.293 C  
HETATM   26  C   UNL     1      -9.976   4.020  72.175  1.00  0.00    -0.242 C  
HETATM   27  C   UNL     1     -10.095   5.050  71.050  1.00  0.00    -0.297 C  
ENDBRANCH  22  23
ENDBRANCH  14  22
ENDBRANCH   2   7
TORSDOF 3
ENDMDL
MODEL       82
REMARK 921   NORMALIZED FREE ENERGY PREDICTED BY IDOCK:   -4.91 KCAL/MOL
REMARK 922        TOTAL FREE ENERGY PREDICTED BY IDOCK:   -6.01 KCAL/MOL
REMARK 923 INTER-LIGAND FREE ENERGY PREDICTED BY IDOCK:   -5.68 KCAL/MOL
REMARK 924 INTRA-LIGAND FREE ENERGY PREDICTED BY IDOCK:   -0.32 KCAL/MOL
REMARK 927      BINDING AFFINITY PREDICTED BY RF-SCORE:    0.00 PKD
ROOT
HETATM    1  N   UNL     1     -11.134  19.806  67.957  1.00  0.00    -0.063 N  
HETATM    2  S   UNL     1      -9.755  19.840  66.999  1.00  0.00    -0.413 S  
HETATM    3  H2  UNL     1     -12.094  19.992  67.667  1.00  0.00     0.000 HD 
HETATM    4  H1  UNL     1     -10.803  19.559  68.890  1.00  0.00     0.000 HD 
HETATM    5  O   UNL     1     -10.224  20.190  65.675  1.00  0.00    -0.416 OA 
HETATM    6  O   UNL     1      -8.769  20.628  67.686  1.00  0.00    -0.239 OA 
ENDROOT
BRANCH   2   7
HETATM    7  C   UNL     1      -9.243  18.151  66.995  1.00  0.00    -0.270 A  
HETATM    8  C   UNL     1     -10.133  17.176  67.460  1.00  0.00    -0.301 A  
HETATM    9  C   UNL     1      -9.732  15.834  67.467  1.00  0.00    -0.226 A  
HETATM   10  C   UNL     1      -8.477  15.421  67.015  1.00  0.00    -0.231 A  
HETATM   11  N   UNL     1      -8.115  14.077  66.924  1.00  0.00    -0.387 NA 
HETATM   12  C   UNL     1      -7.615  16.414  66.531  1.00  0.00    -0.258 A  
HETATM   13  H   UNL     1      -7.434  13.762  66.232  1.00  0.00     0.000 HD 
HETATM   14  C   UNL     1      -8.733  13.141  67.841  1.00  0.00    -0.192 C  
HETATM   15  C   UNL     1      -7.982  17.772  66.523  1.00  0.00    -0.264 A  
HETATM   16  N   UNL     1     -10.149  13.179  67.576  1.00  0.00    -0.220 N  
HETATM   17 CL   UNL     1      -6.806  18.884  65.917  1.00  0.00    -0.284 Cl 
HETATM   18  O   UNL     1     -12.082  14.739  67.279  1.00  0.00    -0.307 OA 
HETATM   19  S   UNL     1     -10.864  14.614  68.046  1.00  0.00    -0.264 S  
HETATM   20  O   UNL     1     -10.844  14.674  69.489  1.00  0.00    -0.245 OA 
HETATM   21  H   UNL     1     -10.663  12.409  67.145  1.00  0.00     0.000 HD 
BRANCH  14  22
HETATM   22  C   UNL     1      -8.227  11.714  67.566  1.00  0.00    -0.148 C  
BRANCH  22  23
HETATM   23  C   UNL     1      -9.242  10.614  67.913  1.00  0.00    -0.150 C  
HETATM   24  C   UNL     1      -9.424   9.562  66.821  1.00  0.00    -0.217 C  
HETATM   25  C   UNL     1     -10.081   8.410  67.562  1.00  0.00    -0.279 C  
HETATM   26  C   UNL     1      -9.374   8.379  68.911  1.00  0.00    -0.147 C  
HETATM   27  C   UNL     1      -8.819   9.787  69.136  1.00  0.00    -0.160 C  
ENDBRANCH  22  23
ENDBRANCH  14  22
ENDBRANCH   2   7
TORSDOF 3
ENDMDL
MODEL       83
REMARK 921   NORMALIZED FREE ENERGY PREDICTED BY IDOCK:   -4.91 KCAL/MOL
REMARK 922        TOTAL FREE ENERGY PREDICTED BY IDOCK:   -6.00 KCAL/MOL
REMARK 923 INTER-LIGAND FREE ENERGY PREDICTED BY IDOCK:   -6.30 KCAL/MOL
REMARK 924 INTRA-LIGAND FREE ENERGY PREDICTED BY IDOCK:    0.29 KCAL/MOL
REMARK 927      BINDING AFFINITY PREDICTED BY RF-SCORE:    0.00 PKD
ROOT
HETATM    1  N   UNL     1     -10.960  15.108  66.197  1.00  0.00    -0.335 N  
HETATM    2  S   UNL     1     -11.582  13.660  65.619  1.00  0.00    -0.341 S  
HETATM    3  H2  UNL     1     -11.474  15.964  66.407  1.00  0.00     0.000 HD 
HETATM    4  H1  UNL     1      -9.957  14.946  66.293  1.00  0.00     0.000 HD 
HETATM    5  O   UNL     1     -13.006  13.888  65.483  1.00  0.00    -0.673 OA 
HETATM    6  O   UNL     1     -10.772  13.253  64.505  1.00  0.00    -0.368 OA 
ENDROOT
BRANCH   2   7
HETATM    7  C   UNL     1     -11.308  12.554  66.967  1.00  0.00    -0.328 A  
HETATM    8  C   UNL     1     -10.717  11.312  66.710  1.00  0.00    -0.323 A  
HETATM    9  C   UNL     1     -10.503  10.425  67.773  1.00  0.00    -0.226 A  
HETATM   10  C   UNL     1     -10.846  10.734  69.092  1.00  0.00    -0.237 A  
HETATM   11  N   UNL     1     -10.539   9.896  70.164  1.00  0.00    -0.278 NA 
HETATM   12  C   UNL     1     -11.413  11.993  69.324  1.00  0.00    -0.361 A  
HETATM   13  H   UNL     1     -10.386  10.275  71.099  1.00  0.00     0.000 HD 
HETATM   14  C   UNL     1     -10.443   8.473  69.912  1.00  0.00    -0.219 C  
HETATM   15  C   UNL     1     -11.654  12.900  68.277  1.00  0.00    -0.335 A  
HETATM   16  N   UNL     1      -9.373   8.293  68.963  1.00  0.00    -0.147 N  
HETATM   17 CL   UNL     1     -12.380  14.407  68.716  1.00  0.00    -0.185 Cl 
HETATM   18  O   UNL     1      -8.490   9.118  66.772  1.00  0.00    -0.120 OA 
HETATM   19  S   UNL     1      -9.748   8.869  67.439  1.00  0.00    -0.190 S  
HETATM   20  O   UNL     1     -10.770   8.018  66.877  1.00  0.00    -0.322 OA 
HETATM   21  H   UNL     1      -8.480   7.860  69.196  1.00  0.00     0.000 HD 
BRANCH  14  22
HETATM   22  C   UNL     1     -10.073   7.726  71.205  1.00  0.00    -0.203 C  
BRANCH  22  23
HETATM   23  C   UNL     1     -10.327   6.213  71.148  1.00  0.00    -0.257 C  
HETATM   24  C   UNL     1      -9.373   5.450  70.231  1.00  0.00    -0.198 C  
HETATM   25  C   UNL     1      -9.530   4.012  70.694  1.00  0.00    -0.240 C  
HETATM   26  C   UNL     1      -9.634   4.115  72.210  1.00  0.00    -0.200 C  
HETATM   27  C   UNL     1     -10.130   5.531  72.510  1.00  0.00    -0.211 C  
ENDBRANCH  22  23
ENDBRANCH  14  22
ENDBRANCH   2   7
TORSDOF 3
ENDMDL
MODEL       84
REMARK 921   NORMALIZED FREE ENERGY PREDICTED BY IDOCK:   -4.89 KCAL/MOL
REMARK 922        TOTAL FREE ENERGY PREDICTED BY IDOCK:   -5.99 KCAL/MOL
REMARK 923 INTER-LIGAND FREE ENERGY PREDICTED BY IDOCK:   -5.78 KCAL/MOL
REMARK 924 INTRA-LIGAND FREE ENERGY PREDICTED BY IDOCK:   -0.21 KCAL/MOL
REMARK 927      BINDING AFFINITY PREDICTED BY RF-SCORE:    0.00 PKD
ROOT
HETATM    1  N   UNL     1     -10.358  14.651  64.913  1.00  0.00    -0.455 N  
HETATM    2  S   UNL     1     -11.698  13.999  65.686  1.00  0.00    -0.369 S  
HETATM    3  H2  UNL     1      -9.755  15.404  65.247  1.00  0.00     0.000 HD 
HETATM    4  H1  UNL     1     -10.276  14.131  64.039  1.00  0.00     0.000 HD 
HETATM    5  O   UNL     1     -11.814  14.736  66.927  1.00  0.00    -0.354 OA 
HETATM    6  O   UNL     1     -12.769  13.952  64.731  1.00  0.00    -0.650 OA 
ENDROOT
BRANCH   2   7
HETATM    7  C   UNL     1     -11.174  12.352  66.048  1.00  0.00    -0.335 A  
HETATM    8  C   UNL     1     -11.097  11.949  67.385  1.00  0.00    -0.336 A  
HETATM    9  C   UNL     1     -10.675  10.646  67.681  1.00  0.00    -0.267 A  
HETATM   10  C   UNL     1     -10.338   9.720  66.691  1.00  0.00    -0.206 A  
HETATM   11  N   UNL     1     -10.018   8.394  66.979  1.00  0.00    -0.226 NA 
HETATM   12  C   UNL     1     -10.448  10.143  65.360  1.00  0.00    -0.054 A  
HETATM   13  H   UNL     1     -10.196   7.652  66.302  1.00  0.00     0.000 HD 
HETATM   14  C   UNL     1      -9.427   8.099  68.268  1.00  0.00    -0.141 C  
HETATM   15  C   UNL     1     -10.855  11.448  65.030  1.00  0.00    -0.246 A  
HETATM   16  N   UNL     1     -10.393   8.489  69.264  1.00  0.00    -0.219 N  
HETATM   17 CL   UNL     1     -10.923  11.831  63.345  1.00  0.00    -0.466 Cl 
HETATM   18  O   UNL     1     -11.890  10.368  69.963  1.00  0.00    -0.267 OA 
HETATM   19  S   UNL     1     -10.591  10.145  69.368  1.00  0.00    -0.254 S  
HETATM   20  O   UNL     1      -9.379  10.709  69.914  1.00  0.00     0.102 OA 
HETATM   21  H   UNL     1     -10.903   7.824  69.845  1.00  0.00     0.000 HD 
BRANCH  14  22
HETATM   22  C   UNL     1      -9.174   6.588  68.406  1.00  0.00    -0.121 C  
BRANCH  22  23
HETATM   23  C   UNL     1      -9.438   6.035  69.813  1.00  0.00    -0.173 C  
HETATM   24  C   UNL     1     -10.124   4.670  69.834  1.00  0.00    -0.257 C  
HETATM   25  C   UNL     1      -9.857   4.174  71.244  1.00  0.00    -0.249 C  
HETATM   26  C   UNL     1      -8.426   4.609  71.531  1.00  0.00    -0.117 C  
HETATM   27  C   UNL     1      -8.145   5.794  70.605  1.00  0.00    -0.117 C  
ENDBRANCH  22  23
ENDBRANCH  14  22
ENDBRANCH   2   7
TORSDOF 3
ENDMDL
MODEL       85
REMARK 921   NORMALIZED FREE ENERGY PREDICTED BY IDOCK:   -4.86 KCAL/MOL
REMARK 922        TOTAL FREE ENERGY PREDICTED BY IDOCK:   -5.95 KCAL/MOL
REMARK 923 INTER-LIGAND FREE ENERGY PREDICTED BY IDOCK:   -6.14 KCAL/MOL
REMARK 924 INTRA-LIGAND FREE ENERGY PREDICTED BY IDOCK:    0.18 KCAL/MOL
REMARK 927      BINDING AFFINITY PREDICTED BY RF-SCORE:    0.00 PKD
ROOT
HETATM    1  N   UNL     1     -10.672  18.840  68.254  1.00  0.00    -0.321 N  
HETATM    2  S   UNL     1      -9.092  18.665  67.714  1.00  0.00    -0.290 S  
HETATM    3  H2  UNL     1     -11.439  19.319  67.782  1.00  0.00     0.000 HD 
HETATM    4  H1  UNL     1     -10.699  18.363  69.155  1.00  0.00     0.000 HD 
HETATM    5  O   UNL     1      -9.053  19.342  66.435  1.00  0.00    -0.332 OA 
HETATM    6  O   UNL     1      -8.220  19.038  68.793  1.00  0.00    -0.354 OA 
ENDROOT
BRANCH   2   7
HETATM    7  C   UNL     1      -8.964  16.925  67.443  1.00  0.00    -0.209 A  
HETATM    8  C   UNL     1     -10.138  16.170  67.353  1.00  0.00    -0.257 A  
HETATM    9  C   UNL     1     -10.045  14.787  67.145  1.00  0.00    -0.240 A  
HETATM   10  C   UNL     1      -8.822  14.127  67.012  1.00  0.00    -0.221 A  
HETATM   11  N   UNL     1      -8.730  12.770  66.702  1.00  0.00    -0.407 NA 
HETATM   12  C   UNL     1      -7.663  14.911  67.081  1.00  0.00    -0.177 A  
HETATM   13  H   UNL     1      -7.925  12.400  66.197  1.00  0.00     0.000 HD 
HETATM   14  C   UNL     1      -9.811  11.900  67.119  1.00  0.00    -0.194 C  
HETATM   15  C   UNL     1      -7.722  16.298  67.302  1.00  0.00    -0.178 A  
HETATM   16  N   UNL     1     -10.999  12.370  66.450  1.00  0.00    -0.265 N  
HETATM   17 CL   UNL     1      -6.208  17.130  67.386  1.00  0.00    -0.161 Cl 
HETATM   18  O   UNL     1     -12.339  14.428  65.976  1.00  0.00    -0.394 OA 
HETATM   19  S   UNL     1     -11.530  13.847  67.023  1.00  0.00    -0.366 S  
HETATM   20  O   UNL     1     -12.019  13.658  68.368  1.00  0.00    -0.355 OA 
HETATM   21  H   UNL     1     -11.467  11.854  65.705  1.00  0.00     0.000 HD 
BRANCH  14  22
HETATM   22  C   UNL     1      -9.539  10.456  66.664  1.00  0.00    -0.219 C  
BRANCH  22  23
HETATM   23  C   UNL     1      -8.903  10.349  65.271  1.00  0.00    -0.203 C  
HETATM   24  C   UNL     1      -8.557   8.923  64.847  1.00  0.00    -0.198 C  
HETATM   25  C   UNL     1      -8.391   9.044  63.342  1.00  0.00    -0.187 C  
HETATM   26  C   UNL     1      -9.497  10.002  62.918  1.00  0.00    -0.223 C  
HETATM   27  C   UNL     1      -9.842  10.832  64.155  1.00  0.00    -0.384 C  
ENDBRANCH  22  23
ENDBRANCH  14  22
ENDBRANCH   2   7
TORSDOF 3
ENDMDL
MODEL       86
REMARK 921   NORMALIZED FREE ENERGY PREDICTED BY IDOCK:   -4.85 KCAL/MOL
REMARK 922        TOTAL FREE ENERGY PREDICTED BY IDOCK:   -5.93 KCAL/MOL
REMARK 923 INTER-LIGAND FREE ENERGY PREDICTED BY IDOCK:   -5.58 KCAL/MOL
REMARK 924 INTRA-LIGAND FREE ENERGY PREDICTED BY IDOCK:   -0.35 KCAL/MOL
REMARK 927      BINDING AFFINITY PREDICTED BY RF-SCORE:    0.00 PKD
ROOT
HETATM    1  N   UNL     1      -8.435   7.885  62.581  1.00  0.00    -0.395 N  
HETATM    2  S   UNL     1      -7.852   7.622  64.133  1.00  0.00    -0.113 S  
HETATM    3  H2  UNL     1      -8.999   7.251  62.015  1.00  0.00     0.000 HD 
HETATM    4  H1  UNL     1      -8.103   8.816  62.327  1.00  0.00     0.000 HD 
HETATM    5  O   UNL     1      -8.323   6.301  64.494  1.00  0.00    -0.106 OA 
HETATM    6  O   UNL     1      -6.455   7.953  64.135  1.00  0.00    -0.059 OA 
ENDROOT
BRANCH   2   7
HETATM    7  C   UNL     1      -8.731   8.821  65.086  1.00  0.00    -0.167 A  
HETATM    8  C   UNL     1      -9.405   9.849  64.418  1.00  0.00    -0.326 A  
HETATM    9  C   UNL     1     -10.099  10.808  65.167  1.00  0.00    -0.299 A  
HETATM   10  C   UNL     1     -10.157  10.777  66.562  1.00  0.00    -0.228 A  
HETATM   11  N   UNL     1     -10.931  11.670  67.303  1.00  0.00    -0.251 NA 
HETATM   12  C   UNL     1      -9.493   9.723  67.204  1.00  0.00    -0.189 A  
HETATM   13  H   UNL     1     -11.314  11.405  68.211  1.00  0.00     0.000 HD 
HETATM   14  C   UNL     1     -11.177  12.984  66.746  1.00  0.00    -0.298 C  
HETATM   15  C   UNL     1      -8.777   8.752  66.482  1.00  0.00    -0.120 A  
HETATM   16  N   UNL     1     -11.894  12.782  65.512  1.00  0.00    -0.398 N  
HETATM   17 CL   UNL     1      -7.992   7.524  67.412  1.00  0.00    -0.114 Cl 
HETATM   18  O   UNL     1     -11.865  11.475  63.379  1.00  0.00    -0.346 OA 
HETATM   19  S   UNL     1     -10.953  12.093  64.316  1.00  0.00    -0.372 S  
HETATM   20  O   UNL     1      -9.961  13.060  63.910  1.00  0.00    -0.311 OA 
HETATM   21  H   UNL     1     -12.874  13.034  65.383  1.00  0.00     0.000 HD 
BRANCH  14  22
HETATM   22  C   UNL     1     -12.067  13.807  67.694  1.00  0.00    -0.333 C  
BRANCH  22  23
HETATM   23  C   UNL     1     -11.320  14.919  68.445  1.00  0.00    -0.320 C  
HETATM   24  C   UNL     1     -11.461  14.853  69.965  1.00  0.00    -0.317 C  
HETATM   25  C   UNL     1     -10.316  15.725  70.451  1.00  0.00    -0.061 C  
HETATM   26  C   UNL     1      -9.164  15.393  69.512  1.00  0.00    -0.240 C  
HETATM   27  C   UNL     1      -9.801  14.860  68.227  1.00  0.00    -0.218 C  
ENDBRANCH  22  23
ENDBRANCH  14  22
ENDBRANCH   2   7
TORSDOF 3
ENDMDL
MODEL       87
REMARK 921   NORMALIZED FREE ENERGY PREDICTED BY IDOCK:   -4.83 KCAL/MOL
REMARK 922        TOTAL FREE ENERGY PREDICTED BY IDOCK:   -5.92 KCAL/MOL
REMARK 923 INTER-LIGAND FREE ENERGY PREDICTED BY IDOCK:   -5.62 KCAL/MOL
REMARK 924 INTRA-LIGAND FREE ENERGY PREDICTED BY IDOCK:   -0.30 KCAL/MOL
REMARK 927      BINDING AFFINITY PREDICTED BY RF-SCORE:    0.00 PKD
ROOT
HETATM    1  N   UNL     1      -9.616  16.288  68.339  1.00  0.00    -0.211 N  
HETATM    2  S   UNL     1      -8.119  15.672  67.896  1.00  0.00    -0.146 S  
HETATM    3  H2  UNL     1     -10.304  16.739  67.736  1.00  0.00     0.000 HD 
HETATM    4  H1  UNL     1      -9.689  16.113  69.341  1.00  0.00     0.000 HD 
HETATM    5  O   UNL     1      -8.014  15.920  66.473  1.00  0.00    -0.262 OA 
HETATM    6  O   UNL     1      -7.148  16.179  68.825  1.00  0.00    -0.137 OA 
ENDROOT
BRANCH   2   7
HETATM    7  C   UNL     1      -8.318  13.938  68.160  1.00  0.00    -0.163 A  
HETATM    8  C   UNL     1      -9.613  13.417  68.266  1.00  0.00    -0.220 A  
HETATM    9  C   UNL     1      -9.780  12.043  68.483  1.00  0.00    -0.161 A  
HETATM   10  C   UNL     1      -8.702  11.161  68.586  1.00  0.00    -0.153 A  
HETATM   11  N   UNL     1      -8.869   9.781  68.698  1.00  0.00    -0.123 NA 
HETATM   12  C   UNL     1      -7.418  11.705  68.452  1.00  0.00    -0.107 A  
HETATM   13  H   UNL     1      -8.158   9.136  68.349  1.00  0.00     0.000 HD 
HETATM   14  C   UNL     1     -10.078   9.288  69.325  1.00  0.00    -0.200 C  
HETATM   15  C   UNL     1      -7.216  13.081  68.247  1.00  0.00    -0.113 A  
HETATM   16  N   UNL     1     -11.178   9.746  68.513  1.00  0.00    -0.496 N  
HETATM   17 CL   UNL     1      -5.574  13.609  68.122  1.00  0.00    -0.106 Cl 
HETATM   18  O   UNL     1     -12.133  11.777  67.409  1.00  0.00    -0.595 OA 
HETATM   19  S   UNL     1     -11.414  11.397  68.605  1.00  0.00    -0.326 S  
HETATM   20  O   UNL     1     -11.892  11.710  69.931  1.00  0.00    -0.312 OA 
HETATM   21  H   UNL     1     -11.753   9.126  67.942  1.00  0.00     0.000 HD 
BRANCH  14  22
HETATM   22  C   UNL     1     -10.087   7.750  69.329  1.00  0.00    -0.199 C  
BRANCH  22  23
HETATM   23  C   UNL     1     -10.184   7.129  70.730  1.00  0.00    -0.208 C  
HETATM   24  C   UNL     1     -10.475   8.134  71.843  1.00  0.00    -0.312 C  
HETATM   25  C   UNL     1     -10.958   7.253  72.982  1.00  0.00    -0.388 C  
HETATM   26  C   UNL     1     -11.819   6.197  72.302  1.00  0.00    -0.326 C  
HETATM   27  C   UNL     1     -11.338   6.123  70.851  1.00  0.00    -0.355 C  
ENDBRANCH  22  23
ENDBRANCH  14  22
ENDBRANCH   2   7
TORSDOF 3
ENDMDL
MODEL       88
REMARK 921   NORMALIZED FREE ENERGY PREDICTED BY IDOCK:   -4.83 KCAL/MOL
REMARK 922        TOTAL FREE ENERGY PREDICTED BY IDOCK:   -5.91 KCAL/MOL
REMARK 923 INTER-LIGAND FREE ENERGY PREDICTED BY IDOCK:   -6.31 KCAL/MOL
REMARK 924 INTRA-LIGAND FREE ENERGY PREDICTED BY IDOCK:    0.40 KCAL/MOL
REMARK 927      BINDING AFFINITY PREDICTED BY RF-SCORE:    0.00 PKD
ROOT
HETATM    1  N   UNL     1     -10.332  19.862  69.971  1.00  0.00    -0.433 N  
HETATM    2  S   UNL     1      -9.791  19.523  68.418  1.00  0.00    -0.450 S  
HETATM    3  H2  UNL     1     -11.101  20.476  70.239  1.00  0.00     0.000 HD 
HETATM    4  H1  UNL     1      -9.726  19.321  70.587  1.00  0.00     0.000 HD 
HETATM    5  O   UNL     1     -10.651  20.291  67.543  1.00  0.00    -0.261 OA 
HETATM    6  O   UNL     1      -8.364  19.687  68.410  1.00  0.00    -0.335 OA 
ENDROOT
BRANCH   2   7
HETATM    7  C   UNL     1     -10.176  17.810  68.238  1.00  0.00    -0.382 A  
HETATM    8  C   UNL     1     -10.880  17.166  69.261  1.00  0.00    -0.035 A  
HETATM    9  C   UNL     1     -11.183  15.805  69.129  1.00  0.00    -0.322 A  
HETATM   10  C   UNL     1     -10.821  15.059  68.005  1.00  0.00    -0.270 A  
HETATM   11  N   UNL     1     -11.211  13.732  67.827  1.00  0.00    -0.278 NA 
HETATM   12  C   UNL     1     -10.138  15.734  66.985  1.00  0.00    -0.261 A  
HETATM   13  H   UNL     1     -11.333  13.342  66.891  1.00  0.00     0.000 HD 
HETATM   14  C   UNL     1     -11.439  12.922  69.006  1.00  0.00    -0.308 C  
HETATM   15  C   UNL     1      -9.808  17.096  67.093  1.00  0.00    -0.271 A  
HETATM   16  N   UNL     1     -12.515  13.547  69.733  1.00  0.00    -0.176 N  
HETATM   17 CL   UNL     1      -8.946  17.787  65.763  1.00  0.00     0.146 Cl 
HETATM   18  O   UNL     1     -13.303  15.745  70.633  1.00  0.00    -0.486 OA 
HETATM   19  S   UNL     1     -12.078  15.007  70.420  1.00  0.00    -0.362 S  
HETATM   20  O   UNL     1     -11.137  14.740  71.482  1.00  0.00    -0.093 OA 
HETATM   21  H   UNL     1     -13.447  13.141  69.820  1.00  0.00     0.000 HD 
BRANCH  14  22
HETATM   22  C   UNL     1     -11.886  11.506  68.603  1.00  0.00    -0.382 C  
BRANCH  22  23
HETATM   23  C   UNL     1     -11.133  10.934  67.394  1.00  0.00    -0.373 C  
HETATM   24  C   UNL     1     -11.380  11.685  66.087  1.00  0.00    -0.275 C  
HETATM   25  C   UNL     1     -10.225  11.234  65.210  1.00  0.00    -0.328 C  
HETATM   26  C   UNL     1      -9.032  11.183  66.155  1.00  0.00    -0.205 C  
HETATM   27  C   UNL     1      -9.608  11.006  67.561  1.00  0.00    -0.178 C  
ENDBRANCH  22  23
ENDBRANCH  14  22
ENDBRANCH   2   7
TORSDOF 3
ENDMDL
MODEL       89
REMARK 921   NORMALIZED FREE ENERGY PREDICTED BY IDOCK:   -4.82 KCAL/MOL
REMARK 922        TOTAL FREE ENERGY PREDICTED BY IDOCK:   -5.91 KCAL/MOL
REMARK 923 INTER-LIGAND FREE ENERGY PREDICTED BY IDOCK:   -5.98 KCAL/MOL
REMARK 924 INTRA-LIGAND FREE ENERGY PREDICTED BY IDOCK:    0.08 KCAL/MOL
REMARK 927      BINDING AFFINITY PREDICTED BY RF-SCORE:    0.00 PKD
ROOT
HETATM    1  N   UNL     1      -6.851   8.587  66.525  1.00  0.00    -0.070 N  
HETATM    2  S   UNL     1      -7.511   9.241  67.923  1.00  0.00    -0.084 S  
HETATM    3  H2  UNL     1      -7.146   7.741  66.037  1.00  0.00     0.000 HD 
HETATM    4  H1  UNL     1      -6.092   9.218  66.269  1.00  0.00     0.000 HD 
HETATM    5  O   UNL     1      -8.589   8.345  68.286  1.00  0.00    -0.137 OA 
HETATM    6  O   UNL     1      -6.429   9.526  68.823  1.00  0.00    -0.047 OA 
ENDROOT
BRANCH   2   7
HETATM    7  C   UNL     1      -8.202  10.762  67.352  1.00  0.00    -0.116 A  
HETATM    8  C   UNL     1      -7.592  11.963  67.731  1.00  0.00    -0.130 A  
HETATM    9  C   UNL     1      -8.139  13.174  67.288  1.00  0.00    -0.146 A  
HETATM   10  C   UNL     1      -9.267  13.236  66.467  1.00  0.00    -0.172 A  
HETATM   11  N   UNL     1      -9.749  14.435  65.942  1.00  0.00    -0.435 NA 
HETATM   12  C   UNL     1      -9.842  12.018  66.082  1.00  0.00    -0.255 A  
HETATM   13  H   UNL     1     -10.253  14.454  65.054  1.00  0.00     0.000 HD 
HETATM   14  C   UNL     1      -9.516  15.652  66.692  1.00  0.00    -0.259 C  
HETATM   15  C   UNL     1      -9.326  10.786  66.521  1.00  0.00    -0.168 A  
HETATM   16  N   UNL     1      -8.086  15.815  66.778  1.00  0.00    -0.256 N  
HETATM   17 CL   UNL     1     -10.155   9.368  65.980  1.00  0.00    -0.353 Cl 
HETATM   18  O   UNL     1      -5.972  14.610  67.357  1.00  0.00    -0.343 OA 
HETATM   19  S   UNL     1      -7.357  14.680  67.764  1.00  0.00    -0.188 S  
HETATM   20  O   UNL     1      -7.755  14.948  69.126  1.00  0.00    -0.147 OA 
HETATM   21  H   UNL     1      -7.572  16.547  66.287  1.00  0.00     0.000 HD 
BRANCH  14  22
HETATM   22  C   UNL     1     -10.097  16.862  65.939  1.00  0.00    -0.302 C  
BRANCH  22  23
HETATM   23  C   UNL     1     -10.517  18.022  66.852  1.00  0.00    -0.350 C  
HETATM   24  C   UNL     1      -9.796  18.055  68.199  1.00  0.00    -0.341 C  
HETATM   25  C   UNL     1     -10.036  19.476  68.680  1.00  0.00    -0.535 C  
HETATM   26  C   UNL     1      -9.904  20.326  67.424  1.00  0.00    -0.586 C  
HETATM   27  C   UNL     1     -10.196  19.396  66.245  1.00  0.00    -0.566 C  
ENDBRANCH  22  23
ENDBRANCH  14  22
ENDBRANCH   2   7
TORSDOF 3
ENDMDL
MODEL       90
REMARK 921   NORMALIZED FREE ENERGY PREDICTED BY IDOCK:   -4.82 KCAL/MOL
REMARK 922        TOTAL FREE ENERGY PREDICTED BY IDOCK:   -5.90 KCAL/MOL
REMARK 923 INTER-LIGAND FREE ENERGY PREDICTED BY IDOCK:   -5.48 KCAL/MOL
REMARK 924 INTRA-LIGAND FREE ENERGY PREDICTED BY IDOCK:   -0.42 KCAL/MOL
REMARK 927      BINDING AFFINITY PREDICTED BY RF-SCORE:    0.00 PKD
ROOT
HETATM    1  N   UNL     1      -7.480   4.427  70.006  1.00  0.00    -0.049 N  
HETATM    2  S   UNL     1      -8.308   4.182  68.566  1.00  0.00    -0.084 S  
HETATM    3  H2  UNL     1      -6.470   4.466  70.141  1.00  0.00     0.000 HD 
HETATM    4  H1  UNL     1      -8.205   4.529  70.716  1.00  0.00     0.000 HD 
HETATM    5  O   UNL     1      -7.279   4.037  67.559  1.00  0.00    -0.065 OA 
HETATM    6  O   UNL     1      -9.289   3.158  68.798  1.00  0.00    -0.156 OA 
ENDROOT
BRANCH   2   7
HETATM    7  C   UNL     1      -9.131   5.725  68.324  1.00  0.00    -0.117 A  
HETATM    8  C   UNL     1      -8.915   6.755  69.245  1.00  0.00    -0.137 A  
HETATM    9  C   UNL     1      -9.570   7.980  69.064  1.00  0.00    -0.156 A  
HETATM   10  C   UNL     1     -10.426   8.224  67.988  1.00  0.00    -0.181 A  
HETATM   11  N   UNL     1     -10.996   9.475  67.750  1.00  0.00    -0.495 NA 
HETATM   12  C   UNL     1     -10.604   7.184  67.066  1.00  0.00    -0.413 A  
HETATM   13  H   UNL     1     -11.237   9.770  66.803  1.00  0.00     0.000 HD 
HETATM   14  C   UNL     1     -11.236  10.343  68.884  1.00  0.00    -0.235 C  
HETATM   15  C   UNL     1      -9.972   5.938  67.227  1.00  0.00    -0.153 A  
HETATM   16  N   UNL     1      -9.950  10.611  69.477  1.00  0.00    -0.400 N  
HETATM   17 CL   UNL     1     -10.305   4.745  66.021  1.00  0.00    -0.313 Cl 
HETATM   18  O   UNL     1      -7.858   9.505  70.290  1.00  0.00    -0.136 OA 
HETATM   19  S   UNL     1      -9.284   9.274  70.225  1.00  0.00    -0.254 S  
HETATM   20  O   UNL     1     -10.076   8.972  71.394  1.00  0.00    -0.279 OA 
HETATM   21  H   UNL     1      -9.493  11.523  69.443  1.00  0.00     0.000 HD 
BRANCH  14  22
HETATM   22  C   UNL     1     -11.840  11.678  68.415  1.00  0.00    -0.346 C  
BRANCH  22  23
HETATM   23  C   UNL     1     -11.153  12.917  69.007  1.00  0.00    -0.284 C  
HETATM   24  C   UNL     1     -10.594  13.883  67.963  1.00  0.00    -0.252 C  
HETATM   25  C   UNL     1     -10.401  15.165  68.753  1.00  0.00    -0.236 C  
HETATM   26  C   UNL     1     -11.619  15.232  69.666  1.00  0.00    -0.340 C  
HETATM   27  C   UNL     1     -12.116  13.793  69.820  1.00  0.00    -0.400 C  
ENDBRANCH  22  23
ENDBRANCH  14  22
ENDBRANCH   2   7
TORSDOF 3
ENDMDL
MODEL       91
REMARK 921   NORMALIZED FREE ENERGY PREDICTED BY IDOCK:   -4.80 KCAL/MOL
REMARK 922        TOTAL FREE ENERGY PREDICTED BY IDOCK:   -5.88 KCAL/MOL
REMARK 923 INTER-LIGAND FREE ENERGY PREDICTED BY IDOCK:   -5.57 KCAL/MOL
REMARK 924 INTRA-LIGAND FREE ENERGY PREDICTED BY IDOCK:   -0.32 KCAL/MOL
REMARK 927      BINDING AFFINITY PREDICTED BY RF-SCORE:    0.00 PKD
ROOT
HETATM    1  N   UNL     1     -10.759   5.210  71.643  1.00  0.00    -0.162 N  
HETATM    2  S   UNL     1      -9.818   5.657  70.326  1.00  0.00    -0.208 S  
HETATM    3  H2  UNL     1     -10.435   4.876  72.551  1.00  0.00     0.000 HD 
HETATM    4  H1  UNL     1     -11.723   5.343  71.338  1.00  0.00     0.000 HD 
HETATM    5  O   UNL     1      -8.449   5.468  70.758  1.00  0.00    -0.118 OA 
HETATM    6  O   UNL     1     -10.345   4.989  69.169  1.00  0.00    -0.193 OA 
ENDROOT
BRANCH   2   7
HETATM    7  C   UNL     1     -10.139   7.388  70.190  1.00  0.00    -0.197 A  
HETATM    8  C   UNL     1     -11.269   7.915  70.824  1.00  0.00    -0.274 A  
HETATM    9  C   UNL     1     -11.535   9.286  70.714  1.00  0.00    -0.292 A  
HETATM   10  C   UNL     1     -10.707  10.159  70.005  1.00  0.00    -0.305 A  
HETATM   11  N   UNL     1     -10.914  11.538  69.982  1.00  0.00    -0.425 NA 
HETATM   12  C   UNL     1      -9.569   9.609  69.401  1.00  0.00    -0.200 A  
HETATM   13  H   UNL     1     -10.133  12.184  69.858  1.00  0.00     0.000 HD 
HETATM   14  C   UNL     1     -12.268  12.029  70.139  1.00  0.00    -0.231 C  
HETATM   15  C   UNL     1      -9.281   8.235  69.481  1.00  0.00    -0.158 A  
HETATM   16  N   UNL     1     -12.716  11.592  71.437  1.00  0.00    -0.379 N  
HETATM   17 CL   UNL     1      -7.853   7.699  68.667  1.00  0.00    -0.118 Cl 
HETATM   18  O   UNL     1     -12.873   9.586  72.924  1.00  0.00    -0.015 OA 
HETATM   19  S   UNL     1     -12.956   9.941  71.525  1.00  0.00    -0.455 S  
HETATM   20  O   UNL     1     -14.097   9.609  70.706  1.00  0.00     0.029 OA 
HETATM   21  H   UNL     1     -12.871  12.226  72.222  1.00  0.00     0.000 HD 
BRANCH  14  22
HETATM   22  C   UNL     1     -12.284  13.567  70.113  1.00  0.00    -0.400 C  
BRANCH  22  23
HETATM   23  C   UNL     1     -11.443  14.182  68.985  1.00  0.00    -0.322 C  
HETATM   24  C   UNL     1     -12.154  14.242  67.634  1.00  0.00    -0.332 C  
HETATM   25  C   UNL     1     -11.331  15.257  66.860  1.00  0.00    -0.209 C  
HETATM   26  C   UNL     1     -10.989  16.327  67.889  1.00  0.00    -0.310 C  
HETATM   27  C   UNL     1     -11.075  15.648  69.257  1.00  0.00    -0.293 C  
ENDBRANCH  22  23
ENDBRANCH  14  22
ENDBRANCH   2   7
TORSDOF 3
ENDMDL
MODEL       92
REMARK 921   NORMALIZED FREE ENERGY PREDICTED BY IDOCK:   -4.79 KCAL/MOL
REMARK 922        TOTAL FREE ENERGY PREDICTED BY IDOCK:   -5.87 KCAL/MOL
REMARK 923 INTER-LIGAND FREE ENERGY PREDICTED BY IDOCK:   -5.77 KCAL/MOL
REMARK 924 INTRA-LIGAND FREE ENERGY PREDICTED BY IDOCK:   -0.10 KCAL/MOL
REMARK 927      BINDING AFFINITY PREDICTED BY RF-SCORE:    0.00 PKD
ROOT
HETATM    1  N   UNL     1      -9.615   4.403  66.447  1.00  0.00    -0.178 N  
HETATM    2  S   UNL     1      -8.412   5.557  66.647  1.00  0.00    -0.112 S  
HETATM    3  H2  UNL     1      -9.756   3.553  66.994  1.00  0.00     0.000 HD 
HETATM    4  H1  UNL     1     -10.174   4.735  65.661  1.00  0.00     0.000 HD 
HETATM    5  O   UNL     1      -7.619   5.085  67.763  1.00  0.00    -0.082 OA 
HETATM    6  O   UNL     1      -7.831   5.806  65.358  1.00  0.00    -0.097 OA 
ENDROOT
BRANCH   2   7
HETATM    7  C   UNL     1      -9.322   6.982  67.156  1.00  0.00    -0.143 A  
HETATM    8  C   UNL     1      -9.202   8.159  66.410  1.00  0.00    -0.250 A  
HETATM    9  C   UNL     1      -9.914   9.296  66.811  1.00  0.00    -0.245 A  
HETATM   10  C   UNL     1     -10.756   9.303  67.926  1.00  0.00    -0.188 A  
HETATM   11  N   UNL     1     -11.544  10.402  68.266  1.00  0.00    -0.682 NA 
HETATM   12  C   UNL     1     -10.877   8.104  68.641  1.00  0.00     0.037 A  
HETATM   13  H   UNL     1     -12.426  10.281  68.765  1.00  0.00     0.000 HD 
HETATM   14  C   UNL     1     -11.076  11.721  67.890  1.00  0.00    -0.245 C  
HETATM   15  C   UNL     1     -10.165   6.949  68.272  1.00  0.00    -0.180 A  
HETATM   16  N   UNL     1     -10.994  11.734  66.451  1.00  0.00    -0.284 N  
HETATM   17 CL   UNL     1     -10.399   5.551  69.262  1.00  0.00    -0.320 Cl 
HETATM   18  O   UNL     1     -10.111  10.454  64.491  1.00  0.00    -0.346 OA 
HETATM   19  S   UNL     1      -9.764  10.771  65.858  1.00  0.00    -0.238 S  
HETATM   20  O   UNL     1      -8.504  11.377  66.219  1.00  0.00    -0.177 OA 
HETATM   21  H   UNL     1     -11.621  12.275  65.856  1.00  0.00     0.000 HD 
BRANCH  14  22
HETATM   22  C   UNL     1     -12.091  12.791  68.327  1.00  0.00    -0.152 C  
BRANCH  22  23
HETATM   23  C   UNL     1     -11.486  13.915  69.180  1.00  0.00    -0.345 C  
HETATM   24  C   UNL     1     -11.416  15.270  68.477  1.00  0.00    -0.355 C  
HETATM   25  C   UNL     1     -11.229  16.243  69.627  1.00  0.00    -0.311 C  
HETATM   26  C   UNL     1     -12.133  15.703  70.728  1.00  0.00    -0.454 C  
HETATM   27  C   UNL     1     -12.315  14.212  70.438  1.00  0.00    -0.428 C  
ENDBRANCH  22  23
ENDBRANCH  14  22
ENDBRANCH   2   7
TORSDOF 3
ENDMDL
MODEL       93
REMARK 921   NORMALIZED FREE ENERGY PREDICTED BY IDOCK:   -4.79 KCAL/MOL
REMARK 922        TOTAL FREE ENERGY PREDICTED BY IDOCK:   -5.87 KCAL/MOL
REMARK 923 INTER-LIGAND FREE ENERGY PREDICTED BY IDOCK:   -5.83 KCAL/MOL
REMARK 924 INTRA-LIGAND FREE ENERGY PREDICTED BY IDOCK:   -0.03 KCAL/MOL
REMARK 927      BINDING AFFINITY PREDICTED BY RF-SCORE:    0.00 PKD
ROOT
HETATM    1  N   UNL     1     -10.788   5.559  66.403  1.00  0.00    -0.673 N  
HETATM    2  S   UNL     1      -9.615   5.941  67.542  1.00  0.00    -0.116 S  
HETATM    3  H2  UNL     1     -11.525   4.858  66.484  1.00  0.00     0.000 HD 
HETATM    4  H1  UNL     1     -10.606   6.180  65.615  1.00  0.00     0.000 HD 
HETATM    5  O   UNL     1      -9.874   5.061  68.661  1.00  0.00    -0.151 OA 
HETATM    6  O   UNL     1      -8.346   5.956  66.869  1.00  0.00    -0.109 OA 
ENDROOT
BRANCH   2   7
HETATM    7  C   UNL     1     -10.043   7.591  68.002  1.00  0.00    -0.183 A  
HETATM    8  C   UNL     1     -10.660   7.807  69.239  1.00  0.00    -0.199 A  
HETATM    9  C   UNL     1     -11.009   9.112  69.608  1.00  0.00    -0.153 A  
HETATM   10  C   UNL     1     -10.755  10.218  68.795  1.00  0.00    -0.219 A  
HETATM   11  N   UNL     1     -11.008  11.527  69.205  1.00  0.00    -0.327 NA 
HETATM   12  C   UNL     1     -10.114   9.977  67.573  1.00  0.00    -0.243 A  
HETATM   13  H   UNL     1     -10.459  12.306  68.842  1.00  0.00     0.000 HD 
HETATM   14  C   UNL     1     -12.073  11.749  70.163  1.00  0.00    -0.317 C  
HETATM   15  C   UNL     1      -9.763   8.677  67.167  1.00  0.00    -0.190 A  
HETATM   16  N   UNL     1     -11.707  11.032  71.358  1.00  0.00     0.049 N  
HETATM   17 CL   UNL     1      -8.997   8.534  65.623  1.00  0.00    -0.224 Cl 
HETATM   18  O   UNL     1     -10.917   8.808  72.189  1.00  0.00    -0.356 OA 
HETATM   19  S   UNL     1     -11.776   9.373  71.173  1.00  0.00    -0.372 S  
HETATM   20  O   UNL     1     -13.162   8.995  71.030  1.00  0.00    -0.170 OA 
HETATM   21  H   UNL     1     -11.434  11.490  72.228  1.00  0.00     0.000 HD 
BRANCH  14  22
HETATM   22  C   UNL     1     -12.177  13.244  70.507  1.00  0.00    -0.416 C  
BRANCH  22  23
HETATM   23  C   UNL     1     -11.358  14.157  69.583  1.00  0.00    -0.289 C  
HETATM   24  C   UNL     1     -12.046  14.493  68.262  1.00  0.00    -0.234 C  
HETATM   25  C   UNL     1     -11.277  15.709  67.775  1.00  0.00    -0.297 C  
HETATM   26  C   UNL     1     -11.024  16.524  69.037  1.00  0.00    -0.306 C  
HETATM   27  C   UNL     1     -11.090  15.536  70.204  1.00  0.00    -0.337 C  
ENDBRANCH  22  23
ENDBRANCH  14  22
ENDBRANCH   2   7
TORSDOF 3
ENDMDL
MODEL       94
REMARK 921   NORMALIZED FREE ENERGY PREDICTED BY IDOCK:   -4.79 KCAL/MOL
REMARK 922        TOTAL FREE ENERGY PREDICTED BY IDOCK:   -5.86 KCAL/MOL
REMARK 923 INTER-LIGAND FREE ENERGY PREDICTED BY IDOCK:   -5.87 KCAL/MOL
REMARK 924 INTRA-LIGAND FREE ENERGY PREDICTED BY IDOCK:    0.01 KCAL/MOL
REMARK 927      BINDING AFFINITY PREDICTED BY RF-SCORE:    0.00 PKD
ROOT
HETATM    1  N   UNL     1      -9.009  16.282  67.822  1.00  0.00    -0.192 N  
HETATM    2  S   UNL     1     -10.686  16.314  67.756  1.00  0.00    -0.310 S  
HETATM    3  H2  UNL     1      -8.400  16.864  68.398  1.00  0.00     0.000 HD 
HETATM    4  H1  UNL     1      -8.731  15.556  67.163  1.00  0.00     0.000 HD 
HETATM    5  O   UNL     1     -11.081  17.346  68.691  1.00  0.00    -0.133 OA 
HETATM    6  O   UNL     1     -11.065  16.364  66.371  1.00  0.00    -0.037 OA 
ENDROOT
BRANCH   2   7
HETATM    7  C   UNL     1     -11.131  14.740  68.420  1.00  0.00    -0.263 A  
HETATM    8  C   UNL     1     -11.848  14.694  69.620  1.00  0.00    -0.367 A  
HETATM    9  C   UNL     1     -12.198  13.449  70.158  1.00  0.00    -0.315 A  
HETATM   10  C   UNL     1     -11.871  12.242  69.537  1.00  0.00    -0.315 A  
HETATM   11  N   UNL     1     -12.308  11.007  70.016  1.00  0.00    -0.319 NA 
HETATM   12  C   UNL     1     -11.175  12.318  68.323  1.00  0.00    -0.315 A  
HETATM   13  H   UNL     1     -12.451  10.219  69.383  1.00  0.00     0.000 HD 
HETATM   14  C   UNL     1     -12.554  10.875  71.438  1.00  0.00    -0.403 C  
HETATM   15  C   UNL     1     -10.797  13.551  67.764  1.00  0.00    -0.253 A  
HETATM   16  N   UNL     1     -13.602  11.809  71.763  1.00  0.00    -0.060 N  
HETATM   17 CL   UNL     1      -9.923  13.485  66.274  1.00  0.00    -0.293 Cl 
HETATM   18  O   UNL     1     -14.307  14.193  71.485  1.00  0.00    -0.339 OA 
HETATM   19  S   UNL     1     -13.110  13.403  71.665  1.00  0.00    -0.336 S  
HETATM   20  O   UNL     1     -12.170  13.650  72.733  1.00  0.00     0.361 OA 
HETATM   21  H   UNL     1     -14.546  11.527  72.027  1.00  0.00     0.000 HD 
BRANCH  14  22
HETATM   22  C   UNL     1     -13.052   9.456  71.763  1.00  0.00    -0.488 C  
BRANCH  22  23
HETATM   23  C   UNL     1     -11.945   8.493  72.214  1.00  0.00    -0.454 C  
HETATM   24  C   UNL     1     -12.328   7.016  72.136  1.00  0.00    -0.226 C  
HETATM   25  C   UNL     1     -10.983   6.311  72.183  1.00  0.00    -0.298 C  
HETATM   26  C   UNL     1     -10.072   7.182  71.329  1.00  0.00    -0.196 C  
HETATM   27  C   UNL     1     -10.692   8.581  71.331  1.00  0.00    -0.317 C  
ENDBRANCH  22  23
ENDBRANCH  14  22
ENDBRANCH   2   7
TORSDOF 3
ENDMDL
MODEL       95
REMARK 921   NORMALIZED FREE ENERGY PREDICTED BY IDOCK:   -4.77 KCAL/MOL
REMARK 922        TOTAL FREE ENERGY PREDICTED BY IDOCK:   -5.84 KCAL/MOL
REMARK 923 INTER-LIGAND FREE ENERGY PREDICTED BY IDOCK:   -5.68 KCAL/MOL
REMARK 924 INTRA-LIGAND FREE ENERGY PREDICTED BY IDOCK:   -0.16 KCAL/MOL
REMARK 927      BINDING AFFINITY PREDICTED BY RF-SCORE:    0.00 PKD
ROOT
HETATM    1  N   UNL     1     -10.538  12.850  69.090  1.00  0.00    -0.441 N  
HETATM    2  S   UNL     1     -10.628  11.326  68.390  1.00  0.00    -0.210 S  
HETATM    3  H2  UNL     1     -11.241  13.589  69.059  1.00  0.00     0.000 HD 
HETATM    4  H1  UNL     1      -9.629  12.877  69.552  1.00  0.00     0.000 HD 
HETATM    5  O   UNL     1     -11.918  11.288  67.734  1.00  0.00    -0.637 OA 
HETATM    6  O   UNL     1      -9.406  11.106  67.669  1.00  0.00    -0.162 OA 
ENDROOT
BRANCH   2   7
HETATM    7  C   UNL     1     -10.671  10.257  69.794  1.00  0.00    -0.285 A  
HETATM    8  C   UNL     1      -9.616   9.358  69.988  1.00  0.00    -0.256 A  
HETATM    9  C   UNL     1      -9.646   8.500  71.096  1.00  0.00    -0.193 A  
HETATM   10  C   UNL     1     -10.684   8.512  72.029  1.00  0.00    -0.340 A  
HETATM   11  N   UNL     1     -10.664   7.733  73.186  1.00  0.00    -0.385 NA 
HETATM   12  C   UNL     1     -11.715   9.439  71.824  1.00  0.00    -0.444 A  
HETATM   13  H   UNL     1     -11.151   8.035  74.030  1.00  0.00     0.000 HD 
HETATM   14  C   UNL     1      -9.933   6.483  73.154  1.00  0.00    -0.178 C  
HETATM   15  C   UNL     1     -11.722  10.304  70.716  1.00  0.00    -0.360 A  
HETATM   16  N   UNL     1      -8.556   6.818  72.889  1.00  0.00    -0.117 N  
HETATM   17 CL   UNL     1     -13.071  11.377  70.585  1.00  0.00    -0.036 Cl 
HETATM   18  O   UNL     1      -7.084   8.149  71.366  1.00  0.00    -0.058 OA 
HETATM   19  S   UNL     1      -8.307   7.380  71.335  1.00  0.00    -0.113 S  
HETATM   20  O   UNL     1      -8.511   6.280  70.422  1.00  0.00    -0.130 OA 
HETATM   21  H   UNL     1      -7.810   6.722  73.579  1.00  0.00     0.000 HD 
BRANCH  14  22
HETATM   22  C   UNL     1     -10.007   5.787  74.524  1.00  0.00    -0.289 C  
BRANCH  22  23
HETATM   23  C   UNL     1     -10.175   4.263  74.443  1.00  0.00    -0.273 C  
HETATM   24  C   UNL     1     -11.247   3.802  73.456  1.00  0.00    -0.299 C  
HETATM   25  C   UNL     1     -10.902   2.339  73.237  1.00  0.00    -0.282 C  
HETATM   26  C   UNL     1      -9.380   2.314  73.185  1.00  0.00    -0.105 C  
HETATM   27  C   UNL     1      -8.907   3.556  73.944  1.00  0.00    -0.088 C  
ENDBRANCH  22  23
ENDBRANCH  14  22
ENDBRANCH   2   7
TORSDOF 3
ENDMDL
MODEL       96
REMARK 921   NORMALIZED FREE ENERGY PREDICTED BY IDOCK:   -4.77 KCAL/MOL
REMARK 922        TOTAL FREE ENERGY PREDICTED BY IDOCK:   -5.84 KCAL/MOL
REMARK 923 INTER-LIGAND FREE ENERGY PREDICTED BY IDOCK:   -5.89 KCAL/MOL
REMARK 924 INTRA-LIGAND FREE ENERGY PREDICTED BY IDOCK:    0.05 KCAL/MOL
REMARK 927      BINDING AFFINITY PREDICTED BY RF-SCORE:    0.00 PKD
ROOT
HETATM    1  N   UNL     1      -9.097  10.281  64.193  1.00  0.00    -0.227 N  
HETATM    2  S   UNL     1      -8.280   9.906  65.610  1.00  0.00    -0.144 S  
HETATM    3  H2  UNL     1      -9.526   9.631  63.534  1.00  0.00     0.000 HD 
HETATM    4  H1  UNL     1      -9.071  11.299  64.133  1.00  0.00     0.000 HD 
HETATM    5  O   UNL     1      -8.316   8.461  65.696  1.00  0.00    -0.135 OA 
HETATM    6  O   UNL     1      -7.041  10.632  65.603  1.00  0.00    -0.136 OA 
ENDROOT
BRANCH   2   7
HETATM    7  C   UNL     1      -9.335  10.577  66.856  1.00  0.00    -0.159 A  
HETATM    8  C   UNL     1      -9.526   9.854  68.038  1.00  0.00    -0.147 A  
HETATM    9  C   UNL     1     -10.368  10.377  69.029  1.00  0.00    -0.214 A  
HETATM   10  C   UNL     1     -11.020  11.604  68.892  1.00  0.00    -0.233 A  
HETATM   11  N   UNL     1     -11.775  12.173  69.918  1.00  0.00    -0.454 NA 
HETATM   12  C   UNL     1     -10.792  12.318  67.708  1.00  0.00    -0.256 A  
HETATM   13  H   UNL     1     -11.876  13.185  69.996  1.00  0.00     0.000 HD 
HETATM   14  C   UNL     1     -12.411  11.285  70.870  1.00  0.00    -0.394 C  
HETATM   15  C   UNL     1      -9.964  11.815  66.690  1.00  0.00    -0.200 A  
HETATM   16  N   UNL     1     -11.354  10.558  71.525  1.00  0.00     0.195 N  
HETATM   17 CL   UNL     1      -9.795  12.800  65.278  1.00  0.00    -0.174 Cl 
HETATM   18  O   UNL     1      -9.288   9.215  71.090  1.00  0.00    -0.253 OA 
HETATM   19  S   UNL     1     -10.593   9.463  70.518  1.00  0.00    -0.296 S  
HETATM   20  O   UNL     1     -11.525   8.401  70.223  1.00  0.00    -0.198 OA 
HETATM   21  H   UNL     1     -11.096  10.696  72.503  1.00  0.00     0.000 HD 
BRANCH  14  22
HETATM   22  C   UNL     1     -13.170  12.099  71.932  1.00  0.00    -0.474 C  
BRANCH  22  23
HETATM   23  C   UNL     1     -13.063  13.620  71.749  1.00  0.00    -0.468 C  
HETATM   24  C   UNL     1     -14.367  14.376  72.001  1.00  0.00    -0.636 C  
HETATM   25  C   UNL     1     -13.899  15.807  72.201  1.00  0.00    -0.434 C  
HETATM   26  C   UNL     1     -12.616  15.673  73.011  1.00  0.00    -0.568 C  
HETATM   27  C   UNL     1     -12.082  14.266  72.738  1.00  0.00     0.115 C  
ENDBRANCH  22  23
ENDBRANCH  14  22
ENDBRANCH   2   7
TORSDOF 3
ENDMDL
MODEL       97
REMARK 921   NORMALIZED FREE ENERGY PREDICTED BY IDOCK:   -4.72 KCAL/MOL
REMARK 922        TOTAL FREE ENERGY PREDICTED BY IDOCK:   -5.79 KCAL/MOL
REMARK 923 INTER-LIGAND FREE ENERGY PREDICTED BY IDOCK:   -5.65 KCAL/MOL
REMARK 924 INTRA-LIGAND FREE ENERGY PREDICTED BY IDOCK:   -0.14 KCAL/MOL
REMARK 927      BINDING AFFINITY PREDICTED BY RF-SCORE:    0.00 PKD
ROOT
HETATM    1  N   UNL     1     -11.515  13.513  70.087  1.00  0.00    -0.510 N  
HETATM    2  S   UNL     1     -11.068  13.106  68.521  1.00  0.00    -0.281 S  
HETATM    3  H2  UNL     1     -12.408  13.899  70.396  1.00  0.00     0.000 HD 
HETATM    4  H1  UNL     1     -10.702  13.291  70.662  1.00  0.00     0.000 HD 
HETATM    5  O   UNL     1     -12.222  13.420  67.705  1.00  0.00    -0.291 OA 
HETATM    6  O   UNL     1      -9.782  13.693  68.270  1.00  0.00    -0.223 OA 
ENDROOT
BRANCH   2   7
HETATM    7  C   UNL     1     -10.895  11.351  68.611  1.00  0.00    -0.208 A  
HETATM    8  C   UNL     1     -10.981  10.729  69.861  1.00  0.00    -0.304 A  
HETATM    9  C   UNL     1     -10.836   9.338  69.942  1.00  0.00    -0.234 A  
HETATM   10  C   UNL     1     -10.621   8.537  68.818  1.00  0.00    -0.133 A  
HETATM   11  N   UNL     1     -10.581   7.144  68.884  1.00  0.00    -0.226 NA 
HETATM   12  C   UNL     1     -10.564   9.183  67.576  1.00  0.00    -0.317 A  
HETATM   13  H   UNL     1     -10.855   6.572  68.084  1.00  0.00     0.000 HD 
HETATM   14  C   UNL     1     -10.139   6.532  70.121  1.00  0.00    -0.174 C  
HETATM   15  C   UNL     1     -10.691  10.578  67.463  1.00  0.00    -0.276 A  
HETATM   16  N   UNL     1     -11.073   6.941  71.139  1.00  0.00    -0.250 N  
HETATM   17 CL   UNL     1     -10.578  11.235  65.867  1.00  0.00    -0.315 Cl 
HETATM   18  O   UNL     1     -12.223   8.942  72.105  1.00  0.00    -0.356 OA 
HETATM   19  S   UNL     1     -10.956   8.563  71.520  1.00  0.00    -0.293 S  
HETATM   20  O   UNL     1      -9.696   8.778  72.190  1.00  0.00    -0.307 OA 
HETATM   21  H   UNL     1     -11.737   6.305  71.582  1.00  0.00     0.000 HD 
BRANCH  14  22
HETATM   22  C   UNL     1     -10.190   4.999  70.004  1.00  0.00    -0.339 C  
BRANCH  22  23
HETATM   23  C   UNL     1      -9.226   4.419  68.960  1.00  0.00    -0.201 C  
HETATM   24  C   UNL     1      -9.851   4.195  67.584  1.00  0.00    -0.122 C  
HETATM   25  C   UNL     1      -8.640   4.071  66.675  1.00  0.00    -0.109 C  
HETATM   26  C   UNL     1      -7.665   5.114  67.202  1.00  0.00    -0.092 C  
HETATM   27  C   UNL     1      -8.044   5.355  68.665  1.00  0.00    -0.091 C  
ENDBRANCH  22  23
ENDBRANCH  14  22
ENDBRANCH   2   7
TORSDOF 3
ENDMDL
MODEL       98
REMARK 921   NORMALIZED FREE ENERGY PREDICTED BY IDOCK:   -4.71 KCAL/MOL
REMARK 922        TOTAL FREE ENERGY PREDICTED BY IDOCK:   -5.77 KCAL/MOL
REMARK 923 INTER-LIGAND FREE ENERGY PREDICTED BY IDOCK:   -5.83 KCAL/MOL
REMARK 924 INTRA-LIGAND FREE ENERGY PREDICTED BY IDOCK:    0.06 KCAL/MOL
REMARK 927      BINDING AFFINITY PREDICTED BY RF-SCORE:    0.00 PKD
ROOT
HETATM    1  N   UNL     1      -7.639  19.418  69.637  1.00  0.00    -0.019 N  
HETATM    2  S   UNL     1      -8.925  19.570  68.569  1.00  0.00    -0.313 S  
HETATM    3  H2  UNL     1      -7.608  19.707  70.615  1.00  0.00     0.000 HD 
HETATM    4  H1  UNL     1      -6.896  18.975  69.097  1.00  0.00     0.000 HD 
HETATM    5  O   UNL     1      -9.980  20.200  69.336  1.00  0.00    -0.193 OA 
HETATM    6  O   UNL     1      -8.418  20.155  67.359  1.00  0.00    -0.321 OA 
ENDROOT
BRANCH   2   7
HETATM    7  C   UNL     1      -9.371  17.891  68.257  1.00  0.00    -0.286 A  
HETATM    8  C   UNL     1     -10.256  17.255  69.134  1.00  0.00    -0.283 A  
HETATM    9  C   UNL     1     -10.609  15.920  68.897  1.00  0.00    -0.244 A  
HETATM   10  C   UNL     1     -10.122  15.194  67.808  1.00  0.00    -0.230 A  
HETATM   11  N   UNL     1     -10.552  13.901  67.513  1.00  0.00    -0.255 NA 
HETATM   12  C   UNL     1      -9.257  15.863  66.932  1.00  0.00    -0.247 A  
HETATM   13  H   UNL     1     -10.552  13.553  66.554  1.00  0.00     0.000 HD 
HETATM   14  C   UNL     1     -11.000  13.064  68.608  1.00  0.00    -0.265 C  
HETATM   15  C   UNL     1      -8.873  17.198  67.149  1.00  0.00    -0.220 A  
HETATM   16  N   UNL     1     -12.138  13.727  69.194  1.00  0.00    -0.352 N  
HETATM   17 CL   UNL     1      -7.783  17.883  65.994  1.00  0.00    -0.260 Cl 
HETATM   18  O   UNL     1     -12.933  15.934  70.064  1.00  0.00    -0.158 OA 
HETATM   19  S   UNL     1     -11.732  15.131  70.003  1.00  0.00    -0.333 S  
HETATM   20  O   UNL     1     -10.978  14.770  71.180  1.00  0.00    -0.072 OA 
HETATM   21  H   UNL     1     -13.093  13.375  69.123  1.00  0.00     0.000 HD 
BRANCH  14  22
HETATM   22  C   UNL     1     -11.457  11.694  68.080  1.00  0.00    -0.385 C  
BRANCH  22  23
HETATM   23  C   UNL     1     -10.803  10.500  68.791  1.00  0.00    -0.269 C  
HETATM   24  C   UNL     1      -9.318  10.687  69.096  1.00  0.00    -0.174 C  
HETATM   25  C   UNL     1      -9.050   9.630  70.152  1.00  0.00    -0.280 C  
HETATM   26  C   UNL     1     -10.290   9.657  71.036  1.00  0.00    -0.292 C  
HETATM   27  C   UNL     1     -11.417  10.230  70.173  1.00  0.00    -0.383 C  
ENDBRANCH  22  23
ENDBRANCH  14  22
ENDBRANCH   2   7
TORSDOF 3
ENDMDL
MODEL       99
REMARK 921   NORMALIZED FREE ENERGY PREDICTED BY IDOCK:   -4.69 KCAL/MOL
REMARK 922        TOTAL FREE ENERGY PREDICTED BY IDOCK:   -5.76 KCAL/MOL
REMARK 923 INTER-LIGAND FREE ENERGY PREDICTED BY IDOCK:   -5.66 KCAL/MOL
REMARK 924 INTRA-LIGAND FREE ENERGY PREDICTED BY IDOCK:   -0.10 KCAL/MOL
REMARK 927      BINDING AFFINITY PREDICTED BY RF-SCORE:    0.00 PKD
ROOT
HETATM    1  N   UNL     1      -9.398   5.423  71.244  1.00  0.00    -0.145 N  
HETATM    2  S   UNL     1      -8.491   6.735  71.766  1.00  0.00    -0.120 S  
HETATM    3  H2  UNL     1      -9.919   4.761  71.820  1.00  0.00     0.000 HD 
HETATM    4  H1  UNL     1      -9.317   5.431  70.228  1.00  0.00     0.000 HD 
HETATM    5  O   UNL     1      -8.607   6.725  73.209  1.00  0.00    -0.121 OA 
HETATM    6  O   UNL     1      -7.215   6.670  71.109  1.00  0.00    -0.075 OA 
ENDROOT
BRANCH   2   7
HETATM    7  C   UNL     1      -9.397   8.111  71.132  1.00  0.00    -0.154 A  
HETATM    8  C   UNL     1      -8.891   8.796  70.021  1.00  0.00    -0.149 A  
HETATM    9  C   UNL     1      -9.601   9.894  69.516  1.00  0.00    -0.225 A  
HETATM   10  C   UNL     1     -10.806  10.330  70.069  1.00  0.00    -0.307 A  
HETATM   11  N   UNL     1     -11.564  11.356  69.505  1.00  0.00    -0.300 NA 
HETATM   12  C   UNL     1     -11.302   9.611  71.165  1.00  0.00    -0.456 A  
HETATM   13  H   UNL     1     -12.578  11.383  69.620  1.00  0.00     0.000 HD 
HETATM   14  C   UNL     1     -10.872  12.381  68.752  1.00  0.00    -0.226 C  
HETATM   15  C   UNL     1     -10.608   8.514  71.704  1.00  0.00    -0.283 A  
HETATM   16  N   UNL     1     -10.233  11.718  67.643  1.00  0.00    -0.197 N  
HETATM   17 CL   UNL     1     -11.333   7.739  73.070  1.00  0.00    -0.420 Cl 
HETATM   18  O   UNL     1      -8.773   9.774  67.054  1.00  0.00    -0.133 OA 
HETATM   19  S   UNL     1      -8.960  10.743  68.111  1.00  0.00    -0.146 S  
HETATM   20  O   UNL     1      -7.893  11.593  68.584  1.00  0.00    -0.137 OA 
HETATM   21  H   UNL     1     -10.528  11.832  66.673  1.00  0.00     0.000 HD 
BRANCH  14  22
HETATM   22  C   UNL     1     -11.878  13.402  68.191  1.00  0.00    -0.396 C  
BRANCH  22  23
HETATM   23  C   UNL     1     -12.136  14.599  69.117  1.00  0.00    -0.283 C  
HETATM   24  C   UNL     1     -12.993  14.275  70.339  1.00  0.00    -0.179 C  
HETATM   25  C   UNL     1     -12.716  15.443  71.270  1.00  0.00    -0.501 C  
HETATM   26  C   UNL     1     -11.227  15.713  71.103  1.00  0.00    -0.409 C  
HETATM   27  C   UNL     1     -10.843  15.160  69.729  1.00  0.00    -0.298 C  
ENDBRANCH  22  23
ENDBRANCH  14  22
ENDBRANCH   2   7
TORSDOF 3
ENDMDL
MODEL      100
REMARK 921   NORMALIZED FREE ENERGY PREDICTED BY IDOCK:   -4.66 KCAL/MOL
REMARK 922        TOTAL FREE ENERGY PREDICTED BY IDOCK:   -5.71 KCAL/MOL
REMARK 923 INTER-LIGAND FREE ENERGY PREDICTED BY IDOCK:   -5.52 KCAL/MOL
REMARK 924 INTRA-LIGAND FREE ENERGY PREDICTED BY IDOCK:   -0.18 KCAL/MOL
REMARK 927      BINDING AFFINITY PREDICTED BY RF-SCORE:    0.00 PKD
ROOT
HETATM    1  N   UNL     1      -9.884  12.818  68.671  1.00  0.00    -0.398 N  
HETATM    2  S   UNL     1     -11.416  12.137  68.763  1.00  0.00    -0.332 S  
HETATM    3  H2  UNL     1      -9.456  13.472  69.327  1.00  0.00     0.000 HD 
HETATM    4  H1  UNL     1      -9.474  12.436  67.819  1.00  0.00     0.000 HD 
HETATM    5  O   UNL     1     -11.998  12.679  69.973  1.00  0.00    -0.339 OA 
HETATM    6  O   UNL     1     -12.043  12.304  67.482  1.00  0.00    -0.514 OA 
ENDROOT
BRANCH   2   7
HETATM    7  C   UNL     1     -11.066  10.425  69.016  1.00  0.00    -0.248 A  
HETATM    8  C   UNL     1     -11.330   9.862  70.269  1.00  0.00    -0.357 A  
HETATM    9  C   UNL     1     -11.047   8.506  70.479  1.00  0.00    -0.244 A  
HETATM   10  C   UNL     1     -10.522   7.682  69.482  1.00  0.00    -0.227 A  
HETATM   11  N   UNL     1     -10.338   6.311  69.658  1.00  0.00    -0.198 NA 
HETATM   12  C   UNL     1     -10.291   8.266  68.229  1.00  0.00    -0.242 A  
HETATM   13  H   UNL     1     -10.379   5.669  68.865  1.00  0.00     0.000 HD 
HETATM   14  C   UNL     1     -10.087   5.823  70.999  1.00  0.00    -0.205 C  
HETATM   15  C   UNL     1     -10.550   9.627  67.990  1.00  0.00    -0.243 A  
HETATM   16  N   UNL     1     -11.246   6.162  71.785  1.00  0.00    -0.274 N  
HETATM   17 CL   UNL     1     -10.195  10.211  66.401  1.00  0.00    -0.296 Cl 
HETATM   18  O   UNL     1     -12.786   8.048  72.359  1.00  0.00    -0.248 OA 
HETATM   19  S   UNL     1     -11.393   7.804  72.058  1.00  0.00    -0.304 S  
HETATM   20  O   UNL     1     -10.325   8.209  72.941  1.00  0.00    -0.318 OA 
HETATM   21  H   UNL     1     -11.909   5.471  72.138  1.00  0.00     0.000 HD 
BRANCH  14  22
HETATM   22  C   UNL     1      -9.939   4.291  70.990  1.00  0.00    -0.223 C  
BRANCH  22  23
HETATM   23  C   UNL     1      -8.799   3.768  71.875  1.00  0.00    -0.134 C  
HETATM   24  C   UNL     1      -8.153   2.479  71.371  1.00  0.00    -0.058 C  
HETATM   25  C   UNL     1      -6.834   2.441  72.122  1.00  0.00    -0.019 C  
HETATM   26  C   UNL     1      -6.364   3.890  72.130  1.00  0.00    -0.014 C  
HETATM   27  C   UNL     1      -7.619   4.748  71.957  1.00  0.00    -0.090 C  
ENDBRANCH  22  23
ENDBRANCH  14  22
ENDBRANCH   2   7
TORSDOF 3
ENDMDL
MODEL      101
REMARK 921   NORMALIZED FREE ENERGY PREDICTED BY IDOCK:   -4.65 KCAL/MOL
REMARK 922        TOTAL FREE ENERGY PREDICTED BY IDOCK:   -5.71 KCAL/MOL
REMARK 923 INTER-LIGAND FREE ENERGY PREDICTED BY IDOCK:   -6.06 KCAL/MOL
REMARK 924 INTRA-LIGAND FREE ENERGY PREDICTED BY IDOCK:    0.35 KCAL/MOL
REMARK 927      BINDING AFFINITY PREDICTED BY RF-SCORE:    0.00 PKD
ROOT
HETATM    1  N   UNL     1     -13.057  13.875  65.468  1.00  0.00    -0.682 N  
HETATM    2  S   UNL     1     -11.677  12.923  65.382  1.00  0.00    -0.400 S  
HETATM    3  H2  UNL     1     -13.819  13.801  66.141  1.00  0.00     0.000 HD 
HETATM    4  H1  UNL     1     -12.967  14.543  64.702  1.00  0.00     0.000 HD 
HETATM    5  O   UNL     1     -11.803  11.975  66.469  1.00  0.00    -0.585 OA 
HETATM    6  O   UNL     1     -11.529  12.495  64.019  1.00  0.00    -0.346 OA 
ENDROOT
BRANCH   2   7
HETATM    7  C   UNL     1     -10.390  14.068  65.770  1.00  0.00    -0.319 A  
HETATM    8  C   UNL     1      -9.310  13.630  66.543  1.00  0.00    -0.242 A  
HETATM    9  C   UNL     1      -8.288  14.535  66.862  1.00  0.00    -0.101 A  
HETATM   10  C   UNL     1      -8.295  15.862  66.427  1.00  0.00    -0.275 A  
HETATM   11  N   UNL     1      -7.230  16.733  66.656  1.00  0.00    -0.236 NA 
HETATM   12  C   UNL     1      -9.377  16.267  65.634  1.00  0.00    -0.045 A  
HETATM   13  H   UNL     1      -7.034  17.502  66.014  1.00  0.00     0.000 HD 
HETATM   14  C   UNL     1      -6.411  16.517  67.831  1.00  0.00    -0.135 C  
HETATM   15  C   UNL     1     -10.424  15.388  65.308  1.00  0.00    -0.415 A  
HETATM   16  N   UNL     1      -5.818  15.211  67.684  1.00  0.00    -0.101 N  
HETATM   17 CL   UNL     1     -11.701  16.037  64.339  1.00  0.00    -0.287 Cl 
HETATM   18  O   UNL     1      -6.352  12.825  67.158  1.00  0.00    -0.227 OA 
HETATM   19  S   UNL     1      -6.927  13.970  67.828  1.00  0.00    -0.184 S  
HETATM   20  O   UNL     1      -7.376  13.924  69.199  1.00  0.00    -0.092 OA 
HETATM   21  H   UNL     1      -4.824  15.060  67.511  1.00  0.00     0.000 HD 
BRANCH  14  22
HETATM   22  C   UNL     1      -5.281  17.558  67.892  1.00  0.00    -0.130 C  
BRANCH  22  23
HETATM   23  C   UNL     1      -5.766  18.994  68.138  1.00  0.00    -0.208 C  
HETATM   24  C   UNL     1      -5.966  19.815  66.866  1.00  0.00    -0.177 C  
HETATM   25  C   UNL     1      -6.843  20.963  67.335  1.00  0.00    -0.434 C  
HETATM   26  C   UNL     1      -7.824  20.316  68.304  1.00  0.00    -0.086 C  
HETATM   27  C   UNL     1      -7.145  19.042  68.812  1.00  0.00    -0.353 C  
ENDBRANCH  22  23
ENDBRANCH  14  22
ENDBRANCH   2   7
TORSDOF 3
ENDMDL
MODEL      102
REMARK 921   NORMALIZED FREE ENERGY PREDICTED BY IDOCK:   -4.64 KCAL/MOL
REMARK 922        TOTAL FREE ENERGY PREDICTED BY IDOCK:   -5.69 KCAL/MOL
REMARK 923 INTER-LIGAND FREE ENERGY PREDICTED BY IDOCK:   -5.26 KCAL/MOL
REMARK 924 INTRA-LIGAND FREE ENERGY PREDICTED BY IDOCK:   -0.43 KCAL/MOL
REMARK 927      BINDING AFFINITY PREDICTED BY RF-SCORE:    0.00 PKD
ROOT
HETATM    1  N   UNL     1      -7.946  19.660  68.784  1.00  0.00    -0.322 N  
HETATM    2  S   UNL     1      -6.719  18.515  68.795  1.00  0.00    -0.273 S  
HETATM    3  H2  UNL     1      -8.179  20.312  68.034  1.00  0.00     0.000 HD 
HETATM    4  H1  UNL     1      -8.409  19.563  69.687  1.00  0.00     0.000 HD 
HETATM    5  O   UNL     1      -6.062  18.653  67.512  1.00  0.00    -0.179 OA 
HETATM    6  O   UNL     1      -6.002  18.660  70.031  1.00  0.00    -0.249 OA 
ENDROOT
BRANCH   2   7
HETATM    7  C   UNL     1      -7.610  16.991  68.819  1.00  0.00    -0.243 A  
HETATM    8  C   UNL     1      -9.003  17.027  68.942  1.00  0.00    -0.210 A  
HETATM    9  C   UNL     1      -9.716  15.822  68.969  1.00  0.00    -0.242 A  
HETATM   10  C   UNL     1      -9.094  14.576  68.866  1.00  0.00    -0.111 A  
HETATM   11  N   UNL     1      -9.811  13.382  68.789  1.00  0.00    -0.418 NA 
HETATM   12  C   UNL     1      -7.701  14.570  68.719  1.00  0.00    -0.140 A  
HETATM   13  H   UNL     1      -9.429  12.572  68.299  1.00  0.00     0.000 HD 
HETATM   14  C   UNL     1     -11.112  13.325  69.423  1.00  0.00    -0.090 C  
HETATM   15  C   UNL     1      -6.954  15.761  68.702  1.00  0.00    -0.124 A  
HETATM   16  N   UNL     1     -11.933  14.312  68.767  1.00  0.00    -0.437 N  
HETATM   17 CL   UNL     1      -5.241  15.594  68.536  1.00  0.00    -0.093 Cl 
HETATM   18  O   UNL     1     -11.979  16.705  68.041  1.00  0.00     0.375 OA 
HETATM   19  S   UNL     1     -11.471  15.880  69.114  1.00  0.00    -0.370 S  
HETATM   20  O   UNL     1     -11.770  16.140  70.502  1.00  0.00    -0.352 OA 
HETATM   21  H   UNL     1     -12.715  14.077  68.156  1.00  0.00     0.000 HD 
BRANCH  14  22
HETATM   22  C   UNL     1     -11.750  11.942  69.205  1.00  0.00    -0.389 C  
BRANCH  22  23
HETATM   23  C   UNL     1     -10.747  10.843  68.828  1.00  0.00    -0.243 C  
HETATM   24  C   UNL     1     -10.873   9.566  69.658  1.00  0.00    -0.255 C  
HETATM   25  C   UNL     1     -10.131   8.539  68.820  1.00  0.00    -0.210 C  
HETATM   26  C   UNL     1     -10.518   8.874  67.386  1.00  0.00    -0.347 C  
HETATM   27  C   UNL     1     -10.930  10.347  67.386  1.00  0.00    -0.335 C  
ENDBRANCH  22  23
ENDBRANCH  14  22
ENDBRANCH   2   7
TORSDOF 3
ENDMDL
MODEL      103
REMARK 921   NORMALIZED FREE ENERGY PREDICTED BY IDOCK:   -4.62 KCAL/MOL
REMARK 922        TOTAL FREE ENERGY PREDICTED BY IDOCK:   -5.67 KCAL/MOL
REMARK 923 INTER-LIGAND FREE ENERGY PREDICTED BY IDOCK:   -5.77 KCAL/MOL
REMARK 924 INTRA-LIGAND FREE ENERGY PREDICTED BY IDOCK:    0.10 KCAL/MOL
REMARK 927      BINDING AFFINITY PREDICTED BY RF-SCORE:    0.00 PKD
ROOT
HETATM    1  N   UNL     1     -11.240   4.918  65.777  1.00  0.00    -0.893 N  
HETATM    2  S   UNL     1      -9.725   5.359  66.349  1.00  0.00    -0.173 S  
HETATM    3  H2  UNL     1     -11.830   4.155  66.109  1.00  0.00     0.000 HD 
HETATM    4  H1  UNL     1     -11.443   5.578  65.026  1.00  0.00     0.000 HD 
HETATM    5  O   UNL     1      -9.437   4.423  67.415  1.00  0.00    -0.148 OA 
HETATM    6  O   UNL     1      -8.857   5.503  65.214  1.00  0.00    -0.156 OA 
ENDROOT
BRANCH   2   7
HETATM    7  C   UNL     1     -10.024   6.951  67.053  1.00  0.00    -0.197 A  
HETATM    8  C   UNL     1      -9.767   8.088  66.280  1.00  0.00    -0.197 A  
HETATM    9  C   UNL     1      -9.994   9.354  66.833  1.00  0.00    -0.229 A  
HETATM   10  C   UNL     1     -10.482   9.533  68.129  1.00  0.00    -0.223 A  
HETATM   11  N   UNL     1     -10.807  10.788  68.644  1.00  0.00    -0.203 NA 
HETATM   12  C   UNL     1     -10.754   8.377  68.873  1.00  0.00    -0.095 A  
HETATM   13  H   UNL     1     -11.527  10.892  69.360  1.00  0.00     0.000 HD 
HETATM   14  C   UNL     1     -10.093  11.940  68.134  1.00  0.00    -0.198 C  
HETATM   15  C   UNL     1     -10.524   7.092  68.351  1.00  0.00    -0.201 A  
HETATM   16  N   UNL     1     -10.383  12.014  66.724  1.00  0.00    -0.205 N  
HETATM   17 CL   UNL     1     -10.887   5.761  69.394  1.00  0.00    -0.403 Cl 
HETATM   18  O   UNL     1     -10.440  10.654  64.626  1.00  0.00    -0.336 OA 
HETATM   19  S   UNL     1      -9.677  10.780  65.847  1.00  0.00    -0.238 S  
HETATM   20  O   UNL     1      -8.248  10.985  65.852  1.00  0.00    -0.160 OA 
HETATM   21  H   UNL     1     -10.959  12.744  66.305  1.00  0.00     0.000 HD 
BRANCH  14  22
HETATM   22  C   UNL     1     -10.609  13.226  68.802  1.00  0.00    -0.224 C  
BRANCH  22  23
HETATM   23  C   UNL     1     -10.532  14.471  67.906  1.00  0.00    -0.242 C  
HETATM   24  C   UNL     1     -11.323  15.670  68.427  1.00  0.00    -0.365 C  
HETATM   25  C   UNL     1     -10.731  16.833  67.650  1.00  0.00    -0.305 C  
HETATM   26  C   UNL     1      -9.239  16.530  67.598  1.00  0.00    -0.200 C  
HETATM   27  C   UNL     1      -9.103  15.017  67.777  1.00  0.00    -0.180 C  
ENDBRANCH  22  23
ENDBRANCH  14  22
ENDBRANCH   2   7
TORSDOF 3
ENDMDL
MODEL      104
REMARK 921   NORMALIZED FREE ENERGY PREDICTED BY IDOCK:   -4.62 KCAL/MOL
REMARK 922        TOTAL FREE ENERGY PREDICTED BY IDOCK:   -5.66 KCAL/MOL
REMARK 923 INTER-LIGAND FREE ENERGY PREDICTED BY IDOCK:   -5.37 KCAL/MOL
REMARK 924 INTRA-LIGAND FREE ENERGY PREDICTED BY IDOCK:   -0.30 KCAL/MOL
REMARK 927      BINDING AFFINITY PREDICTED BY RF-SCORE:    0.00 PKD
ROOT
HETATM    1  N   UNL     1      -8.484  19.262  66.083  1.00  0.00    -0.316 N  
HETATM    2  S   UNL     1      -7.322  18.763  67.188  1.00  0.00    -0.214 S  
HETATM    3  H2  UNL     1      -8.368  19.391  65.078  1.00  0.00     0.000 HD 
HETATM    4  H1  UNL     1      -9.329  19.407  66.635  1.00  0.00     0.000 HD 
HETATM    5  O   UNL     1      -6.121  18.555  66.406  1.00  0.00    -0.152 OA 
HETATM    6  O   UNL     1      -7.355  19.677  68.295  1.00  0.00    -0.296 OA 
ENDROOT
BRANCH   2   7
HETATM    7  C   UNL     1      -7.937  17.194  67.716  1.00  0.00    -0.184 A  
HETATM    8  C   UNL     1      -8.938  16.575  66.961  1.00  0.00    -0.224 A  
HETATM    9  C   UNL     1      -9.437  15.333  67.377  1.00  0.00    -0.199 A  
HETATM   10  C   UNL     1      -8.965  14.676  68.515  1.00  0.00    -0.184 A  
HETATM   11  N   UNL     1      -9.386  13.395  68.873  1.00  0.00    -0.392 NA 
HETATM   12  C   UNL     1      -7.945  15.307  69.239  1.00  0.00    -0.223 A  
HETATM   13  H   UNL     1      -8.775  12.769  69.397  1.00  0.00     0.000 HD 
HETATM   14  C   UNL     1     -10.716  12.979  68.477  1.00  0.00    -0.255 C  
HETATM   15  C   UNL     1      -7.433  16.559  68.855  1.00  0.00    -0.225 A  
HETATM   16  N   UNL     1     -10.745  13.008  67.036  1.00  0.00    -0.257 N  
HETATM   17 CL   UNL     1      -6.191  17.223  69.859  1.00  0.00    -0.199 Cl 
HETATM   18  O   UNL     1     -10.201  14.439  65.058  1.00  0.00    -0.409 OA 
HETATM   19  S   UNL     1     -10.691  14.557  66.413  1.00  0.00    -0.316 S  
HETATM   20  O   UNL     1     -11.935  15.215  66.734  1.00  0.00    -0.099 OA 
HETATM   21  H   UNL     1     -10.795  12.170  66.457  1.00  0.00     0.000 HD 
BRANCH  14  22
HETATM   22  C   UNL     1     -10.982  11.535  68.937  1.00  0.00    -0.279 C  
BRANCH  22  23
HETATM   23  C   UNL     1      -9.785  10.591  68.755  1.00  0.00    -0.187 C  
HETATM   24  C   UNL     1      -9.600   9.585  69.890  1.00  0.00    -0.250 C  
HETATM   25  C   UNL     1      -8.694   8.535  69.272  1.00  0.00    -0.133 C  
HETATM   26  C   UNL     1      -9.205   8.390  67.845  1.00  0.00    -0.144 C  
HETATM   27  C   UNL     1      -9.921   9.700  67.511  1.00  0.00    -0.231 C  
ENDBRANCH  22  23
ENDBRANCH  14  22
ENDBRANCH   2   7
TORSDOF 3
ENDMDL
MODEL      105
REMARK 921   NORMALIZED FREE ENERGY PREDICTED BY IDOCK:   -4.60 KCAL/MOL
REMARK 922        TOTAL FREE ENERGY PREDICTED BY IDOCK:   -5.64 KCAL/MOL
REMARK 923 INTER-LIGAND FREE ENERGY PREDICTED BY IDOCK:   -5.32 KCAL/MOL
REMARK 924 INTRA-LIGAND FREE ENERGY PREDICTED BY IDOCK:   -0.33 KCAL/MOL
REMARK 927      BINDING AFFINITY PREDICTED BY RF-SCORE:    0.00 PKD
ROOT
HETATM    1  N   UNL     1      -8.061  17.911  66.330  1.00  0.00    -0.265 N  
HETATM    2  S   UNL     1      -6.895  17.028  67.154  1.00  0.00    -0.199 S  
HETATM    3  H2  UNL     1      -7.978  18.337  65.407  1.00  0.00     0.000 HD 
HETATM    4  H1  UNL     1      -8.869  17.929  66.952  1.00  0.00     0.000 HD 
HETATM    5  O   UNL     1      -5.747  17.002  66.272  1.00  0.00    -0.321 OA 
HETATM    6  O   UNL     1      -6.813  17.556  68.488  1.00  0.00    -0.195 OA 
ENDROOT
BRANCH   2   7
HETATM    7  C   UNL     1      -7.604  15.412  67.216  1.00  0.00    -0.212 A  
HETATM    8  C   UNL     1      -8.922  15.238  66.781  1.00  0.00    -0.291 A  
HETATM    9  C   UNL     1      -9.494  13.960  66.834  1.00  0.00    -0.258 A  
HETATM   10  C   UNL     1      -8.796  12.841  67.294  1.00  0.00    -0.198 A  
HETATM   11  N   UNL     1      -9.329  11.553  67.250  1.00  0.00    -0.165 NA 
HETATM   12  C   UNL     1      -7.470  13.040  67.700  1.00  0.00    -0.156 A  
HETATM   13  H   UNL     1      -8.722  10.737  67.165  1.00  0.00     0.000 HD 
HETATM   14  C   UNL     1     -10.768  11.406  67.328  1.00  0.00    -0.241 C  
HETATM   15  C   UNL     1      -6.871  14.312  67.672  1.00  0.00    -0.182 A  
HETATM   16  N   UNL     1     -11.314  12.090  66.183  1.00  0.00    -0.345 N  
HETATM   17 CL   UNL     1      -5.236  14.405  68.225  1.00  0.00    -0.107 Cl 
HETATM   18  O   UNL     1     -11.229  14.247  64.918  1.00  0.00    -0.344 OA 
HETATM   19  S   UNL     1     -11.151  13.750  66.274  1.00  0.00    -0.306 S  
HETATM   20  O   UNL     1     -12.015  14.229  67.327  1.00  0.00    -0.401 OA 
HETATM   21  H   UNL     1     -11.755  11.610  65.398  1.00  0.00     0.000 HD 
BRANCH  14  22
HETATM   22  C   UNL     1     -11.158   9.921  67.236  1.00  0.00    -0.063 C  
BRANCH  22  23
HETATM   23  C   UNL     1     -10.903   9.127  68.526  1.00  0.00    -0.089 C  
HETATM   24  C   UNL     1      -9.526   8.469  68.595  1.00  0.00    -0.144 C  
HETATM   25  C   UNL     1      -9.367   8.165  70.075  1.00  0.00    -0.159 C  
HETATM   26  C   UNL     1      -9.960   9.381  70.774  1.00  0.00    -0.358 C  
HETATM   27  C   UNL     1     -10.935  10.013  69.780  1.00  0.00    -0.317 C  
ENDBRANCH  22  23
ENDBRANCH  14  22
ENDBRANCH   2   7
TORSDOF 3
ENDMDL
MODEL      106
REMARK 921   NORMALIZED FREE ENERGY PREDICTED BY IDOCK:   -4.60 KCAL/MOL
REMARK 922        TOTAL FREE ENERGY PREDICTED BY IDOCK:   -5.64 KCAL/MOL
REMARK 923 INTER-LIGAND FREE ENERGY PREDICTED BY IDOCK:   -5.42 KCAL/MOL
REMARK 924 INTRA-LIGAND FREE ENERGY PREDICTED BY IDOCK:   -0.22 KCAL/MOL
REMARK 927      BINDING AFFINITY PREDICTED BY RF-SCORE:    0.00 PKD
ROOT
HETATM    1  N   UNL     1      -7.536   6.257  68.133  1.00  0.00    -0.100 N  
HETATM    2  S   UNL     1      -8.188   6.778  66.677  1.00  0.00    -0.118 S  
HETATM    3  H2  UNL     1      -6.551   6.223  68.394  1.00  0.00     0.000 HD 
HETATM    4  H1  UNL     1      -8.339   5.983  68.700  1.00  0.00     0.000 HD 
HETATM    5  O   UNL     1      -7.050   7.168  65.872  1.00  0.00    -0.066 OA 
HETATM    6  O   UNL     1      -9.120   5.778  66.235  1.00  0.00    -0.140 OA 
ENDROOT
BRANCH   2   7
HETATM    7  C   UNL     1      -9.078   8.229  67.146  1.00  0.00    -0.139 A  
HETATM    8  C   UNL     1      -9.517   8.351  68.469  1.00  0.00    -0.149 A  
HETATM    9  C   UNL     1     -10.231   9.496  68.848  1.00  0.00    -0.199 A  
HETATM   10  C   UNL     1     -10.514  10.535  67.958  1.00  0.00    -0.197 A  
HETATM   11  N   UNL     1     -11.133  11.719  68.359  1.00  0.00    -0.218 NA 
HETATM   12  C   UNL     1     -10.042  10.398  66.647  1.00  0.00    -0.279 A  
HETATM   13  H   UNL     1     -10.956  12.596  67.867  1.00  0.00     0.000 HD 
HETATM   14  C   UNL     1     -12.034  11.669  69.492  1.00  0.00    -0.317 C  
HETATM   15  C   UNL     1      -9.334   9.255  66.231  1.00  0.00    -0.200 A  
HETATM   16  N   UNL     1     -11.249  11.241  70.623  1.00  0.00    -0.191 N  
HETATM   17 CL   UNL     1      -8.834   9.219  64.577  1.00  0.00    -0.222 Cl 
HETATM   18  O   UNL     1      -9.612   9.504  71.373  1.00  0.00    -0.217 OA 
HETATM   19  S   UNL     1     -10.770   9.644  70.518  1.00  0.00    -0.333 S  
HETATM   20  O   UNL     1     -11.942   8.813  70.657  1.00  0.00    -0.199 OA 
HETATM   21  H   UNL     1     -11.012  11.850  71.407  1.00  0.00     0.000 HD 
BRANCH  14  22
HETATM   22  C   UNL     1     -12.590  13.071  69.792  1.00  0.00     0.166 C  
BRANCH  22  23
HETATM   23  C   UNL     1     -12.359  13.540  71.236  1.00  0.00    -0.325 C  
HETATM   24  C   UNL     1     -11.681  14.904  71.353  1.00  0.00    -0.387 C  
HETATM   25  C   UNL     1     -11.981  15.313  72.784  1.00  0.00    -0.522 C  
HETATM   26  C   UNL     1     -13.416  14.857  73.013  1.00  0.00    -0.496 C  
HETATM   27  C   UNL     1     -13.671  13.729  72.012  1.00  0.00    -0.572 C  
ENDBRANCH  22  23
ENDBRANCH  14  22
ENDBRANCH   2   7
TORSDOF 3
ENDMDL
MODEL      107
REMARK 921   NORMALIZED FREE ENERGY PREDICTED BY IDOCK:   -4.59 KCAL/MOL
REMARK 922        TOTAL FREE ENERGY PREDICTED BY IDOCK:   -5.64 KCAL/MOL
REMARK 923 INTER-LIGAND FREE ENERGY PREDICTED BY IDOCK:   -5.49 KCAL/MOL
REMARK 924 INTRA-LIGAND FREE ENERGY PREDICTED BY IDOCK:   -0.14 KCAL/MOL
REMARK 927      BINDING AFFINITY PREDICTED BY RF-SCORE:    0.00 PKD
ROOT
HETATM    1  N   UNL     1     -10.278   4.132  66.025  1.00  0.00    -0.432 N  
HETATM    2  S   UNL     1      -8.863   4.902  66.496  1.00  0.00    -0.113 S  
HETATM    3  H2  UNL     1     -10.850   3.493  66.578  1.00  0.00     0.000 HD 
HETATM    4  H1  UNL     1     -10.442   4.441  65.067  1.00  0.00     0.000 HD 
HETATM    5  O   UNL     1      -8.629   4.464  67.856  1.00  0.00    -0.101 OA 
HETATM    6  O   UNL     1      -7.891   4.698  65.459  1.00  0.00    -0.092 OA 
ENDROOT
BRANCH   2   7
HETATM    7  C   UNL     1      -9.335   6.603  66.518  1.00  0.00    -0.159 A  
HETATM    8  C   UNL     1      -8.770   7.471  65.578  1.00  0.00    -0.062 A  
HETATM    9  C   UNL     1      -9.134   8.824  65.593  1.00  0.00    -0.191 A  
HETATM   10  C   UNL     1     -10.053   9.346  66.506  1.00  0.00    -0.262 A  
HETATM   11  N   UNL     1     -10.494  10.668  66.456  1.00  0.00    -0.239 NA 
HETATM   12  C   UNL     1     -10.623   8.450  67.420  1.00  0.00    -0.313 A  
HETATM   13  H   UNL     1     -11.421  10.926  66.797  1.00  0.00     0.000 HD 
HETATM   14  C   UNL     1      -9.598  11.666  65.907  1.00  0.00    -0.229 C  
HETATM   15  C   UNL     1     -10.269   7.089  67.440  1.00  0.00    -0.215 A  
HETATM   16  N   UNL     1      -9.352  11.288  64.538  1.00  0.00    -0.362 N  
HETATM   17 CL   UNL     1     -11.038   6.110  68.639  1.00  0.00    -0.421 Cl 
HETATM   18  O   UNL     1      -8.693   9.360  63.087  1.00  0.00    -0.213 OA 
HETATM   19  S   UNL     1      -8.423   9.906  64.398  1.00  0.00    -0.193 S  
HETATM   20  O   UNL     1      -7.088  10.214  64.852  1.00  0.00    -0.133 OA 
HETATM   21  H   UNL     1      -9.706  11.811  63.737  1.00  0.00     0.000 HD 
BRANCH  14  22
HETATM   22  C   UNL     1     -10.272  13.049  65.914  1.00  0.00    -0.298 C  
BRANCH  22  23
HETATM   23  C   UNL     1     -10.404  13.673  67.310  1.00  0.00    -0.249 C  
HETATM   24  C   UNL     1      -9.528  14.904  67.533  1.00  0.00    -0.200 C  
HETATM   25  C   UNL     1     -10.161  15.559  68.748  1.00  0.00    -0.212 C  
HETATM   26  C   UNL     1     -11.659  15.392  68.528  1.00  0.00    -0.373 C  
HETATM   27  C   UNL     1     -11.822  14.191  67.593  1.00  0.00    -0.427 C  
ENDBRANCH  22  23
ENDBRANCH  14  22
ENDBRANCH   2   7
TORSDOF 3
ENDMDL
MODEL      108
REMARK 921   NORMALIZED FREE ENERGY PREDICTED BY IDOCK:   -4.58 KCAL/MOL
REMARK 922        TOTAL FREE ENERGY PREDICTED BY IDOCK:   -5.62 KCAL/MOL
REMARK 923 INTER-LIGAND FREE ENERGY PREDICTED BY IDOCK:   -5.75 KCAL/MOL
REMARK 924 INTRA-LIGAND FREE ENERGY PREDICTED BY IDOCK:    0.13 KCAL/MOL
REMARK 927      BINDING AFFINITY PREDICTED BY RF-SCORE:    0.00 PKD
ROOT
HETATM    1  N   UNL     1     -12.282   6.622  70.006  1.00  0.00    -0.520 N  
HETATM    2  S   UNL     1     -10.750   6.490  69.333  1.00  0.00    -0.309 S  
HETATM    3  H2  UNL     1     -12.574   6.342  70.943  1.00  0.00     0.000 HD 
HETATM    4  H1  UNL     1     -12.858   7.043  69.277  1.00  0.00     0.000 HD 
HETATM    5  O   UNL     1      -9.933   5.892  70.368  1.00  0.00    -0.178 OA 
HETATM    6  O   UNL     1     -10.895   5.883  68.039  1.00  0.00    -0.269 OA 
ENDROOT
BRANCH   2   7
HETATM    7  C   UNL     1     -10.269   8.176  69.129  1.00  0.00    -0.214 A  
HETATM    8  C   UNL     1      -9.714   8.575  67.908  1.00  0.00    -0.193 A  
HETATM    9  C   UNL     1      -9.322   9.909  67.741  1.00  0.00    -0.140 A  
HETATM   10  C   UNL     1      -9.475  10.870  68.743  1.00  0.00    -0.190 A  
HETATM   11  N   UNL     1      -9.182  12.219  68.542  1.00  0.00    -0.360 NA 
HETATM   12  C   UNL     1     -10.056  10.449  69.946  1.00  0.00    -0.144 A  
HETATM   13  H   UNL     1      -9.671  12.946  69.065  1.00  0.00     0.000 HD 
HETATM   14  C   UNL     1      -8.164  12.559  67.569  1.00  0.00    -0.175 C  
HETATM   15  C   UNL     1     -10.448   9.114  70.150  1.00  0.00    -0.218 A  
HETATM   16  N   UNL     1      -8.631  12.071  66.296  1.00  0.00    -0.390 N  
HETATM   17 CL   UNL     1     -11.131   8.740  71.694  1.00  0.00    -0.372 Cl 
HETATM   18  O   UNL     1      -9.575  10.053  65.157  1.00  0.00    -0.250 OA 
HETATM   19  S   UNL     1      -8.633  10.403  66.196  1.00  0.00    -0.150 S  
HETATM   20  O   UNL     1      -7.261   9.952  66.185  1.00  0.00    -0.096 OA 
HETATM   21  H   UNL     1      -8.930  12.680  65.534  1.00  0.00     0.000 HD 
BRANCH  14  22
HETATM   22  C   UNL     1      -8.007  14.086  67.473  1.00  0.00    -0.199 C  
BRANCH  22  23
HETATM   23  C   UNL     1      -9.336  14.846  67.364  1.00  0.00    -0.202 C  
HETATM   24  C   UNL     1      -9.303  16.257  67.949  1.00  0.00    -0.209 C  
HETATM   25  C   UNL     1     -10.523  16.913  67.327  1.00  0.00    -0.301 C  
HETATM   26  C   UNL     1     -10.541  16.395  65.895  1.00  0.00    -0.294 C  
HETATM   27  C   UNL     1      -9.767  15.075  65.908  1.00  0.00    -0.376 C  
ENDBRANCH  22  23
ENDBRANCH  14  22
ENDBRANCH   2   7
TORSDOF 3
ENDMDL
MODEL      109
REMARK 921   NORMALIZED FREE ENERGY PREDICTED BY IDOCK:   -4.57 KCAL/MOL
REMARK 922        TOTAL FREE ENERGY PREDICTED BY IDOCK:   -5.61 KCAL/MOL
REMARK 923 INTER-LIGAND FREE ENERGY PREDICTED BY IDOCK:   -5.41 KCAL/MOL
REMARK 924 INTRA-LIGAND FREE ENERGY PREDICTED BY IDOCK:   -0.21 KCAL/MOL
REMARK 927      BINDING AFFINITY PREDICTED BY RF-SCORE:    0.00 PKD
ROOT
HETATM    1  N   UNL     1     -10.350   3.990  66.136  1.00  0.00    -0.382 N  
HETATM    2  S   UNL     1      -8.909   4.606  66.739  1.00  0.00    -0.112 S  
HETATM    3  H2  UNL     1     -11.023   3.399  66.623  1.00  0.00     0.000 HD 
HETATM    4  H1  UNL     1     -10.406   4.335  65.178  1.00  0.00     0.000 HD 
HETATM    5  O   UNL     1      -8.829   4.116  68.099  1.00  0.00    -0.100 OA 
HETATM    6  O   UNL     1      -7.881   4.331  65.774  1.00  0.00    -0.092 OA 
ENDROOT
BRANCH   2   7
HETATM    7  C   UNL     1      -9.215   6.345  66.776  1.00  0.00    -0.142 A  
HETATM    8  C   UNL     1      -8.493   7.174  65.911  1.00  0.00    -0.151 A  
HETATM    9  C   UNL     1      -8.725   8.555  65.939  1.00  0.00    -0.174 A  
HETATM   10  C   UNL     1      -9.661   9.144  66.791  1.00  0.00    -0.210 A  
HETATM   11  N   UNL     1      -9.966  10.505  66.747  1.00  0.00    -0.196 NA 
HETATM   12  C   UNL     1     -10.388   8.288  67.629  1.00  0.00    -0.313 A  
HETATM   13  H   UNL     1     -10.889  10.845  67.020  1.00  0.00     0.000 HD 
HETATM   14  C   UNL     1      -8.937  11.421  66.302  1.00  0.00    -0.200 C  
HETATM   15  C   UNL     1     -10.170   6.899  67.634  1.00  0.00    -0.185 A  
HETATM   16  N   UNL     1      -8.615  11.053  64.946  1.00  0.00    -0.372 N  
HETATM   17 CL   UNL     1     -11.126   5.974  68.738  1.00  0.00    -0.391 Cl 
HETATM   18  O   UNL     1      -8.029   9.102  63.494  1.00  0.00    -0.130 OA 
HETATM   19  S   UNL     1      -7.817   9.589  64.838  1.00  0.00    -0.126 S  
HETATM   20  O   UNL     1      -6.499   9.753  65.406  1.00  0.00    -0.073 OA 
HETATM   21  H   UNL     1      -8.851  11.626  64.136  1.00  0.00     0.000 HD 
BRANCH  14  22
HETATM   22  C   UNL     1      -9.472  12.863  66.298  1.00  0.00    -0.205 C  
BRANCH  22  23
HETATM   23  C   UNL     1     -10.904  12.997  65.761  1.00  0.00    -0.292 C  
HETATM   24  C   UNL     1     -11.816  13.877  66.614  1.00  0.00    -0.447 C  
HETATM   25  C   UNL     1     -12.960  14.202  65.669  1.00  0.00    -0.284 C  
HETATM   26  C   UNL     1     -12.284  14.425  64.323  1.00  0.00    -0.450 C  
HETATM   27  C   UNL     1     -10.956  13.667  64.380  1.00  0.00    -0.379 C  
ENDBRANCH  22  23
ENDBRANCH  14  22
ENDBRANCH   2   7
TORSDOF 3
ENDMDL
MODEL      110
REMARK 921   NORMALIZED FREE ENERGY PREDICTED BY IDOCK:   -4.57 KCAL/MOL
REMARK 922        TOTAL FREE ENERGY PREDICTED BY IDOCK:   -5.61 KCAL/MOL
REMARK 923 INTER-LIGAND FREE ENERGY PREDICTED BY IDOCK:   -5.23 KCAL/MOL
REMARK 924 INTRA-LIGAND FREE ENERGY PREDICTED BY IDOCK:   -0.38 KCAL/MOL
REMARK 927      BINDING AFFINITY PREDICTED BY RF-SCORE:    0.00 PKD
ROOT
HETATM    1  N   UNL     1      -9.787   6.005  68.380  1.00  0.00    -0.124 N  
HETATM    2  S   UNL     1      -9.254   6.081  66.790  1.00  0.00    -0.140 S  
HETATM    3  H2  UNL     1      -9.254   5.707  69.198  1.00  0.00     0.000 HD 
HETATM    4  H1  UNL     1     -10.756   6.321  68.351  1.00  0.00     0.000 HD 
HETATM    5  O   UNL     1      -7.878   5.633  66.830  1.00  0.00    -0.099 OA 
HETATM    6  O   UNL     1     -10.238   5.430  65.971  1.00  0.00    -0.146 OA 
ENDROOT
BRANCH   2   7
HETATM    7  C   UNL     1      -9.281   7.814  66.454  1.00  0.00    -0.180 A  
HETATM    8  C   UNL     1      -9.904   8.668  67.370  1.00  0.00    -0.249 A  
HETATM    9  C   UNL     1      -9.936  10.044  67.107  1.00  0.00    -0.201 A  
HETATM   10  C   UNL     1      -9.356  10.606  65.968  1.00  0.00    -0.186 A  
HETATM   11  N   UNL     1      -9.297  11.984  65.757  1.00  0.00    -0.395 NA 
HETATM   12  C   UNL     1      -8.717   9.731  65.080  1.00  0.00    -0.192 A  
HETATM   13  H   UNL     1      -8.545  12.398  65.205  1.00  0.00     0.000 HD 
HETATM   14  C   UNL     1     -10.332  12.810  66.344  1.00  0.00    -0.258 C  
HETATM   15  C   UNL     1      -8.679   8.344  65.308  1.00  0.00    -0.113 A  
HETATM   16  N   UNL     1     -10.241  12.633  67.771  1.00  0.00    -0.217 N  
HETATM   17 CL   UNL     1      -7.873   7.389  64.113  1.00  0.00    -0.127 Cl 
HETATM   18  O   UNL     1     -10.098  10.890  69.560  1.00  0.00    -0.155 OA 
HETATM   19  S   UNL     1     -10.716  11.111  68.272  1.00  0.00    -0.213 S  
HETATM   20  O   UNL     1     -12.139  10.993  68.063  1.00  0.00    -0.615 OA 
HETATM   21  H   UNL     1      -9.920  13.361  68.410  1.00  0.00     0.000 HD 
BRANCH  14  22
HETATM   22  C   UNL     1     -10.077  14.293  66.023  1.00  0.00    -0.333 C  
BRANCH  22  23
HETATM   23  C   UNL     1      -9.519  15.100  67.203  1.00  0.00    -0.224 C  
HETATM   24  C   UNL     1      -8.226  15.853  66.894  1.00  0.00    -0.283 C  
HETATM   25  C   UNL     1      -8.152  16.879  68.011  1.00  0.00    -0.194 C  
HETATM   26  C   UNL     1      -9.592  17.343  68.192  1.00  0.00    -0.287 C  
HETATM   27  C   UNL     1     -10.475  16.212  67.661  1.00  0.00    -0.292 C  
ENDBRANCH  22  23
ENDBRANCH  14  22
ENDBRANCH   2   7
TORSDOF 3
ENDMDL
MODEL      111
REMARK 921   NORMALIZED FREE ENERGY PREDICTED BY IDOCK:   -4.54 KCAL/MOL
REMARK 922        TOTAL FREE ENERGY PREDICTED BY IDOCK:   -5.57 KCAL/MOL
REMARK 923 INTER-LIGAND FREE ENERGY PREDICTED BY IDOCK:   -5.12 KCAL/MOL
REMARK 924 INTRA-LIGAND FREE ENERGY PREDICTED BY IDOCK:   -0.45 KCAL/MOL
REMARK 927      BINDING AFFINITY PREDICTED BY RF-SCORE:    0.00 PKD
ROOT
HETATM    1  N   UNL     1     -11.514  11.778  69.875  1.00  0.00    -0.478 N  
HETATM    2  S   UNL     1     -11.144  12.152  68.280  1.00  0.00    -0.265 S  
HETATM    3  H2  UNL     1     -12.430  11.815  70.323  1.00  0.00     0.000 HD 
HETATM    4  H1  UNL     1     -10.626  11.505  70.296  1.00  0.00     0.000 HD 
HETATM    5  O   UNL     1     -12.405  12.539  67.681  1.00  0.00    -0.295 OA 
HETATM    6  O   UNL     1     -10.011  13.034  68.293  1.00  0.00    -0.228 OA 
ENDROOT
BRANCH   2   7
HETATM    7  C   UNL     1     -10.653  10.591  67.619  1.00  0.00    -0.250 A  
HETATM    8  C   UNL     1     -10.711   9.462  68.443  1.00  0.00    -0.213 A  
HETATM    9  C   UNL     1     -10.315   8.220  67.928  1.00  0.00    -0.219 A  
HETATM   10  C   UNL     1      -9.875   8.057  66.613  1.00  0.00    -0.252 A  
HETATM   11  N   UNL     1      -9.581   6.807  66.069  1.00  0.00    -0.396 NA 
HETATM   12  C   UNL     1      -9.851   9.199  65.802  1.00  0.00    -0.248 A  
HETATM   13  H   UNL     1      -9.686   6.632  65.069  1.00  0.00     0.000 HD 
HETATM   14  C   UNL     1      -9.122   5.764  66.963  1.00  0.00    -0.114 C  
HETATM   15  C   UNL     1     -10.229  10.462  66.292  1.00  0.00    -0.222 A  
HETATM   16  N   UNL     1     -10.186   5.534  67.908  1.00  0.00    -0.178 N  
HETATM   17 CL   UNL     1     -10.126  11.782  65.181  1.00  0.00    -0.283 Cl 
HETATM   18  O   UNL     1     -11.754   6.699  69.470  1.00  0.00    -0.263 OA 
HETATM   19  S   UNL     1     -10.401   6.804  68.972  1.00  0.00    -0.207 S  
HETATM   20  O   UNL     1      -9.253   6.856  69.846  1.00  0.00    -0.148 OA 
HETATM   21  H   UNL     1     -10.750   4.683  67.925  1.00  0.00     0.000 HD 
BRANCH  14  22
HETATM   22  C   UNL     1      -8.878   4.461  66.182  1.00  0.00    -0.115 C  
BRANCH  22  23
HETATM   23  C   UNL     1      -9.225   4.553  64.689  1.00  0.00    -0.145 C  
HETATM   24  C   UNL     1      -8.262   3.800  63.773  1.00  0.00    -0.090 C  
HETATM   25  C   UNL     1      -9.051   3.668  62.482  1.00  0.00    -0.092 C  
HETATM   26  C   UNL     1     -10.474   3.375  62.939  1.00  0.00    -0.196 C  
HETATM   27  C   UNL     1     -10.589   3.926  64.362  1.00  0.00    -0.224 C  
ENDBRANCH  22  23
ENDBRANCH  14  22
ENDBRANCH   2   7
TORSDOF 3
ENDMDL
MODEL      112
REMARK 921   NORMALIZED FREE ENERGY PREDICTED BY IDOCK:   -4.50 KCAL/MOL
REMARK 922        TOTAL FREE ENERGY PREDICTED BY IDOCK:   -5.53 KCAL/MOL
REMARK 923 INTER-LIGAND FREE ENERGY PREDICTED BY IDOCK:   -5.79 KCAL/MOL
REMARK 924 INTRA-LIGAND FREE ENERGY PREDICTED BY IDOCK:    0.26 KCAL/MOL
REMARK 927      BINDING AFFINITY PREDICTED BY RF-SCORE:    0.00 PKD
ROOT
HETATM    1  N   UNL     1     -12.442  14.230  67.734  1.00  0.00    -0.509 N  
HETATM    2  S   UNL     1     -11.751  14.078  69.256  1.00  0.00    -0.346 S  
HETATM    3  H2  UNL     1     -12.048  14.699  66.918  1.00  0.00     0.000 HD 
HETATM    4  H1  UNL     1     -13.341  13.752  67.802  1.00  0.00     0.000 HD 
HETATM    5  O   UNL     1     -10.475  14.756  69.161  1.00  0.00    -0.234 OA 
HETATM    6  O   UNL     1     -12.741  14.461  70.223  1.00  0.00    -0.348 OA 
ENDROOT
BRANCH   2   7
HETATM    7  C   UNL     1     -11.465  12.340  69.381  1.00  0.00    -0.277 A  
HETATM    8  C   UNL     1     -10.670  11.718  68.413  1.00  0.00    -0.249 A  
HETATM    9  C   UNL     1     -10.444  10.338  68.501  1.00  0.00    -0.192 A  
HETATM   10  C   UNL     1     -10.972   9.552  69.528  1.00  0.00    -0.195 A  
HETATM   11  N   UNL     1     -10.664   8.200  69.674  1.00  0.00    -0.294 NA 
HETATM   12  C   UNL     1     -11.744  10.206  70.497  1.00  0.00    -0.407 A  
HETATM   13  H   UNL     1     -10.674   7.756  70.593  1.00  0.00     0.000 HD 
HETATM   14  C   UNL     1     -10.329   7.443  68.485  1.00  0.00    -0.198 C  
HETATM   15  C   UNL     1     -12.000  11.587  70.430  1.00  0.00    -0.368 A  
HETATM   16  N   UNL     1      -9.146   8.052  67.929  1.00  0.00    -0.132 N  
HETATM   17 CL   UNL     1     -12.987  12.248  71.686  1.00  0.00    -0.468 Cl 
HETATM   18  O   UNL     1      -8.161  10.251  67.260  1.00  0.00    -0.118 OA 
HETATM   19  S   UNL     1      -9.433   9.565  67.282  1.00  0.00    -0.140 S  
HETATM   20  O   UNL     1     -10.248   9.402  66.102  1.00  0.00    -0.279 OA 
HETATM   21  H   UNL     1      -8.229   7.605  67.931  1.00  0.00     0.000 HD 
BRANCH  14  22
HETATM   22  C   UNL     1      -9.996   5.988  68.855  1.00  0.00    -0.192 C  
BRANCH  22  23
HETATM   23  C   UNL     1     -10.154   4.996  67.694  1.00  0.00    -0.192 C  
HETATM   24  C   UNL     1     -10.861   5.571  66.468  1.00  0.00    -0.237 C  
HETATM   25  C   UNL     1     -10.488   4.594  65.368  1.00  0.00    -0.174 C  
HETATM   26  C   UNL     1      -9.029   4.253  65.646  1.00  0.00    -0.130 C  
HETATM   27  C   UNL     1      -8.803   4.524  67.134  1.00  0.00    -0.112 C  
ENDBRANCH  22  23
ENDBRANCH  14  22
ENDBRANCH   2   7
TORSDOF 3
ENDMDL
MODEL      113
REMARK 921   NORMALIZED FREE ENERGY PREDICTED BY IDOCK:   -4.45 KCAL/MOL
REMARK 922        TOTAL FREE ENERGY PREDICTED BY IDOCK:   -5.47 KCAL/MOL
REMARK 923 INTER-LIGAND FREE ENERGY PREDICTED BY IDOCK:   -5.38 KCAL/MOL
REMARK 924 INTRA-LIGAND FREE ENERGY PREDICTED BY IDOCK:   -0.09 KCAL/MOL
REMARK 927      BINDING AFFINITY PREDICTED BY RF-SCORE:    0.00 PKD
ROOT
HETATM    1  N   UNL     1     -12.308   7.784  73.017  1.00  0.00    -0.314 N  
HETATM    2  S   UNL     1     -13.420   8.669  72.124  1.00  0.00    -0.396 S  
HETATM    3  H2  UNL     1     -12.118   6.783  72.954  1.00  0.00     0.000 HD 
HETATM    4  H1  UNL     1     -11.863   8.463  73.635  1.00  0.00     0.000 HD 
HETATM    5  O   UNL     1     -14.052   7.706  71.247  1.00  0.00    -0.361 OA 
HETATM    6  O   UNL     1     -14.181   9.466  73.046  1.00  0.00    -0.310 OA 
ENDROOT
BRANCH   2   7
HETATM    7  C   UNL     1     -12.389   9.729  71.159  1.00  0.00    -0.359 A  
HETATM    8  C   UNL     1     -12.630  11.106  71.184  1.00  0.00    -0.513 A  
HETATM    9  C   UNL     1     -11.821  11.954  70.415  1.00  0.00    -0.239 A  
HETATM   10  C   UNL     1     -10.768  11.480  69.629  1.00  0.00     0.092 A  
HETATM   11  N   UNL     1      -9.899  12.330  68.946  1.00  0.00    -0.422 NA 
HETATM   12  C   UNL     1     -10.535  10.099  69.642  1.00  0.00    -0.282 A  
HETATM   13  H   UNL     1      -8.937  12.051  68.751  1.00  0.00     0.000 HD 
HETATM   14  C   UNL     1     -10.400  13.621  68.520  1.00  0.00    -0.243 C  
HETATM   15  C   UNL     1     -11.337   9.220  70.392  1.00  0.00    -0.242 A  
HETATM   16  N   UNL     1     -10.776  14.332  69.716  1.00  0.00    -0.456 N  
HETATM   17 CL   UNL     1     -10.940   7.541  70.291  1.00  0.00    -0.260 Cl 
HETATM   18  O   UNL     1     -12.074  14.112  71.843  1.00  0.00    -0.213 OA 
HETATM   19  S   UNL     1     -12.126  13.688  70.462  1.00  0.00    -0.307 S  
HETATM   20  O   UNL     1     -13.268  13.937  69.615  1.00  0.00     0.651 OA 
HETATM   21  H   UNL     1     -10.270  15.144  70.071  1.00  0.00     0.000 HD 
BRANCH  14  22
HETATM   22  C   UNL     1      -9.290  14.417  67.812  1.00  0.00    -0.200 C  
BRANCH  22  23
HETATM   23  C   UNL     1      -9.644  15.889  67.555  1.00  0.00    -0.221 C  
HETATM   24  C   UNL     1      -8.565  16.879  67.991  1.00  0.00    -0.214 C  
HETATM   25  C   UNL     1      -8.940  18.145  67.240  1.00  0.00    -0.248 C  
HETATM   26  C   UNL     1      -9.388  17.652  65.871  1.00  0.00     0.050 C  
HETATM   27  C   UNL     1      -9.827  16.199  66.062  1.00  0.00    -0.375 C  
ENDBRANCH  22  23
ENDBRANCH  14  22
ENDBRANCH   2   7
TORSDOF 3
ENDMDL
MODEL      114
REMARK 921   NORMALIZED FREE ENERGY PREDICTED BY IDOCK:   -4.45 KCAL/MOL
REMARK 922        TOTAL FREE ENERGY PREDICTED BY IDOCK:   -5.47 KCAL/MOL
REMARK 923 INTER-LIGAND FREE ENERGY PREDICTED BY IDOCK:   -5.01 KCAL/MOL
REMARK 924 INTRA-LIGAND FREE ENERGY PREDICTED BY IDOCK:   -0.46 KCAL/MOL
REMARK 927      BINDING AFFINITY PREDICTED BY RF-SCORE:    0.00 PKD
ROOT
HETATM    1  N   UNL     1     -11.309  10.882  67.247  1.00  0.00    -0.242 N  
HETATM    2  S   UNL     1      -9.669  10.611  67.479  1.00  0.00    -0.168 S  
HETATM    3  H2  UNL     1     -12.082  10.529  67.812  1.00  0.00     0.000 HD 
HETATM    4  H1  UNL     1     -11.366  11.476  66.420  1.00  0.00     0.000 HD 
HETATM    5  O   UNL     1      -9.588   9.768  68.654  1.00  0.00    -0.146 OA 
HETATM    6  O   UNL     1      -9.113  10.207  66.218  1.00  0.00    -0.149 OA 
ENDROOT
BRANCH   2   7
HETATM    7  C   UNL     1      -9.063  12.219  67.888  1.00  0.00    -0.190 A  
HETATM    8  C   UNL     1      -9.926  13.313  67.768  1.00  0.00    -0.223 A  
HETATM    9  C   UNL     1      -9.451  14.593  68.083  1.00  0.00    -0.212 A  
HETATM   10  C   UNL     1      -8.147  14.824  68.528  1.00  0.00    -0.146 A  
HETATM   11  N   UNL     1      -7.705  16.081  68.940  1.00  0.00    -0.182 NA 
HETATM   12  C   UNL     1      -7.313  13.707  68.662  1.00  0.00    -0.113 A  
HETATM   13  H   UNL     1      -6.963  16.175  69.634  1.00  0.00     0.000 HD 
HETATM   14  C   UNL     1      -8.330  17.250  68.355  1.00  0.00    -0.261 C  
HETATM   15  C   UNL     1      -7.754  12.412  68.341  1.00  0.00    -0.144 A  
HETATM   16  N   UNL     1      -9.725  17.194  68.712  1.00  0.00    -0.273 N  
HETATM   17 CL   UNL     1      -6.605  11.135  68.537  1.00  0.00    -0.058 Cl 
HETATM   18  O   UNL     1     -11.718  15.683  68.741  1.00  0.00    -0.363 OA 
HETATM   19  S   UNL     1     -10.549  15.964  67.939  1.00  0.00    -0.308 S  
HETATM   20  O   UNL     1     -10.630  16.291  66.535  1.00  0.00    -0.308 OA 
HETATM   21  H   UNL     1     -10.164  17.839  69.370  1.00  0.00     0.000 HD 
BRANCH  14  22
HETATM   22  C   UNL     1      -7.728  18.533  68.954  1.00  0.00    -0.253 C  
BRANCH  22  23
HETATM   23  C   UNL     1      -7.061  19.452  67.921  1.00  0.00    -0.290 C  
HETATM   24  C   UNL     1      -5.974  18.775  67.087  1.00  0.00    -0.167 C  
HETATM   25  C   UNL     1      -5.820  19.713  65.902  1.00  0.00    -0.183 C  
HETATM   26  C   UNL     1      -7.243  20.146  65.577  1.00  0.00    -0.283 C  
HETATM   27  C   UNL     1      -8.049  19.967  66.865  1.00  0.00    -0.346 C  
ENDBRANCH  22  23
ENDBRANCH  14  22
ENDBRANCH   2   7
TORSDOF 3
ENDMDL
MODEL      115
REMARK 921   NORMALIZED FREE ENERGY PREDICTED BY IDOCK:   -4.44 KCAL/MOL
REMARK 922        TOTAL FREE ENERGY PREDICTED BY IDOCK:   -5.46 KCAL/MOL
REMARK 923 INTER-LIGAND FREE ENERGY PREDICTED BY IDOCK:   -5.43 KCAL/MOL
REMARK 924 INTRA-LIGAND FREE ENERGY PREDICTED BY IDOCK:   -0.03 KCAL/MOL
REMARK 927      BINDING AFFINITY PREDICTED BY RF-SCORE:    0.00 PKD
ROOT
HETATM    1  N   UNL     1     -14.074   8.292  71.051  1.00  0.00    -0.621 N  
HETATM    2  S   UNL     1     -12.865   9.187  71.797  1.00  0.00    -0.408 S  
HETATM    3  H2  UNL     1     -14.992   8.620  70.750  1.00  0.00     0.000 HD 
HETATM    4  H1  UNL     1     -13.691   7.351  70.963  1.00  0.00     0.000 HD 
HETATM    5  O   UNL     1     -13.408  10.523  71.922  1.00  0.00    -0.418 OA 
HETATM    6  O   UNL     1     -12.417   8.443  72.941  1.00  0.00    -0.248 OA 
ENDROOT
BRANCH   2   7
HETATM    7  C   UNL     1     -11.586   9.202  70.581  1.00  0.00    -0.235 A  
HETATM    8  C   UNL     1     -11.456  10.323  69.754  1.00  0.00    -0.320 A  
HETATM    9  C   UNL     1     -10.448  10.340  68.782  1.00  0.00    -0.203 A  
HETATM   10  C   UNL     1      -9.551   9.284  68.608  1.00  0.00    -0.147 A  
HETATM   11  N   UNL     1      -8.485   9.342  67.711  1.00  0.00    -0.116 NA 
HETATM   12  C   UNL     1      -9.688   8.184  69.465  1.00  0.00    -0.170 A  
HETATM   13  H   UNL     1      -7.628   8.813  67.879  1.00  0.00     0.000 HD 
HETATM   14  C   UNL     1      -8.626  10.176  66.535  1.00  0.00    -0.126 C  
HETATM   15  C   UNL     1     -10.698   8.130  70.443  1.00  0.00    -0.232 A  
HETATM   16  N   UNL     1      -8.810  11.526  67.007  1.00  0.00    -0.167 N  
HETATM   17 CL   UNL     1     -10.756   6.700  71.412  1.00  0.00    -0.254 Cl 
HETATM   18  O   UNL     1     -10.136  12.916  68.610  1.00  0.00    -0.212 OA 
HETATM   19  S   UNL     1     -10.287  11.761  67.753  1.00  0.00    -0.199 S  
HETATM   20  O   UNL     1     -11.318  11.671  66.746  1.00  0.00    -0.326 OA 
HETATM   21  H   UNL     1      -8.112  12.261  66.896  1.00  0.00     0.000 HD 
BRANCH  14  22
HETATM   22  C   UNL     1      -7.341  10.130  65.691  1.00  0.00    -0.144 C  
BRANCH  22  23
HETATM   23  C   UNL     1      -7.589   9.960  64.185  1.00  0.00    -0.139 C  
HETATM   24  C   UNL     1      -7.905   8.528  63.757  1.00  0.00    -0.150 C  
HETATM   25  C   UNL     1      -8.532   8.711  62.386  1.00  0.00    -0.194 C  
HETATM   26  C   UNL     1      -9.400   9.954  62.532  1.00  0.00    -0.263 C  
HETATM   27  C   UNL     1      -8.810  10.753  63.696  1.00  0.00    -0.139 C  
ENDBRANCH  22  23
ENDBRANCH  14  22
ENDBRANCH   2   7
TORSDOF 3
ENDMDL
MODEL      116
REMARK 921   NORMALIZED FREE ENERGY PREDICTED BY IDOCK:   -4.44 KCAL/MOL
REMARK 922        TOTAL FREE ENERGY PREDICTED BY IDOCK:   -5.45 KCAL/MOL
REMARK 923 INTER-LIGAND FREE ENERGY PREDICTED BY IDOCK:   -5.31 KCAL/MOL
REMARK 924 INTRA-LIGAND FREE ENERGY PREDICTED BY IDOCK:   -0.14 KCAL/MOL
REMARK 927      BINDING AFFINITY PREDICTED BY RF-SCORE:    0.00 PKD
ROOT
HETATM    1  N   UNL     1      -9.514   3.431  69.175  1.00  0.00    -0.173 N  
HETATM    2  S   UNL     1      -8.253   4.538  69.138  1.00  0.00    -0.079 S  
HETATM    3  H2  UNL     1      -9.822   2.868  69.969  1.00  0.00     0.000 HD 
HETATM    4  H1  UNL     1      -9.905   3.442  68.233  1.00  0.00     0.000 HD 
HETATM    5  O   UNL     1      -7.697   4.522  70.475  1.00  0.00    -0.052 OA 
HETATM    6  O   UNL     1      -7.451   4.245  67.983  1.00  0.00    -0.067 OA 
ENDROOT
BRANCH   2   7
HETATM    7  C   UNL     1      -9.090   6.072  68.886  1.00  0.00    -0.121 A  
HETATM    8  C   UNL     1      -8.728   6.864  67.792  1.00  0.00    -0.120 A  
HETATM    9  C   UNL     1      -9.382   8.087  67.589  1.00  0.00    -0.143 A  
HETATM   10  C   UNL     1     -10.397   8.546  68.431  1.00  0.00    -0.202 A  
HETATM   11  N   UNL     1     -11.119   9.711  68.172  1.00  0.00    -0.504 NA 
HETATM   12  C   UNL     1     -10.756   7.721  69.505  1.00  0.00    -0.200 A  
HETATM   13  H   UNL     1     -12.081   9.815  68.497  1.00  0.00     0.000 HD 
HETATM   14  C   UNL     1     -10.465  10.768  67.429  1.00  0.00    -0.225 C  
HETATM   15  C   UNL     1     -10.110   6.496  69.744  1.00  0.00    -0.178 A  
HETATM   16  N   UNL     1     -10.137  10.221  66.136  1.00  0.00    -0.241 N  
HETATM   17 CL   UNL     1     -10.647   5.597  71.120  1.00  0.00    -0.307 Cl 
HETATM   18  O   UNL     1      -9.064   8.259  65.014  1.00  0.00     0.067 OA 
HETATM   19  S   UNL     1      -8.926   9.072  66.202  1.00  0.00    -0.191 S  
HETATM   20  O   UNL     1      -7.693   9.739  66.547  1.00  0.00    -0.103 OA 
HETATM   21  H   UNL     1     -10.597  10.506  65.271  1.00  0.00     0.000 HD 
BRANCH  14  22
HETATM   22  C   UNL     1     -11.428  11.950  67.224  1.00  0.00    -0.385 C  
BRANCH  22  23
HETATM   23  C   UNL     1     -11.251  12.675  65.882  1.00  0.00    -0.350 C  
HETATM   24  C   UNL     1     -12.546  13.230  65.292  1.00  0.00    -0.528 C  
HETATM   25  C   UNL     1     -12.052  14.241  64.272  1.00  0.00    -0.467 C  
HETATM   26  C   UNL     1     -10.864  14.910  64.951  1.00  0.00    -0.431 C  
HETATM   27  C   UNL     1     -10.354  13.917  65.997  1.00  0.00    -0.310 C  
ENDBRANCH  22  23
ENDBRANCH  14  22
ENDBRANCH   2   7
TORSDOF 3
ENDMDL
MODEL      117
REMARK 921   NORMALIZED FREE ENERGY PREDICTED BY IDOCK:   -4.42 KCAL/MOL
REMARK 922        TOTAL FREE ENERGY PREDICTED BY IDOCK:   -5.43 KCAL/MOL
REMARK 923 INTER-LIGAND FREE ENERGY PREDICTED BY IDOCK:   -5.43 KCAL/MOL
REMARK 924 INTRA-LIGAND FREE ENERGY PREDICTED BY IDOCK:   -0.00 KCAL/MOL
REMARK 927      BINDING AFFINITY PREDICTED BY RF-SCORE:    0.00 PKD
ROOT
HETATM    1  N   UNL     1      -8.296  13.562  67.787  1.00  0.00    -0.166 N  
HETATM    2  S   UNL     1      -8.601  12.070  67.080  1.00  0.00    -0.187 S  
HETATM    3  H2  UNL     1      -8.755  14.450  67.583  1.00  0.00     0.000 HD 
HETATM    4  H1  UNL     1      -7.552  13.389  68.463  1.00  0.00     0.000 HD 
HETATM    5  O   UNL     1      -9.657  12.316  66.120  1.00  0.00    -0.242 OA 
HETATM    6  O   UNL     1      -7.339  11.509  66.689  1.00  0.00    -0.133 OA 
ENDROOT
BRANCH   2   7
HETATM    7  C   UNL     1      -9.259  11.132  68.423  1.00  0.00    -0.175 A  
HETATM    8  C   UNL     1      -8.392  10.328  69.171  1.00  0.00    -0.154 A  
HETATM    9  C   UNL     1      -8.907   9.575  70.234  1.00  0.00    -0.243 A  
HETATM   10  C   UNL     1     -10.257   9.601  70.590  1.00  0.00    -0.278 A  
HETATM   11  N   UNL     1     -10.751   8.933  71.711  1.00  0.00    -0.341 NA 
HETATM   12  C   UNL     1     -11.098  10.433  69.841  1.00  0.00    -0.367 A  
HETATM   13  H   UNL     1     -11.575   9.276  72.205  1.00  0.00     0.000 HD 
HETATM   14  C   UNL     1     -10.062   7.737  72.152  1.00  0.00    -0.210 C  
HETATM   15  C   UNL     1     -10.615  11.191  68.760  1.00  0.00    -0.202 A  
HETATM   16  N   UNL     1      -8.723   8.140  72.502  1.00  0.00    -0.184 N  
HETATM   17 CL   UNL     1     -11.776  12.155  67.915  1.00  0.00    -0.410 Cl 
HETATM   18  O   UNL     1      -6.744   9.423  71.669  1.00  0.00    -0.296 OA 
HETATM   19  S   UNL     1      -7.804   8.573  71.175  1.00  0.00    -0.128 S  
HETATM   20  O   UNL     1      -7.548   7.384  70.397  1.00  0.00    -0.087 OA 
HETATM   21  H   UNL     1      -8.372   8.157  73.459  1.00  0.00     0.000 HD 
BRANCH  14  22
HETATM   22  C   UNL     1     -10.740   7.165  73.409  1.00  0.00    -0.410 C  
BRANCH  22  23
HETATM   23  C   UNL     1     -10.949   5.645  73.370  1.00  0.00    -0.293 C  
HETATM   24  C   UNL     1     -10.422   4.972  72.103  1.00  0.00    -0.274 C  
HETATM   25  C   UNL     1     -10.335   3.509  72.505  1.00  0.00    -0.196 C  
HETATM   26  C   UNL     1      -9.822   3.543  73.938  1.00  0.00    -0.155 C  
HETATM   27  C   UNL     1     -10.199   4.917  74.495  1.00  0.00    -0.302 C  
ENDBRANCH  22  23
ENDBRANCH  14  22
ENDBRANCH   2   7
TORSDOF 3
ENDMDL
MODEL      118
REMARK 921   NORMALIZED FREE ENERGY PREDICTED BY IDOCK:   -4.41 KCAL/MOL
REMARK 922        TOTAL FREE ENERGY PREDICTED BY IDOCK:   -5.43 KCAL/MOL
REMARK 923 INTER-LIGAND FREE ENERGY PREDICTED BY IDOCK:   -5.15 KCAL/MOL
REMARK 924 INTRA-LIGAND FREE ENERGY PREDICTED BY IDOCK:   -0.28 KCAL/MOL
REMARK 927      BINDING AFFINITY PREDICTED BY RF-SCORE:    0.00 PKD
ROOT
HETATM    1  N   UNL     1     -10.410  10.698  63.625  1.00  0.00    -0.482 N  
HETATM    2  S   UNL     1     -10.855  11.517  65.022  1.00  0.00    -0.244 S  
HETATM    3  H2  UNL     1      -9.643  10.925  62.991  1.00  0.00     0.000 HD 
HETATM    4  H1  UNL     1     -11.071   9.925  63.548  1.00  0.00     0.000 HD 
HETATM    5  O   UNL     1      -9.916  12.614  65.131  1.00  0.00    -0.255 OA 
HETATM    6  O   UNL     1     -12.273  11.738  64.962  1.00  0.00    -0.226 OA 
ENDROOT
BRANCH   2   7
HETATM    7  C   UNL     1     -10.507  10.339  66.290  1.00  0.00    -0.144 A  
HETATM    8  C   UNL     1      -9.865   9.145  65.942  1.00  0.00    -0.305 A  
HETATM    9  C   UNL     1      -9.592   8.202  66.942  1.00  0.00    -0.208 A  
HETATM   10  C   UNL     1      -9.924   8.408  68.282  1.00  0.00    -0.187 A  
HETATM   11  N   UNL     1      -9.560   7.517  69.292  1.00  0.00    -0.158 NA 
HETATM   12  C   UNL     1     -10.543   9.623  68.606  1.00  0.00    -0.246 A  
HETATM   13  H   UNL     1      -9.407   7.841  70.248  1.00  0.00     0.000 HD 
HETATM   14  C   UNL     1      -9.406   6.119  68.946  1.00  0.00    -0.124 C  
HETATM   15  C   UNL     1     -10.843  10.584  67.625  1.00  0.00    -0.300 A  
HETATM   16  N   UNL     1      -8.347   6.051  67.971  1.00  0.00    -0.116 N  
HETATM   17 CL   UNL     1     -11.627  12.024  68.172  1.00  0.00    -0.381 Cl 
HETATM   18  O   UNL     1      -7.542   7.056  65.826  1.00  0.00    -0.087 OA 
HETATM   19  S   UNL     1      -8.775   6.706  66.494  1.00  0.00    -0.140 S  
HETATM   20  O   UNL     1      -9.769   5.848  65.893  1.00  0.00    -0.049 OA 
HETATM   21  H   UNL     1      -7.430   5.645  68.161  1.00  0.00     0.000 HD 
BRANCH  14  22
HETATM   22  C   UNL     1      -8.978   5.308  70.182  1.00  0.00    -0.156 C  
BRANCH  22  23
HETATM   23  C   UNL     1     -10.131   4.974  71.139  1.00  0.00    -0.293 C  
HETATM   24  C   UNL     1      -9.923   3.696  71.950  1.00  0.00    -0.223 C  
HETATM   25  C   UNL     1     -10.924   3.844  73.083  1.00  0.00    -0.246 C  
HETATM   26  C   UNL     1     -10.855   5.319  73.456  1.00  0.00    -0.358 C  
HETATM   27  C   UNL     1     -10.332   6.049  72.217  1.00  0.00    -0.223 C  
ENDBRANCH  22  23
ENDBRANCH  14  22
ENDBRANCH   2   7
TORSDOF 3
ENDMDL
MODEL      119
REMARK 921   NORMALIZED FREE ENERGY PREDICTED BY IDOCK:   -4.36 KCAL/MOL
REMARK 922        TOTAL FREE ENERGY PREDICTED BY IDOCK:   -5.37 KCAL/MOL
REMARK 923 INTER-LIGAND FREE ENERGY PREDICTED BY IDOCK:   -5.31 KCAL/MOL
REMARK 924 INTRA-LIGAND FREE ENERGY PREDICTED BY IDOCK:   -0.05 KCAL/MOL
REMARK 927      BINDING AFFINITY PREDICTED BY RF-SCORE:    0.00 PKD
ROOT
HETATM    1  N   UNL     1     -10.727  17.314  69.478  1.00  0.00    -0.338 N  
HETATM    2  S   UNL     1     -11.212  15.791  69.992  1.00  0.00    -0.374 S  
HETATM    3  H2  UNL     1     -10.150  17.985  69.987  1.00  0.00     0.000 HD 
HETATM    4  H1  UNL     1     -11.133  17.423  68.549  1.00  0.00     0.000 HD 
HETATM    5  O   UNL     1     -10.636  15.636  71.311  1.00  0.00    -0.007 OA 
HETATM    6  O   UNL     1     -12.627  15.687  69.768  1.00  0.00    -0.238 OA 
ENDROOT
BRANCH   2   7
HETATM    7  C   UNL     1     -10.370  14.717  68.871  1.00  0.00    -0.243 A  
HETATM    8  C   UNL     1     -11.109  13.748  68.184  1.00  0.00    -0.282 A  
HETATM    9  C   UNL     1     -10.448  12.887  67.299  1.00  0.00    -0.234 A  
HETATM   10  C   UNL     1      -9.074  12.963  67.061  1.00  0.00    -0.228 A  
HETATM   11  N   UNL     1      -8.432  12.176  66.104  1.00  0.00    -0.385 NA 
HETATM   12  C   UNL     1      -8.362  13.958  67.743  1.00  0.00    -0.174 A  
HETATM   13  H   UNL     1      -7.587  12.505  65.635  1.00  0.00     0.000 HD 
HETATM   14  C   UNL     1      -9.000  10.880  65.794  1.00  0.00    -0.193 C  
HETATM   15  C   UNL     1      -8.994  14.829  68.648  1.00  0.00    -0.185 A  
HETATM   16  N   UNL     1     -10.321  11.123  65.272  1.00  0.00    -0.268 N  
HETATM   17 CL   UNL     1      -7.983  15.992  69.432  1.00  0.00    -0.213 Cl 
HETATM   18  O   UNL     1     -12.448  12.361  65.722  1.00  0.00    -0.615 OA 
HETATM   19  S   UNL     1     -11.390  11.677  66.431  1.00  0.00    -0.156 S  
HETATM   20  O   UNL     1     -11.645  10.600  67.358  1.00  0.00    -0.445 OA 
HETATM   21  H   UNL     1     -10.578  10.972  64.296  1.00  0.00     0.000 HD 
BRANCH  14  22
HETATM   22  C   UNL     1      -8.170  10.182  64.703  1.00  0.00    -0.165 C  
BRANCH  22  23
HETATM   23  C   UNL     1      -8.365   8.660  64.647  1.00  0.00    -0.165 C  
HETATM   24  C   UNL     1      -7.894   8.014  63.345  1.00  0.00    -0.147 C  
HETATM   25  C   UNL     1      -7.773   6.546  63.717  1.00  0.00    -0.108 C  
HETATM   26  C   UNL     1      -7.192   6.561  65.124  1.00  0.00    -0.070 C  
HETATM   27  C   UNL     1      -7.555   7.921  65.723  1.00  0.00    -0.083 C  
ENDBRANCH  22  23
ENDBRANCH  14  22
ENDBRANCH   2   7
TORSDOF 3
ENDMDL
MODEL      120
REMARK 921   NORMALIZED FREE ENERGY PREDICTED BY IDOCK:   -4.32 KCAL/MOL
REMARK 922        TOTAL FREE ENERGY PREDICTED BY IDOCK:   -5.31 KCAL/MOL
REMARK 923 INTER-LIGAND FREE ENERGY PREDICTED BY IDOCK:   -5.12 KCAL/MOL
REMARK 924 INTRA-LIGAND FREE ENERGY PREDICTED BY IDOCK:   -0.19 KCAL/MOL
REMARK 927      BINDING AFFINITY PREDICTED BY RF-SCORE:    0.00 PKD
ROOT
HETATM    1  N   UNL     1      -9.143   5.382  72.745  1.00  0.00    -0.131 N  
HETATM    2  S   UNL     1      -9.658   6.739  73.589  1.00  0.00    -0.222 S  
HETATM    3  H2  UNL     1      -9.648   4.506  72.613  1.00  0.00     0.000 HD 
HETATM    4  H1  UNL     1      -8.217   5.625  72.391  1.00  0.00     0.000 HD 
HETATM    5  O   UNL     1     -10.971   6.395  74.091  1.00  0.00     0.091 OA 
HETATM    6  O   UNL     1      -8.592   7.134  74.468  1.00  0.00    -0.181 OA 
ENDROOT
BRANCH   2   7
HETATM    7  C   UNL     1      -9.832   7.947  72.314  1.00  0.00    -0.215 A  
HETATM    8  C   UNL     1     -11.073   8.570  72.142  1.00  0.00    -0.436 A  
HETATM    9  C   UNL     1     -11.222   9.524  71.128  1.00  0.00    -0.376 A  
HETATM   10  C   UNL     1     -10.174   9.894  70.282  1.00  0.00    -0.264 A  
HETATM   11  N   UNL     1     -10.293  10.917  69.341  1.00  0.00    -0.373 NA 
HETATM   12  C   UNL     1      -8.936   9.274  70.493  1.00  0.00    -0.296 A  
HETATM   13  H   UNL     1      -9.479  11.462  69.054  1.00  0.00     0.000 HD 
HETATM   14  C   UNL     1     -11.603  11.184  68.785  1.00  0.00    -0.322 C  
HETATM   15  C   UNL     1      -8.757   8.302  71.493  1.00  0.00    -0.163 A  
HETATM   16  N   UNL     1     -12.447  11.573  69.887  1.00  0.00    -0.152 N  
HETATM   17 CL   UNL     1      -7.179   7.608  71.619  1.00  0.00    -0.062 Cl 
HETATM   18  O   UNL     1     -13.152  10.904  72.192  1.00  0.00    -0.463 OA 
HETATM   19  S   UNL     1     -12.787  10.309  70.926  1.00  0.00    -0.357 S  
HETATM   20  O   UNL     1     -13.640   9.374  70.232  1.00  0.00     0.521 OA 
HETATM   21  H   UNL     1     -12.802  12.520  70.019  1.00  0.00     0.000 HD 
BRANCH  14  22
HETATM   22  C   UNL     1     -11.532  12.358  67.793  1.00  0.00    -0.383 C  
BRANCH  22  23
HETATM   23  C   UNL     1     -11.002  13.663  68.406  1.00  0.00    -0.284 C  
HETATM   24  C   UNL     1      -9.603  14.055  67.934  1.00  0.00    -0.221 C  
HETATM   25  C   UNL     1      -9.519  15.526  68.302  1.00  0.00    -0.200 C  
HETATM   26  C   UNL     1     -10.902  16.075  67.979  1.00  0.00    -0.335 C  
HETATM   27  C   UNL     1     -11.858  14.881  68.029  1.00  0.00    -0.296 C  
ENDBRANCH  22  23
ENDBRANCH  14  22
ENDBRANCH   2   7
TORSDOF 3
ENDMDL
MODEL      121
REMARK 921   NORMALIZED FREE ENERGY PREDICTED BY IDOCK:   -4.30 KCAL/MOL
REMARK 922        TOTAL FREE ENERGY PREDICTED BY IDOCK:   -5.29 KCAL/MOL
REMARK 923 INTER-LIGAND FREE ENERGY PREDICTED BY IDOCK:   -5.07 KCAL/MOL
REMARK 924 INTRA-LIGAND FREE ENERGY PREDICTED BY IDOCK:   -0.22 KCAL/MOL
REMARK 927      BINDING AFFINITY PREDICTED BY RF-SCORE:    0.00 PKD
ROOT
HETATM    1  N   UNL     1      -7.723   8.353  71.958  1.00  0.00    -0.126 N  
HETATM    2  S   UNL     1      -8.181   7.117  70.919  1.00  0.00    -0.117 S  
HETATM    3  H2  UNL     1      -6.774   8.627  72.215  1.00  0.00     0.000 HD 
HETATM    4  H1  UNL     1      -8.597   8.770  72.276  1.00  0.00     0.000 HD 
HETATM    5  O   UNL     1      -6.940   6.524  70.466  1.00  0.00    -0.060 OA 
HETATM    6  O   UNL     1      -9.191   6.342  71.584  1.00  0.00    -0.145 OA 
ENDROOT
BRANCH   2   7
HETATM    7  C   UNL     1      -8.918   7.993  69.574  1.00  0.00    -0.148 A  
HETATM    8  C   UNL     1      -8.341   7.887  68.304  1.00  0.00    -0.124 A  
HETATM    9  C   UNL     1      -8.915   8.584  67.234  1.00  0.00    -0.129 A  
HETATM   10  C   UNL     1     -10.055   9.378  67.378  1.00  0.00    -0.215 A  
HETATM   11  N   UNL     1     -10.687   9.989  66.295  1.00  0.00    -0.027 NA 
HETATM   12  C   UNL     1     -10.626   9.447  68.655  1.00  0.00    -0.230 A  
HETATM   13  H   UNL     1     -11.689  10.182  66.312  1.00  0.00     0.000 HD 
HETATM   14  C   UNL     1      -9.880  10.343  65.145  1.00  0.00    -0.313 C  
HETATM   15  C   UNL     1     -10.067   8.770  69.753  1.00  0.00    -0.196 A  
HETATM   16  N   UNL     1      -9.335   9.112  64.630  1.00  0.00    -0.415 N  
HETATM   17 CL   UNL     1     -10.870   8.968  71.271  1.00  0.00    -0.356 Cl 
HETATM   18  O   UNL     1      -8.125   7.029  65.305  1.00  0.00    -0.125 OA 
HETATM   19  S   UNL     1      -8.186   8.435  65.637  1.00  0.00    -0.140 S  
HETATM   20  O   UNL     1      -7.021   9.287  65.625  1.00  0.00    -0.079 OA 
HETATM   21  H   UNL     1      -9.620   8.697  63.743  1.00  0.00     0.000 HD 
BRANCH  14  22
HETATM   22  C   UNL     1     -10.759  10.977  64.052  1.00  0.00    -0.331 C  
BRANCH  22  23
HETATM   23  C   UNL     1     -10.921  12.498  64.186  1.00  0.00    -0.425 C  
HETATM   24  C   UNL     1     -12.290  12.941  64.700  1.00  0.00    -0.501 C  
HETATM   25  C   UNL     1     -12.038  14.367  65.158  1.00  0.00    -0.395 C  
HETATM   26  C   UNL     1     -10.663  14.315  65.811  1.00  0.00    -0.308 C  
HETATM   27  C   UNL     1      -9.946  13.108  65.203  1.00  0.00    -0.170 C  
ENDBRANCH  22  23
ENDBRANCH  14  22
ENDBRANCH   2   7
TORSDOF 3
ENDMDL
MODEL      122
REMARK 921   NORMALIZED FREE ENERGY PREDICTED BY IDOCK:   -4.28 KCAL/MOL
REMARK 922        TOTAL FREE ENERGY PREDICTED BY IDOCK:   -5.27 KCAL/MOL
REMARK 923 INTER-LIGAND FREE ENERGY PREDICTED BY IDOCK:   -5.02 KCAL/MOL
REMARK 924 INTRA-LIGAND FREE ENERGY PREDICTED BY IDOCK:   -0.25 KCAL/MOL
REMARK 927      BINDING AFFINITY PREDICTED BY RF-SCORE:    0.00 PKD
ROOT
HETATM    1  N   UNL     1      -7.146   7.555  68.617  1.00  0.00    -0.078 N  
HETATM    2  S   UNL     1      -7.835   8.457  69.854  1.00  0.00    -0.104 S  
HETATM    3  H2  UNL     1      -7.556   6.759  68.128  1.00  0.00     0.000 HD 
HETATM    4  H1  UNL     1      -6.230   7.976  68.460  1.00  0.00     0.000 HD 
HETATM    5  O   UNL     1      -9.135   7.861  70.077  1.00  0.00    -0.151 OA 
HETATM    6  O   UNL     1      -6.862   8.566  70.905  1.00  0.00    -0.043 OA 
ENDROOT
BRANCH   2   7
HETATM    7  C   UNL     1      -8.055  10.040  69.105  1.00  0.00    -0.126 A  
HETATM    8  C   UNL     1      -9.355  10.509  68.891  1.00  0.00    -0.192 A  
HETATM    9  C   UNL     1      -9.538  11.762  68.290  1.00  0.00    -0.199 A  
HETATM   10  C   UNL     1      -8.470  12.574  67.903  1.00  0.00    -0.171 A  
HETATM   11  N   UNL     1      -8.650  13.863  67.401  1.00  0.00    -0.189 NA 
HETATM   12  C   UNL     1      -7.179  12.091  68.151  1.00  0.00    -0.090 A  
HETATM   13  H   UNL     1      -7.935  14.580  67.527  1.00  0.00     0.000 HD 
HETATM   14  C   UNL     1      -9.881  14.155  66.694  1.00  0.00    -0.283 C  
HETATM   15  C   UNL     1      -6.962  10.833  68.740  1.00  0.00    -0.075 A  
HETATM   16  N   UNL     1     -10.954  13.954  67.636  1.00  0.00    -0.261 N  
HETATM   17 CL   UNL     1      -5.313  10.363  68.965  1.00  0.00    -0.038 Cl 
HETATM   18  O   UNL     1     -11.862  12.331  69.309  1.00  0.00    -0.302 OA 
HETATM   19  S   UNL     1     -11.180  12.347  68.034  1.00  0.00    -0.291 S  
HETATM   20  O   UNL     1     -11.694  11.664  66.870  1.00  0.00    -0.552 OA 
HETATM   21  H   UNL     1     -11.517  14.713  68.019  1.00  0.00     0.000 HD 
BRANCH  14  22
HETATM   22  C   UNL     1      -9.901  15.626  66.244  1.00  0.00    -0.318 C  
BRANCH  22  23
HETATM   23  C   UNL     1      -9.274  16.597  67.255  1.00  0.00    -0.228 C  
HETATM   24  C   UNL     1      -8.368  17.656  66.629  1.00  0.00    -0.288 C  
HETATM   25  C   UNL     1      -8.264  18.706  67.721  1.00  0.00    -0.273 C  
HETATM   26  C   UNL     1      -9.665  18.774  68.313  1.00  0.00    -0.406 C  
HETATM   27  C   UNL     1     -10.326  17.429  68.004  1.00  0.00    -0.362 C  
ENDBRANCH  22  23
ENDBRANCH  14  22
ENDBRANCH   2   7
TORSDOF 3
ENDMDL
MODEL      123
REMARK 921   NORMALIZED FREE ENERGY PREDICTED BY IDOCK:   -4.27 KCAL/MOL
REMARK 922        TOTAL FREE ENERGY PREDICTED BY IDOCK:   -5.25 KCAL/MOL
REMARK 923 INTER-LIGAND FREE ENERGY PREDICTED BY IDOCK:   -5.12 KCAL/MOL
REMARK 924 INTRA-LIGAND FREE ENERGY PREDICTED BY IDOCK:   -0.13 KCAL/MOL
REMARK 927      BINDING AFFINITY PREDICTED BY RF-SCORE:    0.00 PKD
ROOT
HETATM    1  N   UNL     1     -10.375  15.735  67.078  1.00  0.00    -0.286 N  
HETATM    2  S   UNL     1      -9.354  14.971  68.169  1.00  0.00    -0.191 S  
HETATM    3  H2  UNL     1     -10.118  16.187  66.200  1.00  0.00     0.000 HD 
HETATM    4  H1  UNL     1     -11.308  15.650  67.482  1.00  0.00     0.000 HD 
HETATM    5  O   UNL     1      -8.030  15.092  67.596  1.00  0.00    -0.135 OA 
HETATM    6  O   UNL     1      -9.660  15.477  69.478  1.00  0.00    -0.260 OA 
ENDROOT
BRANCH   2   7
HETATM    7  C   UNL     1      -9.868  13.285  68.067  1.00  0.00    -0.230 A  
HETATM    8  C   UNL     1      -8.996  12.348  67.504  1.00  0.00    -0.183 A  
HETATM    9  C   UNL     1      -9.399  11.009  67.413  1.00  0.00    -0.155 A  
HETATM   10  C   UNL     1     -10.640  10.564  67.874  1.00  0.00    -0.232 A  
HETATM   11  N   UNL     1     -11.000   9.217  67.878  1.00  0.00    -0.498 NA 
HETATM   12  C   UNL     1     -11.484  11.519  68.456  1.00  0.00    -0.354 A  
HETATM   13  H   UNL     1     -11.659   8.852  68.567  1.00  0.00     0.000 HD 
HETATM   14  C   UNL     1     -10.413   8.350  66.877  1.00  0.00    -0.289 C  
HETATM   15  C   UNL     1     -11.114  12.872  68.550  1.00  0.00    -0.267 A  
HETATM   16  N   UNL     1      -8.989   8.369  67.099  1.00  0.00    -0.135 N  
HETATM   17 CL   UNL     1     -12.268  13.937  69.273  1.00  0.00    -0.369 Cl 
HETATM   18  O   UNL     1      -7.045   9.905  67.446  1.00  0.00    -0.083 OA 
HETATM   19  S   UNL     1      -8.288   9.836  66.711  1.00  0.00    -0.124 S  
HETATM   20  O   UNL     1      -8.353  10.000  65.278  1.00  0.00    -0.140 OA 
HETATM   21  H   UNL     1      -8.464   7.571  67.455  1.00  0.00     0.000 HD 
BRANCH  14  22
HETATM   22  C   UNL     1     -10.912   6.906  67.063  1.00  0.00    -0.404 C  
BRANCH  22  23
HETATM   23  C   UNL     1      -9.886   5.835  66.668  1.00  0.00    -0.194 C  
HETATM   24  C   UNL     1      -9.361   5.006  67.839  1.00  0.00    -0.147 C  
HETATM   25  C   UNL     1      -8.761   3.790  67.156  1.00  0.00    -0.122 C  
HETATM   26  C   UNL     1      -9.735   3.473  66.028  1.00  0.00    -0.043 C  
HETATM   27  C   UNL     1     -10.472   4.778  65.720  1.00  0.00    -0.275 C  
ENDBRANCH  22  23
ENDBRANCH  14  22
ENDBRANCH   2   7
TORSDOF 3
ENDMDL
MODEL      124
REMARK 921   NORMALIZED FREE ENERGY PREDICTED BY IDOCK:   -4.21 KCAL/MOL
REMARK 922        TOTAL FREE ENERGY PREDICTED BY IDOCK:   -5.18 KCAL/MOL
REMARK 923 INTER-LIGAND FREE ENERGY PREDICTED BY IDOCK:   -5.39 KCAL/MOL
REMARK 924 INTRA-LIGAND FREE ENERGY PREDICTED BY IDOCK:    0.21 KCAL/MOL
REMARK 927      BINDING AFFINITY PREDICTED BY RF-SCORE:    0.00 PKD
ROOT
HETATM    1  N   UNL     1      -9.090   7.386  65.320  1.00  0.00    -0.301 N  
HETATM    2  S   UNL     1      -8.122   8.514  64.540  1.00  0.00    -0.154 S  
HETATM    3  H2  UNL     1      -8.822   6.760  66.081  1.00  0.00     0.000 HD 
HETATM    4  H1  UNL     1     -10.002   7.461  64.870  1.00  0.00     0.000 HD 
HETATM    5  O   UNL     1      -6.827   8.407  65.179  1.00  0.00    -0.066 OA 
HETATM    6  O   UNL     1      -8.286   8.322  63.126  1.00  0.00    -0.161 OA 
ENDROOT
BRANCH   2   7
HETATM    7  C   UNL     1      -8.863  10.048  65.003  1.00  0.00    -0.186 A  
HETATM    8  C   UNL     1      -8.822  10.436  66.347  1.00  0.00    -0.159 A  
HETATM    9  C   UNL     1      -9.414  11.649  66.724  1.00  0.00    -0.186 A  
HETATM   10  C   UNL     1     -10.037  12.499  65.809  1.00  0.00    -0.262 A  
HETATM   11  N   UNL     1     -10.534  13.753  66.165  1.00  0.00    -0.292 NA 
HETATM   12  C   UNL     1     -10.042  12.098  64.467  1.00  0.00    -0.286 A  
HETATM   13  H   UNL     1     -10.580  14.512  65.485  1.00  0.00     0.000 HD 
HETATM   14  C   UNL     1     -10.984  13.946  67.529  1.00  0.00    -0.276 C  
HETATM   15  C   UNL     1      -9.468  10.881  64.057  1.00  0.00    -0.262 A  
HETATM   16  N   UNL     1      -9.837  13.730  68.375  1.00  0.00    -0.228 N  
HETATM   17 CL   UNL     1      -9.570  10.510  62.372  1.00  0.00    -0.236 Cl 
HETATM   18  O   UNL     1      -7.961  12.138  68.824  1.00  0.00    -0.098 OA 
HETATM   19  S   UNL     1      -9.348  12.133  68.417  1.00  0.00    -0.126 S  
HETATM   20  O   UNL     1     -10.359  11.371  69.112  1.00  0.00    -0.186 OA 
HETATM   21  H   UNL     1      -9.372  14.475  68.895  1.00  0.00     0.000 HD 
BRANCH  14  22
HETATM   22  C   UNL     1     -11.468  15.392  67.731  1.00  0.00    -0.284 C  
BRANCH  22  23
HETATM   23  C   UNL     1     -10.339  16.432  67.752  1.00  0.00    -0.287 C  
HETATM   24  C   UNL     1     -10.403  17.452  66.616  1.00  0.00    -0.306 C  
HETATM   25  C   UNL     1      -9.506  18.573  67.112  1.00  0.00    -0.294 C  
HETATM   26  C   UNL     1      -9.817  18.672  68.600  1.00  0.00    -0.427 C  
HETATM   27  C   UNL     1     -10.367  17.306  69.015  1.00  0.00    -0.330 C  
ENDBRANCH  22  23
ENDBRANCH  14  22
ENDBRANCH   2   7
TORSDOF 3
ENDMDL
MODEL      125
REMARK 921   NORMALIZED FREE ENERGY PREDICTED BY IDOCK:   -4.20 KCAL/MOL
REMARK 922        TOTAL FREE ENERGY PREDICTED BY IDOCK:   -5.17 KCAL/MOL
REMARK 923 INTER-LIGAND FREE ENERGY PREDICTED BY IDOCK:   -5.49 KCAL/MOL
REMARK 924 INTRA-LIGAND FREE ENERGY PREDICTED BY IDOCK:    0.32 KCAL/MOL
REMARK 927      BINDING AFFINITY PREDICTED BY RF-SCORE:    0.00 PKD
ROOT
HETATM    1  N   UNL     1     -13.417   8.970  73.187  1.00  0.00    -0.663 N  
HETATM    2  S   UNL     1     -13.202   8.053  71.797  1.00  0.00    -0.318 S  
HETATM    3  H2  UNL     1     -13.261   8.678  74.152  1.00  0.00     0.000 HD 
HETATM    4  H1  UNL     1     -13.737   9.881  72.858  1.00  0.00     0.000 HD 
HETATM    5  O   UNL     1     -12.748   6.760  72.264  1.00  0.00    -0.139 OA 
HETATM    6  O   UNL     1     -14.385   8.195  70.996  1.00  0.00    -0.209 OA 
ENDROOT
BRANCH   2   7
HETATM    7  C   UNL     1     -11.860   8.874  70.995  1.00  0.00    -0.276 A  
HETATM    8  C   UNL     1     -12.099  10.102  70.370  1.00  0.00    -0.332 A  
HETATM    9  C   UNL     1     -11.042  10.756  69.725  1.00  0.00    -0.281 A  
HETATM   10  C   UNL     1      -9.746  10.238  69.688  1.00  0.00    -0.185 A  
HETATM   11  N   UNL     1      -8.672  10.936  69.137  1.00  0.00    -0.348 NA 
HETATM   12  C   UNL     1      -9.529   9.018  70.343  1.00  0.00    -0.247 A  
HETATM   13  H   UNL     1      -7.720  10.788  69.475  1.00  0.00     0.000 HD 
HETATM   14  C   UNL     1      -8.945  11.877  68.070  1.00  0.00    -0.185 C  
HETATM   15  C   UNL     1     -10.572   8.330  70.989  1.00  0.00    -0.204 A  
HETATM   16  N   UNL     1      -9.818  12.883  68.622  1.00  0.00    -0.401 N  
HETATM   17 CL   UNL     1     -10.157   6.827  71.735  1.00  0.00    -0.192 Cl 
HETATM   18  O   UNL     1     -11.921  13.194  69.939  1.00  0.00    -0.317 OA 
HETATM   19  S   UNL     1     -11.352  12.308  68.949  1.00  0.00    -0.308 S  
HETATM   20  O   UNL     1     -12.004  12.026  67.692  1.00  0.00    -0.547 OA 
HETATM   21  H   UNL     1      -9.529  13.846  68.794  1.00  0.00     0.000 HD 
BRANCH  14  22
HETATM   22  C   UNL     1      -7.644  12.561  67.617  1.00  0.00    -0.145 C  
BRANCH  22  23
HETATM   23  C   UNL     1      -6.785  11.708  66.673  1.00  0.00    -0.028 C  
HETATM   24  C   UNL     1      -5.990  10.606  67.371  1.00  0.00    -0.052 C  
HETATM   25  C   UNL     1      -5.622   9.674  66.230  1.00  0.00    -0.052 C  
HETATM   26  C   UNL     1      -6.866   9.644  65.353  1.00  0.00    -0.094 C  
HETATM   27  C   UNL     1      -7.626  10.939  65.643  1.00  0.00     0.029 C  
ENDBRANCH  22  23
ENDBRANCH  14  22
ENDBRANCH   2   7
TORSDOF 3
ENDMDL
MODEL      126
REMARK 921   NORMALIZED FREE ENERGY PREDICTED BY IDOCK:   -4.16 KCAL/MOL
REMARK 922        TOTAL FREE ENERGY PREDICTED BY IDOCK:   -5.12 KCAL/MOL
REMARK 923 INTER-LIGAND FREE ENERGY PREDICTED BY IDOCK:   -5.17 KCAL/MOL
REMARK 924 INTRA-LIGAND FREE ENERGY PREDICTED BY IDOCK:    0.04 KCAL/MOL
REMARK 927      BINDING AFFINITY PREDICTED BY RF-SCORE:    0.00 PKD
ROOT
HETATM    1  N   UNL     1      -9.428  12.724  66.031  1.00  0.00    -0.427 N  
HETATM    2  S   UNL     1      -8.615  12.558  67.490  1.00  0.00    -0.195 S  
HETATM    3  H2  UNL     1      -9.020  12.876  65.108  1.00  0.00     0.000 HD 
HETATM    4  H1  UNL     1     -10.417  12.639  66.266  1.00  0.00     0.000 HD 
HETATM    5  O   UNL     1      -7.211  12.679  67.156  1.00  0.00    -0.128 OA 
HETATM    6  O   UNL     1      -9.245  13.433  68.439  1.00  0.00    -0.195 OA 
ENDROOT
BRANCH   2   7
HETATM    7  C   UNL     1      -8.954  10.884  67.936  1.00  0.00    -0.141 A  
HETATM    8  C   UNL     1      -9.519  10.622  69.188  1.00  0.00    -0.185 A  
HETATM    9  C   UNL     1      -9.784   9.295  69.552  1.00  0.00    -0.173 A  
HETATM   10  C   UNL     1      -9.517   8.215  68.708  1.00  0.00    -0.148 A  
HETATM   11  N   UNL     1      -9.875   6.905  69.027  1.00  0.00    -0.150 NA 
HETATM   12  C   UNL     1      -8.974   8.508  67.450  1.00  0.00    -0.144 A  
HETATM   13  H   UNL     1     -10.083   6.225  68.295  1.00  0.00     0.000 HD 
HETATM   14  C   UNL     1      -9.945   6.538  70.426  1.00  0.00    -0.179 C  
HETATM   15  C   UNL     1      -8.684   9.827  67.060  1.00  0.00    -0.135 A  
HETATM   16  N   UNL     1     -10.959   7.372  71.021  1.00  0.00    -0.247 N  
HETATM   17 CL   UNL     1      -7.996  10.032  65.487  1.00  0.00    -0.133 Cl 
HETATM   18  O   UNL     1     -11.727   9.744  71.221  1.00  0.00    -0.339 OA 
HETATM   19  S   UNL     1     -10.506   8.976  71.128  1.00  0.00    -0.321 S  
HETATM   20  O   UNL     1      -9.447   9.080  72.103  1.00  0.00    -0.340 OA 
HETATM   21  H   UNL     1     -11.861   7.019  71.343  1.00  0.00     0.000 HD 
BRANCH  14  22
HETATM   22  C   UNL     1     -10.380   5.069  70.571  1.00  0.00    -0.285 C  
BRANCH  22  23
HETATM   23  C   UNL     1      -9.990   4.432  71.912  1.00  0.00    -0.258 C  
HETATM   24  C   UNL     1     -10.955   4.736  73.057  1.00  0.00    -0.346 C  
HETATM   25  C   UNL     1     -10.615   3.668  74.083  1.00  0.00    -0.271 C  
HETATM   26  C   UNL     1     -10.368   2.415  73.254  1.00  0.00    -0.214 C  
HETATM   27  C   UNL     1      -9.981   2.897  71.854  1.00  0.00    -0.213 C  
ENDBRANCH  22  23
ENDBRANCH  14  22
ENDBRANCH   2   7
TORSDOF 3
ENDMDL
MODEL      127
REMARK 921   NORMALIZED FREE ENERGY PREDICTED BY IDOCK:   -4.15 KCAL/MOL
REMARK 922        TOTAL FREE ENERGY PREDICTED BY IDOCK:   -5.12 KCAL/MOL
REMARK 923 INTER-LIGAND FREE ENERGY PREDICTED BY IDOCK:   -5.44 KCAL/MOL
REMARK 924 INTRA-LIGAND FREE ENERGY PREDICTED BY IDOCK:    0.32 KCAL/MOL
REMARK 927      BINDING AFFINITY PREDICTED BY RF-SCORE:    0.00 PKD
ROOT
HETATM    1  N   UNL     1      -8.895  20.424  66.112  1.00  0.00    -0.583 N  
HETATM    2  S   UNL     1     -10.046  19.703  67.099  1.00  0.00    -0.446 S  
HETATM    3  H2  UNL     1      -8.146  21.057  66.394  1.00  0.00     0.000 HD 
HETATM    4  H1  UNL     1      -9.106  20.092  65.171  1.00  0.00     0.000 HD 
HETATM    5  O   UNL     1      -9.747  20.174  68.435  1.00  0.00    -0.297 OA 
HETATM    6  O   UNL     1     -11.331  19.914  66.493  1.00  0.00     0.030 OA 
ENDROOT
BRANCH   2   7
HETATM    7  C   UNL     1      -9.631  17.990  66.992  1.00  0.00    -0.287 A  
HETATM    8  C   UNL     1     -10.658  17.043  67.070  1.00  0.00    -0.226 A  
HETATM    9  C   UNL     1     -10.336  15.681  66.993  1.00  0.00    -0.289 A  
HETATM   10  C   UNL     1      -9.027  15.225  66.828  1.00  0.00    -0.262 A  
HETATM   11  N   UNL     1      -8.717  13.877  66.648  1.00  0.00    -0.445 NA 
HETATM   12  C   UNL     1      -8.021  16.196  66.728  1.00  0.00    -0.307 A  
HETATM   13  H   UNL     1      -7.892  13.594  66.119  1.00  0.00     0.000 HD 
HETATM   14  C   UNL     1      -9.602  12.890  67.233  1.00  0.00    -0.220 C  
HETATM   15  C   UNL     1      -8.309  17.569  66.815  1.00  0.00    -0.251 A  
HETATM   16  N   UNL     1     -10.892  13.076  66.618  1.00  0.00    -0.273 N  
HETATM   17 CL   UNL     1      -6.963  18.647  66.696  1.00  0.00    -0.221 Cl 
HETATM   18  O   UNL     1     -12.599  14.814  66.050  1.00  0.00    -0.059 OA 
HETATM   19  S   UNL     1     -11.638  14.497  67.083  1.00  0.00    -0.390 S  
HETATM   20  O   UNL     1     -12.003  14.379  68.474  1.00  0.00    -0.331 OA 
HETATM   21  H   UNL     1     -11.306  12.410  65.967  1.00  0.00     0.000 HD 
BRANCH  14  22
HETATM   22  C   UNL     1      -9.108  11.470  66.903  1.00  0.00    -0.181 C  
BRANCH  22  23
HETATM   23  C   UNL     1      -7.580  11.332  66.871  1.00  0.00    -0.148 C  
HETATM   24  C   UNL     1      -6.912  11.416  68.242  1.00  0.00    -0.072 C  
HETATM   25  C   UNL     1      -5.540  10.814  67.992  1.00  0.00    -0.039 C  
HETATM   26  C   UNL     1      -5.807   9.648  67.049  1.00  0.00    -0.051 C  
HETATM   27  C   UNL     1      -7.123   9.966  66.337  1.00  0.00    -0.096 C  
ENDBRANCH  22  23
ENDBRANCH  14  22
ENDBRANCH   2   7
TORSDOF 3
ENDMDL
MODEL      128
REMARK 921   NORMALIZED FREE ENERGY PREDICTED BY IDOCK:   -4.15 KCAL/MOL
REMARK 922        TOTAL FREE ENERGY PREDICTED BY IDOCK:   -5.12 KCAL/MOL
REMARK 923 INTER-LIGAND FREE ENERGY PREDICTED BY IDOCK:   -5.18 KCAL/MOL
REMARK 924 INTRA-LIGAND FREE ENERGY PREDICTED BY IDOCK:    0.06 KCAL/MOL
REMARK 927      BINDING AFFINITY PREDICTED BY RF-SCORE:    0.00 PKD
ROOT
HETATM    1  N   UNL     1     -10.824  16.493  66.323  1.00  0.00    -0.120 N  
HETATM    2  S   UNL     1      -9.391  16.132  67.121  1.00  0.00    -0.219 S  
HETATM    3  H2  UNL     1     -10.954  16.652  65.324  1.00  0.00     0.000 HD 
HETATM    4  H1  UNL     1     -11.536  16.517  67.054  1.00  0.00     0.000 HD 
HETATM    5  O   UNL     1      -8.381  16.097  66.085  1.00  0.00    -0.318 OA 
HETATM    6  O   UNL     1      -9.288  17.016  68.249  1.00  0.00    -0.239 OA 
ENDROOT
BRANCH   2   7
HETATM    7  C   UNL     1      -9.672  14.488  67.700  1.00  0.00    -0.215 A  
HETATM    8  C   UNL     1      -8.792  13.476  67.304  1.00  0.00    -0.225 A  
HETATM    9  C   UNL     1      -9.012  12.167  67.753  1.00  0.00    -0.179 A  
HETATM   10  C   UNL     1     -10.073  11.828  68.595  1.00  0.00    -0.189 A  
HETATM   11  N   UNL     1     -10.233  10.548  69.125  1.00  0.00    -0.214 NA 
HETATM   12  C   UNL     1     -10.925  12.866  68.995  1.00  0.00    -0.244 A  
HETATM   13  H   UNL     1     -10.698  10.406  70.022  1.00  0.00     0.000 HD 
HETATM   14  C   UNL     1      -9.720   9.426  68.366  1.00  0.00    -0.149 C  
HETATM   15  C   UNL     1     -10.739  14.187  68.552  1.00  0.00    -0.254 A  
HETATM   16  N   UNL     1      -8.296   9.622  68.252  1.00  0.00    -0.117 N  
HETATM   17 CL   UNL     1     -11.883  15.356  69.113  1.00  0.00    -0.359 Cl 
HETATM   18  O   UNL     1      -6.558  11.313  67.637  1.00  0.00    -0.065 OA 
HETATM   19  S   UNL     1      -7.891  10.901  67.256  1.00  0.00    -0.120 S  
HETATM   20  O   UNL     1      -8.236  10.542  65.901  1.00  0.00    -0.142 OA 
HETATM   21  H   UNL     1      -7.607   9.041  68.730  1.00  0.00     0.000 HD 
BRANCH  14  22
HETATM   22  C   UNL     1      -9.968   8.111  69.125  1.00  0.00    -0.192 C  
BRANCH  22  23
HETATM   23  C   UNL     1     -11.205   8.137  70.033  1.00  0.00    -0.084 C  
HETATM   24  C   UNL     1     -11.859   6.773  70.243  1.00  0.00    -0.359 C  
HETATM   25  C   UNL     1     -12.718   6.992  71.476  1.00  0.00    -0.425 C  
HETATM   26  C   UNL     1     -11.863   7.870  72.380  1.00  0.00    -0.402 C  
HETATM   27  C   UNL     1     -10.878   8.597  71.462  1.00  0.00    -0.352 C  
ENDBRANCH  22  23
ENDBRANCH  14  22
ENDBRANCH   2   7
TORSDOF 3
ENDMDL
MODEL      129
REMARK 921   NORMALIZED FREE ENERGY PREDICTED BY IDOCK:   -4.12 KCAL/MOL
REMARK 922        TOTAL FREE ENERGY PREDICTED BY IDOCK:   -5.08 KCAL/MOL
REMARK 923 INTER-LIGAND FREE ENERGY PREDICTED BY IDOCK:   -5.43 KCAL/MOL
REMARK 924 INTRA-LIGAND FREE ENERGY PREDICTED BY IDOCK:    0.35 KCAL/MOL
REMARK 927      BINDING AFFINITY PREDICTED BY RF-SCORE:    0.00 PKD
ROOT
HETATM    1  N   UNL     1     -10.952  17.687  68.805  1.00  0.00    -0.187 N  
HETATM    2  S   UNL     1      -9.865  17.727  67.527  1.00  0.00    -0.316 S  
HETATM    3  H2  UNL     1     -11.928  17.984  68.798  1.00  0.00     0.000 HD 
HETATM    4  H1  UNL     1     -10.426  17.302  69.590  1.00  0.00     0.000 HD 
HETATM    5  O   UNL     1     -10.611  18.274  66.413  1.00  0.00    -0.374 OA 
HETATM    6  O   UNL     1      -8.658  18.342  68.003  1.00  0.00    -0.260 OA 
ENDROOT
BRANCH   2   7
HETATM    7  C   UNL     1      -9.559  16.015  67.223  1.00  0.00    -0.225 A  
HETATM    8  C   UNL     1     -10.647  15.170  66.977  1.00  0.00    -0.300 A  
HETATM    9  C   UNL     1     -10.414  13.809  66.742  1.00  0.00    -0.270 A  
HETATM   10  C   UNL     1      -9.132  13.256  66.732  1.00  0.00    -0.210 A  
HETATM   11  N   UNL     1      -8.890  11.923  66.397  1.00  0.00    -0.295 NA 
HETATM   12  C   UNL     1      -8.059  14.128  66.958  1.00  0.00    -0.044 A  
HETATM   13  H   UNL     1      -8.004  11.640  65.978  1.00  0.00     0.000 HD 
HETATM   14  C   UNL     1      -9.934  10.954  66.661  1.00  0.00    -0.208 C  
HETATM   15  C   UNL     1      -8.260  15.497  67.209  1.00  0.00    -0.197 A  
HETATM   16  N   UNL     1     -11.074  11.350  65.873  1.00  0.00    -0.217 N  
HETATM   17 CL   UNL     1      -6.842  16.445  67.491  1.00  0.00    -0.161 Cl 
HETATM   18  O   UNL     1     -12.522  13.309  65.305  1.00  0.00    -0.447 OA 
HETATM   19  S   UNL     1     -11.790  12.756  66.423  1.00  0.00    -0.379 S  
HETATM   20  O   UNL     1     -12.410  12.477  67.696  1.00  0.00    -0.295 OA 
HETATM   21  H   UNL     1     -11.409  10.827  65.064  1.00  0.00     0.000 HD 
BRANCH  14  22
HETATM   22  C   UNL     1      -9.490   9.555  66.200  1.00  0.00    -0.281 C  
BRANCH  22  23
HETATM   23  C   UNL     1      -8.544   9.566  64.991  1.00  0.00    -0.187 C  
HETATM   24  C   UNL     1      -7.776   8.262  64.782  1.00  0.00    -0.114 C  
HETATM   25  C   UNL     1      -7.303   8.370  63.343  1.00  0.00    -0.104 C  
HETATM   26  C   UNL     1      -8.479   8.998  62.607  1.00  0.00    -0.210 C  
HETATM   27  C   UNL     1      -9.289   9.755  63.662  1.00  0.00    -0.154 C  
ENDBRANCH  22  23
ENDBRANCH  14  22
ENDBRANCH   2   7
TORSDOF 3
ENDMDL
MODEL      130
REMARK 921   NORMALIZED FREE ENERGY PREDICTED BY IDOCK:   -4.06 KCAL/MOL
REMARK 922        TOTAL FREE ENERGY PREDICTED BY IDOCK:   -5.01 KCAL/MOL
REMARK 923 INTER-LIGAND FREE ENERGY PREDICTED BY IDOCK:   -5.21 KCAL/MOL
REMARK 924 INTRA-LIGAND FREE ENERGY PREDICTED BY IDOCK:    0.20 KCAL/MOL
REMARK 927      BINDING AFFINITY PREDICTED BY RF-SCORE:    0.00 PKD
ROOT
HETATM    1  N   UNL     1      -8.790   8.343  63.029  1.00  0.00    -0.371 N  
HETATM    2  S   UNL     1      -8.687   9.948  63.511  1.00  0.00    -0.233 S  
HETATM    3  H2  UNL     1      -8.048   7.765  62.635  1.00  0.00     0.000 HD 
HETATM    4  H1  UNL     1      -9.756   8.071  63.215  1.00  0.00     0.000 HD 
HETATM    5  O   UNL     1      -7.317  10.334  63.246  1.00  0.00    -0.145 OA 
HETATM    6  O   UNL     1      -9.796  10.649  62.927  1.00  0.00    -0.319 OA 
ENDROOT
BRANCH   2   7
HETATM    7  C   UNL     1      -8.924   9.845  65.257  1.00  0.00    -0.191 A  
HETATM    8  C   UNL     1      -8.085   9.009  66.002  1.00  0.00    -0.111 A  
HETATM    9  C   UNL     1      -8.272   8.916  67.388  1.00  0.00    -0.108 A  
HETATM   10  C   UNL     1      -9.258   9.637  68.065  1.00  0.00    -0.125 A  
HETATM   11  N   UNL     1      -9.378   9.624  69.454  1.00  0.00    -0.180 NA 
HETATM   12  C   UNL     1     -10.068  10.484  67.297  1.00  0.00    -0.242 A  
HETATM   13  H   UNL     1      -9.765  10.425  69.955  1.00  0.00     0.000 HD 
HETATM   14  C   UNL     1      -8.936   8.443  70.167  1.00  0.00    -0.142 C  
HETATM   15  C   UNL     1      -9.915  10.590  65.904  1.00  0.00    -0.254 A  
HETATM   16  N   UNL     1      -7.527   8.302  69.899  1.00  0.00    -0.064 N  
HETATM   17 CL   UNL     1     -11.002  11.660  65.089  1.00  0.00    -0.344 Cl 
HETATM   18  O   UNL     1      -5.841   8.273  68.051  1.00  0.00    -0.040 OA 
HETATM   19  S   UNL     1      -7.203   7.869  68.318  1.00  0.00    -0.092 S  
HETATM   20  O   UNL     1      -7.665   6.515  68.120  1.00  0.00    -0.101 OA 
HETATM   21  H   UNL     1      -6.802   8.452  70.601  1.00  0.00     0.000 HD 
BRANCH  14  22
HETATM   22  C   UNL     1      -9.124   8.633  71.682  1.00  0.00    -0.318 C  
BRANCH  22  23
HETATM   23  C   UNL     1     -10.490   8.167  72.206  1.00  0.00    -0.371 C  
HETATM   24  C   UNL     1     -11.634   9.140  71.928  1.00  0.00    -0.430 C  
HETATM   25  C   UNL     1     -12.870   8.278  72.117  1.00  0.00    -0.348 C  
HETATM   26  C   UNL     1     -12.490   6.937  71.504  1.00  0.00    -0.420 C  
HETATM   27  C   UNL     1     -10.962   6.865  71.543  1.00  0.00    -0.268 C  
ENDBRANCH  22  23
ENDBRANCH  14  22
ENDBRANCH   2   7
TORSDOF 3
ENDMDL
MODEL      131
REMARK 921   NORMALIZED FREE ENERGY PREDICTED BY IDOCK:   -4.05 KCAL/MOL
REMARK 922        TOTAL FREE ENERGY PREDICTED BY IDOCK:   -5.00 KCAL/MOL
REMARK 923 INTER-LIGAND FREE ENERGY PREDICTED BY IDOCK:   -4.90 KCAL/MOL
REMARK 924 INTRA-LIGAND FREE ENERGY PREDICTED BY IDOCK:   -0.10 KCAL/MOL
REMARK 927      BINDING AFFINITY PREDICTED BY RF-SCORE:    0.00 PKD
ROOT
HETATM    1  N   UNL     1     -10.463  17.281  67.339  1.00  0.00    -0.347 N  
HETATM    2  S   UNL     1      -9.833  16.431  66.036  1.00  0.00    -0.327 S  
HETATM    3  H2  UNL     1     -11.396  17.687  67.422  1.00  0.00     0.000 HD 
HETATM    4  H1  UNL     1      -9.713  17.304  68.030  1.00  0.00     0.000 HD 
HETATM    5  O   UNL     1     -10.898  16.400  65.055  1.00  0.00    -0.591 OA 
HETATM    6  O   UNL     1      -8.545  16.990  65.735  1.00  0.00    -0.517 OA 
ENDROOT
BRANCH   2   7
HETATM    7  C   UNL     1      -9.618  14.809  66.698  1.00  0.00    -0.272 A  
HETATM    8  C   UNL     1      -8.326  14.378  67.018  1.00  0.00    -0.172 A  
HETATM    9  C   UNL     1      -8.147  13.089  67.536  1.00  0.00    -0.179 A  
HETATM   10  C   UNL     1      -9.210  12.213  67.761  1.00  0.00    -0.189 A  
HETATM   11  N   UNL     1      -9.044  10.970  68.373  1.00  0.00    -0.155 NA 
HETATM   12  C   UNL     1     -10.496  12.679  67.455  1.00  0.00    -0.233 A  
HETATM   13  H   UNL     1      -9.800  10.545  68.911  1.00  0.00     0.000 HD 
HETATM   14  C   UNL     1      -7.769  10.300  68.223  1.00  0.00    -0.092 C  
HETATM   15  C   UNL     1     -10.709  13.962  66.921  1.00  0.00    -0.284 A  
HETATM   16  N   UNL     1      -6.779  11.161  68.820  1.00  0.00    -0.061 N  
HETATM   17 CL   UNL     1     -12.347  14.389  66.573  1.00  0.00    -0.378 Cl 
HETATM   18  O   UNL     1      -5.955  13.523  68.867  1.00  0.00    -0.075 OA 
HETATM   19  S   UNL     1      -6.516  12.560  67.946  1.00  0.00    -0.122 S  
HETATM   20  O   UNL     1      -5.868  12.201  66.707  1.00  0.00    -0.265 OA 
HETATM   21  H   UNL     1      -6.289  10.939  69.687  1.00  0.00     0.000 HD 
BRANCH  14  22
HETATM   22  C   UNL     1      -7.774   8.966  68.987  1.00  0.00    -0.090 C  
BRANCH  22  23
HETATM   23  C   UNL     1      -7.882   7.728  68.084  1.00  0.00    -0.121 C  
HETATM   24  C   UNL     1      -8.977   7.819  67.023  1.00  0.00    -0.145 C  
HETATM   25  C   UNL     1      -8.581   6.739  66.031  1.00  0.00    -0.149 C  
HETATM   26  C   UNL     1      -7.064   6.840  65.950  1.00  0.00    -0.069 C  
HETATM   27  C   UNL     1      -6.609   7.489  67.259  1.00  0.00    -0.062 C  
ENDBRANCH  22  23
ENDBRANCH  14  22
ENDBRANCH   2   7
TORSDOF 3
ENDMDL
MODEL      132
REMARK 921   NORMALIZED FREE ENERGY PREDICTED BY IDOCK:   -3.99 KCAL/MOL
REMARK 922        TOTAL FREE ENERGY PREDICTED BY IDOCK:   -4.93 KCAL/MOL
REMARK 923 INTER-LIGAND FREE ENERGY PREDICTED BY IDOCK:   -6.08 KCAL/MOL
REMARK 924 INTRA-LIGAND FREE ENERGY PREDICTED BY IDOCK:    1.15 KCAL/MOL
REMARK 927      BINDING AFFINITY PREDICTED BY RF-SCORE:    0.00 PKD
ROOT
HETATM    1  N   UNL     1     -12.462  13.395  67.955  1.00  0.00    -0.052 N  
HETATM    2  S   UNL     1     -11.003  12.566  67.909  1.00  0.00    -0.241 S  
HETATM    3  H2  UNL     1     -13.070  13.535  68.762  1.00  0.00     0.000 HD 
HETATM    4  H1  UNL     1     -12.608  13.729  67.003  1.00  0.00     0.000 HD 
HETATM    5  O   UNL     1     -10.795  12.093  69.262  1.00  0.00    -0.169 OA 
HETATM    6  O   UNL     1     -11.050  11.666  66.791  1.00  0.00    -0.284 OA 
ENDROOT
BRANCH   2   7
HETATM    7  C   UNL     1      -9.838  13.849  67.569  1.00  0.00    -0.236 A  
HETATM    8  C   UNL     1     -10.308  15.154  67.389  1.00  0.00    -0.244 A  
HETATM    9  C   UNL     1      -9.391  16.177  67.111  1.00  0.00    -0.215 A  
HETATM   10  C   UNL     1      -8.016  15.950  67.017  1.00  0.00    -0.235 A  
HETATM   11  N   UNL     1      -7.094  16.982  66.844  1.00  0.00    -0.192 NA 
HETATM   12  C   UNL     1      -7.571  14.638  67.226  1.00  0.00    -0.173 A  
HETATM   13  H   UNL     1      -6.140  16.898  67.197  1.00  0.00     0.000 HD 
HETATM   14  C   UNL     1      -7.530  18.176  66.149  1.00  0.00    -0.262 C  
HETATM   15  C   UNL     1      -8.467  13.587  67.493  1.00  0.00    -0.192 A  
HETATM   16  N   UNL     1      -8.600  18.741  66.933  1.00  0.00    -0.276 N  
HETATM   17 CL   UNL     1      -7.772  12.019  67.707  1.00  0.00    -0.129 Cl 
HETATM   18  O   UNL     1     -10.751  18.172  68.076  1.00  0.00    -0.374 OA 
HETATM   19  S   UNL     1      -9.992  17.819  66.897  1.00  0.00    -0.349 S  
HETATM   20  O   UNL     1     -10.547  17.893  65.566  1.00  0.00    -0.638 OA 
HETATM   21  H   UNL     1      -8.516  19.614  67.454  1.00  0.00     0.000 HD 
BRANCH  14  22
HETATM   22  C   UNL     1      -6.385  19.202  66.084  1.00  0.00    -0.210 C  
BRANCH  22  23
HETATM   23  C   UNL     1      -5.736  19.502  67.443  1.00  0.00    -0.180 C  
HETATM   24  C   UNL     1      -5.611  20.990  67.764  1.00  0.00    -0.357 C  
HETATM   25  C   UNL     1      -5.386  20.997  69.266  1.00  0.00    -0.381 C  
HETATM   26  C   UNL     1      -6.312  19.907  69.791  1.00  0.00    -0.402 C  
HETATM   27  C   UNL     1      -6.553  18.952  68.621  1.00  0.00    -0.287 C  
ENDBRANCH  22  23
ENDBRANCH  14  22
ENDBRANCH   2   7
TORSDOF 3
ENDMDL
MODEL      133
REMARK 921   NORMALIZED FREE ENERGY PREDICTED BY IDOCK:   -3.97 KCAL/MOL
REMARK 922        TOTAL FREE ENERGY PREDICTED BY IDOCK:   -4.91 KCAL/MOL
REMARK 923 INTER-LIGAND FREE ENERGY PREDICTED BY IDOCK:   -4.96 KCAL/MOL
REMARK 924 INTRA-LIGAND FREE ENERGY PREDICTED BY IDOCK:    0.05 KCAL/MOL
REMARK 927      BINDING AFFINITY PREDICTED BY RF-SCORE:    0.00 PKD
ROOT
HETATM    1  N   UNL     1      -9.122   4.780  72.350  1.00  0.00    -0.125 N  
HETATM    2  S   UNL     1      -8.714   6.361  72.740  1.00  0.00    -0.124 S  
HETATM    3  H2  UNL     1      -9.781   4.172  72.836  1.00  0.00     0.000 HD 
HETATM    4  H1  UNL     1      -8.568   4.559  71.523  1.00  0.00     0.000 HD 
HETATM    5  O   UNL     1      -9.500   6.675  73.915  1.00  0.00    -0.156 OA 
HETATM    6  O   UNL     1      -7.281   6.452  72.743  1.00  0.00    -0.081 OA 
ENDROOT
BRANCH   2   7
HETATM    7  C   UNL     1      -9.348   7.275  71.369  1.00  0.00    -0.149 A  
HETATM    8  C   UNL     1      -8.485   7.592  70.315  1.00  0.00    -0.138 A  
HETATM    9  C   UNL     1      -8.978   8.323  69.226  1.00  0.00    -0.147 A  
HETATM   10  C   UNL     1     -10.307   8.743  69.141  1.00  0.00    -0.217 A  
HETATM   11  N   UNL     1     -10.823   9.380  68.013  1.00  0.00    -0.457 NA 
HETATM   12  C   UNL     1     -11.155   8.390  70.199  1.00  0.00    -0.183 A  
HETATM   13  H   UNL     1     -11.811   9.295  67.768  1.00  0.00     0.000 HD 
HETATM   14  C   UNL     1      -9.919  10.165  67.198  1.00  0.00    -0.196 C  
HETATM   15  C   UNL     1     -10.688   7.669  71.312  1.00  0.00    -0.228 A  
HETATM   16  N   UNL     1      -8.915   9.256  66.704  1.00  0.00    -0.136 N  
HETATM   17 CL   UNL     1     -11.847   7.326  72.548  1.00  0.00    -0.241 Cl 
HETATM   18  O   UNL     1      -7.316   7.469  67.417  1.00  0.00    -0.093 OA 
HETATM   19  S   UNL     1      -7.884   8.708  67.899  1.00  0.00    -0.103 S  
HETATM   20  O   UNL     1      -7.070   9.819  68.334  1.00  0.00    -0.072 OA 
HETATM   21  H   UNL     1      -8.842   8.976  65.725  1.00  0.00     0.000 HD 
BRANCH  14  22
HETATM   22  C   UNL     1     -10.667  10.761  65.994  1.00  0.00    -0.168 C  
BRANCH  22  23
HETATM   23  C   UNL     1     -10.891  12.277  66.085  1.00  0.00    -0.314 C  
HETATM   24  C   UNL     1     -12.273  12.737  65.623  1.00  0.00    -0.503 C  
HETATM   25  C   UNL     1     -12.389  14.128  66.222  1.00  0.00    -0.451 C  
HETATM   26  C   UNL     1     -11.759  13.996  67.603  1.00  0.00    -0.412 C  
HETATM   27  C   UNL     1     -10.808  12.800  67.527  1.00  0.00    -0.263 C  
ENDBRANCH  22  23
ENDBRANCH  14  22
ENDBRANCH   2   7
TORSDOF 3
ENDMDL
MODEL      134
REMARK 921   NORMALIZED FREE ENERGY PREDICTED BY IDOCK:   -3.96 KCAL/MOL
REMARK 922        TOTAL FREE ENERGY PREDICTED BY IDOCK:   -4.89 KCAL/MOL
REMARK 923 INTER-LIGAND FREE ENERGY PREDICTED BY IDOCK:   -5.00 KCAL/MOL
REMARK 924 INTRA-LIGAND FREE ENERGY PREDICTED BY IDOCK:    0.10 KCAL/MOL
REMARK 927      BINDING AFFINITY PREDICTED BY RF-SCORE:    0.00 PKD
ROOT
HETATM    1  N   UNL     1      -9.259   6.516  66.240  1.00  0.00    -0.219 N  
HETATM    2  S   UNL     1      -9.941   7.096  67.660  1.00  0.00    -0.172 S  
HETATM    3  H2  UNL     1      -9.748   6.174  65.413  1.00  0.00     0.000 HD 
HETATM    4  H1  UNL     1      -8.252   6.579  66.384  1.00  0.00     0.000 HD 
HETATM    5  O   UNL     1     -11.372   7.007  67.457  1.00  0.00    -0.121 OA 
HETATM    6  O   UNL     1      -9.291   6.435  68.757  1.00  0.00    -0.126 OA 
ENDROOT
BRANCH   2   7
HETATM    7  C   UNL     1      -9.469   8.798  67.651  1.00  0.00    -0.141 A  
HETATM    8  C   UNL     1     -10.269   9.714  66.959  1.00  0.00    -0.308 A  
HETATM    9  C   UNL     1      -9.897  11.065  66.941  1.00  0.00    -0.191 A  
HETATM   10  C   UNL     1      -8.760  11.542  67.597  1.00  0.00    -0.142 A  
HETATM   11  N   UNL     1      -8.446  12.899  67.666  1.00  0.00    -0.169 NA 
HETATM   12  C   UNL     1      -7.992  10.607  68.302  1.00  0.00    -0.116 A  
HETATM   13  H   UNL     1      -7.918  13.277  68.454  1.00  0.00     0.000 HD 
HETATM   14  C   UNL     1      -8.891  13.758  66.588  1.00  0.00    -0.067 C  
HETATM   15  C   UNL     1      -8.330   9.242  68.330  1.00  0.00    -0.120 A  
HETATM   16  N   UNL     1     -10.331  13.695  66.578  1.00  0.00    -0.278 N  
HETATM   17 CL   UNL     1      -7.275   8.205  69.223  1.00  0.00    -0.070 Cl 
HETATM   18  O   UNL     1     -12.258  12.099  66.601  1.00  0.00    -0.566 OA 
HETATM   19  S   UNL     1     -10.916  12.212  66.075  1.00  0.00    -0.305 S  
HETATM   20  O   UNL     1     -10.617  12.064  64.671  1.00  0.00    -0.279 OA 
HETATM   21  H   UNL     1     -10.931  14.474  66.849  1.00  0.00     0.000 HD 
BRANCH  14  22
HETATM   22  C   UNL     1      -8.473  15.214  66.859  1.00  0.00    -0.278 C  
BRANCH  22  23
HETATM   23  C   UNL     1      -9.646  16.205  66.894  1.00  0.00    -0.243 C  
HETATM   24  C   UNL     1      -9.793  16.957  68.215  1.00  0.00    -0.266 C  
HETATM   25  C   UNL     1     -10.675  18.135  67.841  1.00  0.00    -0.331 C  
HETATM   26  C   UNL     1     -10.174  18.561  66.468  1.00  0.00    -0.440 C  
HETATM   27  C   UNL     1      -9.498  17.330  65.860  1.00  0.00    -0.046 C  
ENDBRANCH  22  23
ENDBRANCH  14  22
ENDBRANCH   2   7
TORSDOF 3
ENDMDL
MODEL      135
REMARK 921   NORMALIZED FREE ENERGY PREDICTED BY IDOCK:   -3.94 KCAL/MOL
REMARK 922        TOTAL FREE ENERGY PREDICTED BY IDOCK:   -4.87 KCAL/MOL
REMARK 923 INTER-LIGAND FREE ENERGY PREDICTED BY IDOCK:   -4.71 KCAL/MOL
REMARK 924 INTRA-LIGAND FREE ENERGY PREDICTED BY IDOCK:   -0.15 KCAL/MOL
REMARK 927      BINDING AFFINITY PREDICTED BY RF-SCORE:    0.00 PKD
ROOT
HETATM    1  N   UNL     1     -12.573  13.194  65.281  1.00  0.00    -0.549 N  
HETATM    2  S   UNL     1     -11.287  14.115  65.843  1.00  0.00    -0.330 S  
HETATM    3  H2  UNL     1     -12.808  12.985  64.311  1.00  0.00     0.000 HD 
HETATM    4  H1  UNL     1     -13.068  12.889  66.119  1.00  0.00     0.000 HD 
HETATM    5  O   UNL     1     -10.584  14.548  64.654  1.00  0.00    -0.405 OA 
HETATM    6  O   UNL     1     -11.809  15.054  66.797  1.00  0.00    -0.245 OA 
ENDROOT
BRANCH   2   7
HETATM    7  C   UNL     1     -10.296  12.924  66.689  1.00  0.00    -0.251 A  
HETATM    8  C   UNL     1     -10.312  11.597  66.245  1.00  0.00    -0.273 A  
HETATM    9  C   UNL     1      -9.534  10.644  66.915  1.00  0.00    -0.165 A  
HETATM   10  C   UNL     1      -8.728  10.965  68.009  1.00  0.00    -0.132 A  
HETATM   11  N   UNL     1      -7.875  10.040  68.611  1.00  0.00    -0.088 NA 
HETATM   12  C   UNL     1      -8.712  12.305  68.418  1.00  0.00    -0.139 A  
HETATM   13  H   UNL     1      -7.019  10.341  69.078  1.00  0.00     0.000 HD 
HETATM   14  C   UNL     1      -8.240   8.639  68.556  1.00  0.00    -0.122 C  
HETATM   15  C   UNL     1      -9.491  13.283  67.775  1.00  0.00    -0.208 A  
HETATM   16  N   UNL     1      -8.279   8.278  67.161  1.00  0.00    -0.118 N  
HETATM   17 CL   UNL     1      -9.384  14.890  68.405  1.00  0.00    -0.191 Cl 
HETATM   18  O   UNL     1      -9.189   8.986  64.942  1.00  0.00    -0.151 OA 
HETATM   19  S   UNL     1      -9.554   8.978  66.341  1.00  0.00    -0.264 S  
HETATM   20  O   UNL     1     -10.779   8.383  66.821  1.00  0.00    -0.249 OA 
HETATM   21  H   UNL     1      -7.598   7.659  66.721  1.00  0.00     0.000 HD 
BRANCH  14  22
HETATM   22  C   UNL     1      -7.166   7.781  69.248  1.00  0.00    -0.081 C  
BRANCH  22  23
HETATM   23  C   UNL     1      -7.724   6.812  70.300  1.00  0.00    -0.101 C  
HETATM   24  C   UNL     1      -8.796   7.416  71.206  1.00  0.00    -0.138 C  
HETATM   25  C   UNL     1      -9.470   6.192  71.801  1.00  0.00    -0.162 C  
HETATM   26  C   UNL     1      -9.540   5.201  70.647  1.00  0.00    -0.242 C  
HETATM   27  C   UNL     1      -8.431   5.602  69.671  1.00  0.00    -0.110 C  
ENDBRANCH  22  23
ENDBRANCH  14  22
ENDBRANCH   2   7
TORSDOF 3
ENDMDL
MODEL      136
REMARK 921   NORMALIZED FREE ENERGY PREDICTED BY IDOCK:   -3.89 KCAL/MOL
REMARK 922        TOTAL FREE ENERGY PREDICTED BY IDOCK:   -4.81 KCAL/MOL
REMARK 923 INTER-LIGAND FREE ENERGY PREDICTED BY IDOCK:   -4.69 KCAL/MOL
REMARK 924 INTRA-LIGAND FREE ENERGY PREDICTED BY IDOCK:   -0.12 KCAL/MOL
REMARK 927      BINDING AFFINITY PREDICTED BY RF-SCORE:    0.00 PKD
ROOT
HETATM    1  N   UNL     1     -11.187  15.738  67.711  1.00  0.00    -0.320 N  
HETATM    2  S   UNL     1     -10.991  14.500  66.595  1.00  0.00    -0.328 S  
HETATM    3  H2  UNL     1     -12.051  16.026  68.172  1.00  0.00     0.000 HD 
HETATM    4  H1  UNL     1     -10.257  16.140  67.828  1.00  0.00     0.000 HD 
HETATM    5  O   UNL     1     -12.311  13.929  66.428  1.00  0.00    -0.448 OA 
HETATM    6  O   UNL     1     -10.251  15.030  65.484  1.00  0.00    -0.324 OA 
ENDROOT
BRANCH   2   7
HETATM    7  C   UNL     1      -9.977  13.347  67.467  1.00  0.00    -0.230 A  
HETATM    8  C   UNL     1     -10.530  12.121  67.851  1.00  0.00    -0.224 A  
HETATM    9  C   UNL     1      -9.734  11.204  68.550  1.00  0.00    -0.196 A  
HETATM   10  C   UNL     1      -8.399  11.457  68.872  1.00  0.00    -0.039 A  
HETATM   11  N   UNL     1      -7.577  10.505  69.475  1.00  0.00    -0.186 NA 
HETATM   12  C   UNL     1      -7.864  12.683  68.454  1.00  0.00    -0.136 A  
HETATM   13  H   UNL     1      -6.569  10.508  69.320  1.00  0.00     0.000 HD 
HETATM   14  C   UNL     1      -8.197   9.511  70.328  1.00  0.00    -0.187 C  
HETATM   15  C   UNL     1      -8.640  13.630  67.762  1.00  0.00    -0.182 A  
HETATM   16  N   UNL     1      -9.107   8.765  69.497  1.00  0.00    -0.144 N  
HETATM   17 CL   UNL     1      -7.849  15.106  67.330  1.00  0.00    -0.204 Cl 
HETATM   18  O   UNL     1     -10.953   9.023  67.827  1.00  0.00    -0.141 OA 
HETATM   19  S   UNL     1     -10.437   9.658  69.020  1.00  0.00    -0.218 S  
HETATM   20  O   UNL     1     -11.254   9.904  70.184  1.00  0.00    -0.255 OA 
HETATM   21  H   UNL     1      -8.957   7.793  69.228  1.00  0.00     0.000 HD 
BRANCH  14  22
HETATM   22  C   UNL     1      -7.135   8.541  70.874  1.00  0.00    -0.063 C  
BRANCH  22  23
HETATM   23  C   UNL     1      -7.588   7.750  72.109  1.00  0.00    -0.093 C  
HETATM   24  C   UNL     1      -8.653   8.452  72.950  1.00  0.00    -0.232 C  
HETATM   25  C   UNL     1      -9.226   7.323  73.787  1.00  0.00    -0.281 C  
HETATM   26  C   UNL     1      -9.289   6.139  72.831  1.00  0.00    -0.143 C  
HETATM   27  C   UNL     1      -8.250   6.414  71.742  1.00  0.00    -0.113 C  
ENDBRANCH  22  23
ENDBRANCH  14  22
ENDBRANCH   2   7
TORSDOF 3
ENDMDL
MODEL      137
REMARK 921   NORMALIZED FREE ENERGY PREDICTED BY IDOCK:   -3.88 KCAL/MOL
REMARK 922        TOTAL FREE ENERGY PREDICTED BY IDOCK:   -4.80 KCAL/MOL
REMARK 923 INTER-LIGAND FREE ENERGY PREDICTED BY IDOCK:   -4.92 KCAL/MOL
REMARK 924 INTRA-LIGAND FREE ENERGY PREDICTED BY IDOCK:    0.12 KCAL/MOL
REMARK 927      BINDING AFFINITY PREDICTED BY RF-SCORE:    0.00 PKD
ROOT
HETATM    1  N   UNL     1      -7.010  18.369  65.380  1.00  0.00    -0.130 N  
HETATM    2  S   UNL     1      -6.205  17.647  66.664  1.00  0.00    -0.206 S  
HETATM    3  H2  UNL     1      -6.857  18.209  64.384  1.00  0.00     0.000 HD 
HETATM    4  H1  UNL     1      -7.685  19.001  65.811  1.00  0.00     0.000 HD 
HETATM    5  O   UNL     1      -5.247  16.750  66.053  1.00  0.00    -0.192 OA 
HETATM    6  O   UNL     1      -5.797  18.691  67.562  1.00  0.00    -0.168 OA 
ENDROOT
BRANCH   2   7
HETATM    7  C   UNL     1      -7.475  16.690  67.430  1.00  0.00    -0.161 A  
HETATM    8  C   UNL     1      -8.446  16.089  66.622  1.00  0.00    -0.323 A  
HETATM    9  C   UNL     1      -9.461  15.334  67.223  1.00  0.00    -0.208 A  
HETATM   10  C   UNL     1      -9.541  15.143  68.604  1.00  0.00    -0.213 A  
HETATM   11  N   UNL     1     -10.490  14.308  69.194  1.00  0.00    -0.371 NA 
HETATM   12  C   UNL     1      -8.542  15.736  69.388  1.00  0.00    -0.225 A  
HETATM   13  H   UNL     1     -10.297  13.839  70.080  1.00  0.00     0.000 HD 
HETATM   14  C   UNL     1     -11.755  14.125  68.514  1.00  0.00    -0.345 C  
HETATM   15  C   UNL     1      -7.517  16.510  68.817  1.00  0.00    -0.216 A  
HETATM   16  N   UNL     1     -11.454  13.527  67.237  1.00  0.00    -0.321 N  
HETATM   17 CL   UNL     1      -6.369  17.196  69.912  1.00  0.00    -0.148 Cl 
HETATM   18  O   UNL     1      -9.981  13.749  65.228  1.00  0.00    -0.293 OA 
HETATM   19  S   UNL     1     -10.673  14.572  66.194  1.00  0.00    -0.320 S  
HETATM   20  O   UNL     1     -11.606  15.604  65.810  1.00  0.00     0.033 OA 
HETATM   21  H   UNL     1     -11.694  12.565  66.995  1.00  0.00     0.000 HD 
BRANCH  14  22
HETATM   22  C   UNL     1     -12.650  13.154  69.304  1.00  0.00     0.405 C  
BRANCH  22  23
HETATM   23  C   UNL     1     -13.222  13.746  70.600  1.00  0.00     0.011 C  
HETATM   24  C   UNL     1     -12.460  13.346  71.863  1.00  0.00    -0.059 C  
HETATM   25  C   UNL     1     -12.917  14.378  72.879  1.00  0.00    -0.575 C  
HETATM   26  C   UNL     1     -12.984  15.679  72.089  1.00  0.00    -0.527 C  
HETATM   27  C   UNL     1     -13.164  15.280  70.623  1.00  0.00    -0.370 C  
ENDBRANCH  22  23
ENDBRANCH  14  22
ENDBRANCH   2   7
TORSDOF 3
ENDMDL
MODEL      138
REMARK 921   NORMALIZED FREE ENERGY PREDICTED BY IDOCK:   -3.88 KCAL/MOL
REMARK 922        TOTAL FREE ENERGY PREDICTED BY IDOCK:   -4.79 KCAL/MOL
REMARK 923 INTER-LIGAND FREE ENERGY PREDICTED BY IDOCK:   -4.44 KCAL/MOL
REMARK 924 INTRA-LIGAND FREE ENERGY PREDICTED BY IDOCK:   -0.35 KCAL/MOL
REMARK 927      BINDING AFFINITY PREDICTED BY RF-SCORE:    0.00 PKD
ROOT
HETATM    1  N   UNL     1     -10.819  11.089  63.337  1.00  0.00    -0.704 N  
HETATM    2  S   UNL     1     -11.167  12.239  64.509  1.00  0.00    -0.345 S  
HETATM    3  H2  UNL     1     -10.290  11.222  62.476  1.00  0.00     0.000 HD 
HETATM    4  H1  UNL     1     -11.251  10.228  63.673  1.00  0.00     0.000 HD 
HETATM    5  O   UNL     1     -10.554  13.461  64.033  1.00  0.00    -0.335 OA 
HETATM    6  O   UNL     1     -12.573  12.159  64.793  1.00  0.00    -0.473 OA 
ENDROOT
BRANCH   2   7
HETATM    7  C   UNL     1     -10.262  11.654  65.908  1.00  0.00    -0.238 A  
HETATM    8  C   UNL     1      -9.413  10.554  65.749  1.00  0.00    -0.249 A  
HETATM    9  C   UNL     1      -8.697  10.079  66.855  1.00  0.00    -0.128 A  
HETATM   10  C   UNL     1      -8.785  10.669  68.118  1.00  0.00    -0.130 A  
HETATM   11  N   UNL     1      -7.996  10.262  69.194  1.00  0.00    -0.123 NA 
HETATM   12  C   UNL     1      -9.623  11.784  68.244  1.00  0.00    -0.199 A  
HETATM   13  H   UNL     1      -7.739  10.917  69.933  1.00  0.00     0.000 HD 
HETATM   14  C   UNL     1      -7.550   8.885  69.232  1.00  0.00    -0.082 C  
HETATM   15  C   UNL     1     -10.366  12.277  67.156  1.00  0.00    -0.218 A  
HETATM   16  N   UNL     1      -6.738   8.682  68.058  1.00  0.00    -0.068 N  
HETATM   17 CL   UNL     1     -11.373  13.647  67.469  1.00  0.00    -0.317 Cl 
HETATM   18  O   UNL     1      -6.695   9.018  65.580  1.00  0.00    -0.070 OA 
HETATM   19  S   UNL     1      -7.623   8.699  66.641  1.00  0.00    -0.090 S  
HETATM   20  O   UNL     1      -8.455   7.519  66.616  1.00  0.00    -0.121 OA 
HETATM   21  H   UNL     1      -5.728   8.542  68.089  1.00  0.00     0.000 HD 
BRANCH  14  22
HETATM   22  C   UNL     1      -6.675   8.641  70.473  1.00  0.00    -0.040 C  
BRANCH  22  23
HETATM   23  C   UNL     1      -7.213   7.552  71.413  1.00  0.00    -0.070 C  
HETATM   24  C   UNL     1      -6.128   6.755  72.135  1.00  0.00    -0.038 C  
HETATM   25  C   UNL     1      -6.886   6.107  73.281  1.00  0.00    -0.075 C  
HETATM   26  C   UNL     1      -7.851   7.187  73.752  1.00  0.00    -0.125 C  
HETATM   27  C   UNL     1      -8.053   8.128  72.562  1.00  0.00    -0.204 C  
ENDBRANCH  22  23
ENDBRANCH  14  22
ENDBRANCH   2   7
TORSDOF 3
ENDMDL
MODEL      139
REMARK 921   NORMALIZED FREE ENERGY PREDICTED BY IDOCK:   -3.87 KCAL/MOL
REMARK 922        TOTAL FREE ENERGY PREDICTED BY IDOCK:   -4.79 KCAL/MOL
REMARK 923 INTER-LIGAND FREE ENERGY PREDICTED BY IDOCK:   -4.60 KCAL/MOL
REMARK 924 INTRA-LIGAND FREE ENERGY PREDICTED BY IDOCK:   -0.19 KCAL/MOL
REMARK 927      BINDING AFFINITY PREDICTED BY RF-SCORE:    0.00 PKD
ROOT
HETATM    1  N   UNL     1     -12.277  14.918  72.858  1.00  0.00    -0.315 N  
HETATM    2  S   UNL     1     -13.210  14.368  71.575  1.00  0.00    -0.366 S  
HETATM    3  H2  UNL     1     -12.153  14.475  73.768  1.00  0.00     0.000 HD 
HETATM    4  H1  UNL     1     -11.862  15.790  72.530  1.00  0.00     0.000 HD 
HETATM    5  O   UNL     1     -13.800  13.131  72.040  1.00  0.00    -0.425 OA 
HETATM    6  O   UNL     1     -14.016  15.467  71.122  1.00  0.00    -0.547 OA 
ENDROOT
BRANCH   2   7
HETATM    7  C   UNL     1     -11.998  13.996  70.345  1.00  0.00    -0.328 A  
HETATM    8  C   UNL     1     -11.861  12.673  69.914  1.00  0.00    -0.364 A  
HETATM    9  C   UNL     1     -10.897  12.368  68.944  1.00  0.00    -0.197 A  
HETATM   10  C   UNL     1     -10.069  13.337  68.376  1.00  0.00    -0.237 A  
HETATM   11  N   UNL     1      -9.182  13.053  67.338  1.00  0.00    -0.199 NA 
HETATM   12  C   UNL     1     -10.244  14.659  68.808  1.00  0.00    -0.242 A  
HETATM   13  H   UNL     1      -8.920  13.770  66.660  1.00  0.00     0.000 HD 
HETATM   14  C   UNL     1      -8.643  11.711  67.248  1.00  0.00    -0.154 C  
HETATM   15  C   UNL     1     -11.193  14.995  69.789  1.00  0.00    -0.277 A  
HETATM   16  N   UNL     1      -9.765  10.829  67.050  1.00  0.00    -0.173 N  
HETATM   17 CL   UNL     1     -11.280  16.663  70.236  1.00  0.00    -0.157 Cl 
HETATM   18  O   UNL     1     -12.036  10.260  67.934  1.00  0.00     0.025 OA 
HETATM   19  S   UNL     1     -10.740  10.699  68.401  1.00  0.00    -0.243 S  
HETATM   20  O   UNL     1     -10.002   9.993  69.422  1.00  0.00    -0.197 OA 
HETATM   21  H   UNL     1      -9.946  10.335  66.176  1.00  0.00     0.000 HD 
BRANCH  14  22
HETATM   22  C   UNL     1      -7.712  11.591  66.029  1.00  0.00     0.249 C  
BRANCH  22  23
HETATM   23  C   UNL     1      -7.319  10.147  65.683  1.00  0.00    -0.144 C  
HETATM   24  C   UNL     1      -7.238   9.861  64.185  1.00  0.00    -0.134 C  
HETATM   25  C   UNL     1      -6.424   8.580  64.126  1.00  0.00    -0.071 C  
HETATM   26  C   UNL     1      -5.356   8.763  65.195  1.00  0.00    -0.038 C  
HETATM   27  C   UNL     1      -5.917   9.780  66.191  1.00  0.00    -0.064 C  
ENDBRANCH  22  23
ENDBRANCH  14  22
ENDBRANCH   2   7
TORSDOF 3
ENDMDL
MODEL      140
REMARK 921   NORMALIZED FREE ENERGY PREDICTED BY IDOCK:   -3.82 KCAL/MOL
REMARK 922        TOTAL FREE ENERGY PREDICTED BY IDOCK:   -4.73 KCAL/MOL
REMARK 923 INTER-LIGAND FREE ENERGY PREDICTED BY IDOCK:   -4.86 KCAL/MOL
REMARK 924 INTRA-LIGAND FREE ENERGY PREDICTED BY IDOCK:    0.13 KCAL/MOL
REMARK 927      BINDING AFFINITY PREDICTED BY RF-SCORE:    0.00 PKD
ROOT
HETATM    1  N   UNL     1      -9.597   8.406  65.589  1.00  0.00    -0.428 N  
HETATM    2  S   UNL     1      -8.726   9.482  64.640  1.00  0.00    -0.214 S  
HETATM    3  H2  UNL     1      -9.235   7.612  66.117  1.00  0.00     0.000 HD 
HETATM    4  H1  UNL     1     -10.566   8.717  65.523  1.00  0.00     0.000 HD 
HETATM    5  O   UNL     1      -7.351   9.041  64.733  1.00  0.00    -0.097 OA 
HETATM    6  O   UNL     1      -9.401   9.592  63.377  1.00  0.00    -0.207 OA 
ENDROOT
BRANCH   2   7
HETATM    7  C   UNL     1      -8.898  11.003  65.520  1.00  0.00    -0.169 A  
HETATM    8  C   UNL     1      -7.858  11.416  66.360  1.00  0.00    -0.067 A  
HETATM    9  C   UNL     1      -7.990  12.618  67.068  1.00  0.00    -0.059 A  
HETATM   10  C   UNL     1      -9.118  13.434  66.962  1.00  0.00    -0.243 A  
HETATM   11  N   UNL     1      -9.206  14.679  67.584  1.00  0.00    -0.189 NA 
HETATM   12  C   UNL     1     -10.134  13.009  66.095  1.00  0.00    -0.287 A  
HETATM   13  H   UNL     1      -9.779  15.425  67.188  1.00  0.00     0.000 HD 
HETATM   14  C   UNL     1      -8.460  14.884  68.809  1.00  0.00    -0.172 C  
HETATM   15  C   UNL     1     -10.038  11.802  65.381  1.00  0.00    -0.254 A  
HETATM   16  N   UNL     1      -7.068  14.715  68.477  1.00  0.00    -0.105 N  
HETATM   17 CL   UNL     1     -11.379  11.398  64.367  1.00  0.00    -0.282 Cl 
HETATM   18  O   UNL     1      -5.465  13.185  67.318  1.00  0.00    -0.345 OA 
HETATM   19  S   UNL     1      -6.670  13.134  68.114  1.00  0.00    -0.130 S  
HETATM   20  O   UNL     1      -6.767  12.357  69.327  1.00  0.00    -0.104 OA 
HETATM   21  H   UNL     1      -6.395  15.482  68.465  1.00  0.00     0.000 HD 
BRANCH  14  22
HETATM   22  C   UNL     1      -8.665  16.319  69.324  1.00  0.00    -0.151 C  
BRANCH  22  23
HETATM   23  C   UNL     1      -7.718  17.350  68.693  1.00  0.00    -0.273 C  
HETATM   24  C   UNL     1      -8.364  18.705  68.410  1.00  0.00    -0.362 C  
HETATM   25  C   UNL     1      -7.168  19.625  68.238  1.00  0.00    -0.341 C  
HETATM   26  C   UNL     1      -6.180  19.160  69.300  1.00  0.00    -0.303 C  
HETATM   27  C   UNL     1      -6.537  17.705  69.609  1.00  0.00    -0.078 C  
ENDBRANCH  22  23
ENDBRANCH  14  22
ENDBRANCH   2   7
TORSDOF 3
ENDMDL
MODEL      141
REMARK 921   NORMALIZED FREE ENERGY PREDICTED BY IDOCK:   -3.81 KCAL/MOL
REMARK 922        TOTAL FREE ENERGY PREDICTED BY IDOCK:   -4.71 KCAL/MOL
REMARK 923 INTER-LIGAND FREE ENERGY PREDICTED BY IDOCK:   -4.40 KCAL/MOL
REMARK 924 INTRA-LIGAND FREE ENERGY PREDICTED BY IDOCK:   -0.31 KCAL/MOL
REMARK 927      BINDING AFFINITY PREDICTED BY RF-SCORE:    0.00 PKD
ROOT
HETATM    1  N   UNL     1     -10.795  15.465  67.262  1.00  0.00    -0.312 N  
HETATM    2  S   UNL     1      -9.174  15.330  67.677  1.00  0.00    -0.189 S  
HETATM    3  H2  UNL     1     -11.184  15.638  66.335  1.00  0.00     0.000 HD 
HETATM    4  H1  UNL     1     -11.305  15.337  68.136  1.00  0.00     0.000 HD 
HETATM    5  O   UNL     1      -8.449  15.512  66.437  1.00  0.00    -0.282 OA 
HETATM    6  O   UNL     1      -8.946  16.174  68.817  1.00  0.00    -0.211 OA 
ENDROOT
BRANCH   2   7
HETATM    7  C   UNL     1      -9.039  13.641  68.174  1.00  0.00    -0.195 A  
HETATM    8  C   UNL     1     -10.197  12.961  68.568  1.00  0.00    -0.210 A  
HETATM    9  C   UNL     1     -10.097  11.623  68.970  1.00  0.00    -0.012 A  
HETATM   10  C   UNL     1      -8.886  10.929  68.984  1.00  0.00    -0.096 A  
HETATM   11  N   UNL     1      -8.801   9.569  69.284  1.00  0.00    -0.144 NA 
HETATM   12  C   UNL     1      -7.747  11.626  68.561  1.00  0.00    -0.134 A  
HETATM   13  H   UNL     1      -8.058   8.990  68.892  1.00  0.00     0.000 HD 
HETATM   14  C   UNL     1      -9.799   9.003  70.168  1.00  0.00    -0.187 C  
HETATM   15  C   UNL     1      -7.810  12.974  68.164  1.00  0.00    -0.145 A  
HETATM   16  N   UNL     1     -11.073   9.177  69.517  1.00  0.00    -0.422 N  
HETATM   17 CL   UNL     1      -6.319  13.708  67.689  1.00  0.00    -0.169 Cl 
HETATM   18  O   UNL     1     -12.513  10.870  68.369  1.00  0.00    -0.283 OA 
HETATM   19  S   UNL     1     -11.563  10.773  69.455  1.00  0.00    -0.316 S  
HETATM   20  O   UNL     1     -11.872  11.201  70.799  1.00  0.00    -0.315 OA 
HETATM   21  H   UNL     1     -11.620   8.405  69.134  1.00  0.00     0.000 HD 
BRANCH  14  22
HETATM   22  C   UNL     1      -9.553   7.496  70.355  1.00  0.00    -0.168 C  
BRANCH  22  23
HETATM   23  C   UNL     1      -8.937   6.807  69.128  1.00  0.00    -0.132 C  
HETATM   24  C   UNL     1      -7.576   6.162  69.387  1.00  0.00    -0.098 C  
HETATM   25  C   UNL     1      -7.422   5.208  68.215  1.00  0.00    -0.075 C  
HETATM   26  C   UNL     1      -8.815   4.624  68.019  1.00  0.00    -0.118 C  
HETATM   27  C   UNL     1      -9.792   5.638  68.617  1.00  0.00    -0.190 C  
ENDBRANCH  22  23
ENDBRANCH  14  22
ENDBRANCH   2   7
TORSDOF 3
ENDMDL
MODEL      142
REMARK 921   NORMALIZED FREE ENERGY PREDICTED BY IDOCK:   -3.80 KCAL/MOL
REMARK 922        TOTAL FREE ENERGY PREDICTED BY IDOCK:   -4.71 KCAL/MOL
REMARK 923 INTER-LIGAND FREE ENERGY PREDICTED BY IDOCK:   -4.59 KCAL/MOL
REMARK 924 INTRA-LIGAND FREE ENERGY PREDICTED BY IDOCK:   -0.12 KCAL/MOL
REMARK 927      BINDING AFFINITY PREDICTED BY RF-SCORE:    0.00 PKD
ROOT
HETATM    1  N   UNL     1      -8.498   7.564  73.009  1.00  0.00    -0.122 N  
HETATM    2  S   UNL     1      -7.776   6.607  71.834  1.00  0.00    -0.097 S  
HETATM    3  H2  UNL     1      -8.043   8.028  73.796  1.00  0.00     0.000 HD 
HETATM    4  H1  UNL     1      -9.488   7.581  72.765  1.00  0.00     0.000 HD 
HETATM    5  O   UNL     1      -6.370   6.582  72.179  1.00  0.00    -0.048 OA 
HETATM    6  O   UNL     1      -8.548   5.401  71.721  1.00  0.00    -0.128 OA 
ENDROOT
BRANCH   2   7
HETATM    7  C   UNL     1      -7.986   7.567  70.367  1.00  0.00    -0.102 A  
HETATM    8  C   UNL     1      -8.770   7.049  69.330  1.00  0.00    -0.133 A  
HETATM    9  C   UNL     1      -8.936   7.801  68.160  1.00  0.00    -0.127 A  
HETATM   10  C   UNL     1      -8.359   9.061  67.987  1.00  0.00    -0.117 A  
HETATM   11  N   UNL     1      -8.607   9.854  66.867  1.00  0.00    -0.128 NA 
HETATM   12  C   UNL     1      -7.600   9.566  69.051  1.00  0.00    -0.075 A  
HETATM   13  H   UNL     1      -8.564  10.872  66.925  1.00  0.00     0.000 HD 
HETATM   14  C   UNL     1      -8.929   9.192  65.619  1.00  0.00    -0.203 C  
HETATM   15  C   UNL     1      -7.403   8.831  70.233  1.00  0.00    -0.058 A  
HETATM   16  N   UNL     1     -10.145   8.453  65.847  1.00  0.00    -0.335 N  
HETATM   17 CL   UNL     1      -6.424   9.574  71.449  1.00  0.00    -0.007 Cl 
HETATM   18  O   UNL     1     -11.233   6.837  67.417  1.00  0.00    -0.313 OA 
HETATM   19  S   UNL     1      -9.933   7.144  66.865  1.00  0.00    -0.225 S  
HETATM   20  O   UNL     1      -9.131   6.163  66.173  1.00  0.00    -0.154 OA 
HETATM   21  H   UNL     1     -11.042   8.702  65.430  1.00  0.00     0.000 HD 
BRANCH  14  22
HETATM   22  C   UNL     1      -9.195  10.232  64.517  1.00  0.00    -0.295 C  
BRANCH  22  23
HETATM   23  C   UNL     1     -10.440  11.097  64.760  1.00  0.00    -0.388 C  
HETATM   24  C   UNL     1     -10.145  12.460  65.384  1.00  0.00    -0.289 C  
HETATM   25  C   UNL     1     -11.412  13.247  65.099  1.00  0.00    -0.319 C  
HETATM   26  C   UNL     1     -11.807  12.827  63.689  1.00  0.00    -0.603 C  
HETATM   27  C   UNL     1     -11.173  11.454  63.459  1.00  0.00    -0.322 C  
ENDBRANCH  22  23
ENDBRANCH  14  22
ENDBRANCH   2   7
TORSDOF 3
ENDMDL
MODEL      143
REMARK 921   NORMALIZED FREE ENERGY PREDICTED BY IDOCK:   -3.79 KCAL/MOL
REMARK 922        TOTAL FREE ENERGY PREDICTED BY IDOCK:   -4.69 KCAL/MOL
REMARK 923 INTER-LIGAND FREE ENERGY PREDICTED BY IDOCK:   -4.70 KCAL/MOL
REMARK 924 INTRA-LIGAND FREE ENERGY PREDICTED BY IDOCK:    0.01 KCAL/MOL
REMARK 927      BINDING AFFINITY PREDICTED BY RF-SCORE:    0.00 PKD
ROOT
HETATM    1  N   UNL     1     -10.344   4.861  65.872  1.00  0.00    -0.387 N  
HETATM    2  S   UNL     1      -8.759   5.202  65.439  1.00  0.00    -0.150 S  
HETATM    3  H2  UNL     1     -10.668   4.384  66.713  1.00  0.00     0.000 HD 
HETATM    4  H1  UNL     1     -10.913   5.234  65.112  1.00  0.00     0.000 HD 
HETATM    5  O   UNL     1      -7.951   4.673  66.518  1.00  0.00    -0.101 OA 
HETATM    6  O   UNL     1      -8.578   4.776  64.079  1.00  0.00    -0.131 OA 
ENDROOT
BRANCH   2   7
HETATM    7  C   UNL     1      -8.709   6.966  65.502  1.00  0.00    -0.025 A  
HETATM    8  C   UNL     1      -9.341   7.619  66.565  1.00  0.00    -0.241 A  
HETATM    9  C   UNL     1      -9.313   9.019  66.619  1.00  0.00    -0.177 A  
HETATM   10  C   UNL     1      -8.666   9.796  65.656  1.00  0.00    -0.148 A  
HETATM   11  N   UNL     1      -8.548  11.182  65.763  1.00  0.00    -0.298 NA 
HETATM   12  C   UNL     1      -8.021   9.115  64.615  1.00  0.00    -0.125 A  
HETATM   13  H   UNL     1      -7.760  11.676  65.344  1.00  0.00     0.000 HD 
HETATM   14  C   UNL     1      -9.578  11.900  66.485  1.00  0.00    -0.214 C  
HETATM   15  C   UNL     1      -8.042   7.712  64.526  1.00  0.00    -0.098 A  
HETATM   16  N   UNL     1      -9.553  11.405  67.839  1.00  0.00    -0.172 N  
HETATM   17 CL   UNL     1      -7.220   7.014  63.174  1.00  0.00    -0.067 Cl 
HETATM   18  O   UNL     1      -9.548   9.301  69.193  1.00  0.00    -0.156 OA 
HETATM   19  S   UNL     1     -10.103   9.832  67.968  1.00  0.00    -0.181 S  
HETATM   20  O   UNL     1     -11.519   9.826  67.690  1.00  0.00    -0.004 OA 
HETATM   21  H   UNL     1      -9.234  11.956  68.635  1.00  0.00     0.000 HD 
BRANCH  14  22
HETATM   22  C   UNL     1      -9.257  13.405  66.515  1.00  0.00    -0.182 C  
BRANCH  22  23
HETATM   23  C   UNL     1     -10.364  14.292  65.927  1.00  0.00    -0.325 C  
HETATM   24  C   UNL     1     -10.775  13.921  64.503  1.00  0.00    -0.382 C  
HETATM   25  C   UNL     1     -12.122  14.605  64.348  1.00  0.00    -0.481 C  
HETATM   26  C   UNL     1     -12.802  14.409  65.696  1.00  0.00    -0.224 C  
HETATM   27  C   UNL     1     -11.680  14.192  66.713  1.00  0.00    -0.432 C  
ENDBRANCH  22  23
ENDBRANCH  14  22
ENDBRANCH   2   7
TORSDOF 3
ENDMDL
MODEL      144
REMARK 921   NORMALIZED FREE ENERGY PREDICTED BY IDOCK:   -3.75 KCAL/MOL
REMARK 922        TOTAL FREE ENERGY PREDICTED BY IDOCK:   -4.65 KCAL/MOL
REMARK 923 INTER-LIGAND FREE ENERGY PREDICTED BY IDOCK:   -4.69 KCAL/MOL
REMARK 924 INTRA-LIGAND FREE ENERGY PREDICTED BY IDOCK:    0.04 KCAL/MOL
REMARK 927      BINDING AFFINITY PREDICTED BY RF-SCORE:    0.00 PKD
ROOT
HETATM    1  N   UNL     1     -10.457  13.485  68.039  1.00  0.00    -0.236 N  
HETATM    2  S   UNL     1     -10.836  12.100  67.169  1.00  0.00    -0.257 S  
HETATM    3  H2  UNL     1     -11.101  14.201  68.376  1.00  0.00     0.000 HD 
HETATM    4  H1  UNL     1      -9.444  13.456  68.157  1.00  0.00     0.000 HD 
HETATM    5  O   UNL     1     -12.274  12.142  67.001  1.00  0.00    -0.522 OA 
HETATM    6  O   UNL     1      -9.945  12.036  66.045  1.00  0.00    -0.223 OA 
ENDROOT
BRANCH   2   7
HETATM    7  C   UNL     1     -10.431  10.808  68.301  1.00  0.00    -0.181 A  
HETATM    8  C   UNL     1      -9.536   9.813  67.894  1.00  0.00    -0.146 A  
HETATM    9  C   UNL     1      -9.214   8.779  68.784  1.00  0.00    -0.141 A  
HETATM   10  C   UNL     1      -9.744   8.705  70.074  1.00  0.00    -0.171 A  
HETATM   11  N   UNL     1      -9.346   7.736  70.995  1.00  0.00    -0.151 NA 
HETATM   12  C   UNL     1     -10.618   9.728  70.464  1.00  0.00    -0.376 A  
HETATM   13  H   UNL     1      -9.378   7.921  71.999  1.00  0.00     0.000 HD 
HETATM   14  C   UNL     1      -8.886   6.460  70.488  1.00  0.00    -0.144 C  
HETATM   15  C   UNL     1     -10.971  10.771  69.591  1.00  0.00    -0.264 A  
HETATM   16  N   UNL     1      -7.720   6.732  69.685  1.00  0.00    -0.108 N  
HETATM   17 CL   UNL     1     -12.078  11.949  70.205  1.00  0.00    -0.424 Cl 
HETATM   18  O   UNL     1      -6.861   8.195  67.846  1.00  0.00    -0.069 OA 
HETATM   19  S   UNL     1      -8.078   7.537  68.265  1.00  0.00    -0.125 S  
HETATM   20  O   UNL     1      -8.807   6.633  67.408  1.00  0.00    -0.117 OA 
HETATM   21  H   UNL     1      -6.774   6.461  69.955  1.00  0.00     0.000 HD 
BRANCH  14  22
HETATM   22  C   UNL     1      -8.469   5.542  71.650  1.00  0.00    -0.131 C  
BRANCH  22  23
HETATM   23  C   UNL     1      -9.581   5.294  72.680  1.00  0.00    -0.168 C  
HETATM   24  C   UNL     1     -10.982   5.194  72.079  1.00  0.00    -0.143 C  
HETATM   25  C   UNL     1     -11.779   4.520  73.182  1.00  0.00    -0.145 C  
HETATM   26  C   UNL     1     -10.828   3.474  73.749  1.00  0.00    -0.317 C  
HETATM   27  C   UNL     1      -9.414   3.957  73.416  1.00  0.00    -0.127 C  
ENDBRANCH  22  23
ENDBRANCH  14  22
ENDBRANCH   2   7
TORSDOF 3
ENDMDL
MODEL      145
REMARK 921   NORMALIZED FREE ENERGY PREDICTED BY IDOCK:   -3.74 KCAL/MOL
REMARK 922        TOTAL FREE ENERGY PREDICTED BY IDOCK:   -4.64 KCAL/MOL
REMARK 923 INTER-LIGAND FREE ENERGY PREDICTED BY IDOCK:   -4.45 KCAL/MOL
REMARK 924 INTRA-LIGAND FREE ENERGY PREDICTED BY IDOCK:   -0.18 KCAL/MOL
REMARK 927      BINDING AFFINITY PREDICTED BY RF-SCORE:    0.00 PKD
ROOT
HETATM    1  N   UNL     1      -7.437   4.158  67.266  1.00  0.00    -0.072 N  
HETATM    2  S   UNL     1      -7.731   5.146  68.591  1.00  0.00    -0.079 S  
HETATM    3  H2  UNL     1      -7.810   3.224  67.094  1.00  0.00     0.000 HD 
HETATM    4  H1  UNL     1      -6.805   4.693  66.671  1.00  0.00     0.000 HD 
HETATM    5  O   UNL     1      -8.628   4.387  69.436  1.00  0.00    -0.078 OA 
HETATM    6  O   UNL     1      -6.463   5.622  69.069  1.00  0.00    -0.038 OA 
ENDROOT
BRANCH   2   7
HETATM    7  C   UNL     1      -8.622   6.494  67.880  1.00  0.00    -0.117 A  
HETATM    8  C   UNL     1      -8.114   7.790  68.028  1.00  0.00    -0.123 A  
HETATM    9  C   UNL     1      -8.819   8.866  67.473  1.00  0.00    -0.130 A  
HETATM   10  C   UNL     1     -10.009   8.700  66.761  1.00  0.00    -0.273 A  
HETATM   11  N   UNL     1     -10.656   9.756  66.121  1.00  0.00    -0.039 NA 
HETATM   12  C   UNL     1     -10.482   7.390  66.607  1.00  0.00    -0.201 A  
HETATM   13  H   UNL     1     -11.228   9.596  65.291  1.00  0.00     0.000 HD 
HETATM   14  C   UNL     1     -10.493  11.088  66.667  1.00  0.00    -0.256 C  
HETATM   15  C   UNL     1      -9.805   6.290  67.163  1.00  0.00    -0.142 A  
HETATM   16  N   UNL     1      -9.086  11.394  66.594  1.00  0.00    -0.176 N  
HETATM   17 CL   UNL     1     -10.521   4.737  66.908  1.00  0.00    -0.201 Cl 
HETATM   18  O   UNL     1      -6.817  10.491  67.135  1.00  0.00    -0.079 OA 
HETATM   19  S   UNL     1      -8.166  10.492  67.657  1.00  0.00    -0.110 S  
HETATM   20  O   UNL     1      -8.479  10.921  68.999  1.00  0.00    -0.152 OA 
HETATM   21  H   UNL     1      -8.694  12.090  65.960  1.00  0.00     0.000 HD 
BRANCH  14  22
HETATM   22  C   UNL     1     -11.256  12.113  65.810  1.00  0.00    -0.384 C  
BRANCH  22  23
HETATM   23  C   UNL     1     -11.843  13.284  66.612  1.00  0.00    -0.447 C  
HETATM   24  C   UNL     1     -11.756  13.114  68.127  1.00  0.00    -0.391 C  
HETATM   25  C   UNL     1     -11.962  14.528  68.642  1.00  0.00    -0.320 C  
HETATM   26  C   UNL     1     -11.191  15.401  67.661  1.00  0.00    -0.311 C  
HETATM   27  C   UNL     1     -11.097  14.603  66.360  1.00  0.00    -0.334 C  
ENDBRANCH  22  23
ENDBRANCH  14  22
ENDBRANCH   2   7
TORSDOF 3
ENDMDL
MODEL      146
REMARK 921   NORMALIZED FREE ENERGY PREDICTED BY IDOCK:   -3.64 KCAL/MOL
REMARK 922        TOTAL FREE ENERGY PREDICTED BY IDOCK:   -4.52 KCAL/MOL
REMARK 923 INTER-LIGAND FREE ENERGY PREDICTED BY IDOCK:   -4.24 KCAL/MOL
REMARK 924 INTRA-LIGAND FREE ENERGY PREDICTED BY IDOCK:   -0.28 KCAL/MOL
REMARK 927      BINDING AFFINITY PREDICTED BY RF-SCORE:    0.00 PKD
ROOT
HETATM    1  N   UNL     1     -11.326   6.023  73.029  1.00  0.00    -0.465 N  
HETATM    2  S   UNL     1     -10.793   7.512  72.466  1.00  0.00    -0.330 S  
HETATM    3  H2  UNL     1     -12.289   5.688  73.078  1.00  0.00     0.000 HD 
HETATM    4  H1  UNL     1     -10.481   5.527  73.311  1.00  0.00     0.000 HD 
HETATM    5  O   UNL     1     -11.993   8.216  72.065  1.00  0.00    -0.301 OA 
HETATM    6  O   UNL     1      -9.892   8.050  73.446  1.00  0.00    -0.284 OA 
ENDROOT
BRANCH   2   7
HETATM    7  C   UNL     1      -9.878   7.074  71.020  1.00  0.00    -0.180 A  
HETATM    8  C   UNL     1     -10.393   7.421  69.767  1.00  0.00    -0.226 A  
HETATM    9  C   UNL     1      -9.677   7.071  68.615  1.00  0.00    -0.139 A  
HETATM   10  C   UNL     1      -8.455   6.397  68.663  1.00  0.00    -0.123 A  
HETATM   11  N   UNL     1      -7.692   6.141  67.524  1.00  0.00    -0.096 NA 
HETATM   12  C   UNL     1      -7.950   6.084  69.932  1.00  0.00    -0.113 A  
HETATM   13  H   UNL     1      -6.676   6.062  67.580  1.00  0.00     0.000 HD 
HETATM   14  C   UNL     1      -8.383   5.990  66.260  1.00  0.00    -0.122 C  
HETATM   15  C   UNL     1      -8.651   6.409  71.107  1.00  0.00    -0.128 A  
HETATM   16  N   UNL     1      -9.052   7.240  66.004  1.00  0.00    -0.325 N  
HETATM   17 CL   UNL     1      -7.913   5.940  72.598  1.00  0.00    -0.105 Cl 
HETATM   18  O   UNL     1     -10.552   8.951  67.044  1.00  0.00    -0.274 OA 
HETATM   19  S   UNL     1     -10.331   7.522  67.041  1.00  0.00    -0.328 S  
HETATM   20  O   UNL     1     -11.376   6.575  66.734  1.00  0.00    -0.272 OA 
HETATM   21  H   UNL     1      -8.773   7.887  65.265  1.00  0.00     0.000 HD 
BRANCH  14  22
HETATM   22  C   UNL     1      -7.373   5.740  65.127  1.00  0.00    -0.075 C  
BRANCH  22  23
HETATM   23  C   UNL     1      -7.344   4.290  64.623  1.00  0.00    -0.071 C  
HETATM   24  C   UNL     1      -6.437   3.362  65.429  1.00  0.00    -0.032 C  
HETATM   25  C   UNL     1      -6.928   1.979  65.037  1.00  0.00    -0.043 C  
HETATM   26  C   UNL     1      -8.442   2.124  64.962  1.00  0.00    -0.095 C  
HETATM   27  C   UNL     1      -8.718   3.608  64.712  1.00  0.00    -0.114 C  
ENDBRANCH  22  23
ENDBRANCH  14  22
ENDBRANCH   2   7
TORSDOF 3
ENDMDL
MODEL      147
REMARK 921   NORMALIZED FREE ENERGY PREDICTED BY IDOCK:   -3.61 KCAL/MOL
REMARK 922        TOTAL FREE ENERGY PREDICTED BY IDOCK:   -4.48 KCAL/MOL
REMARK 923 INTER-LIGAND FREE ENERGY PREDICTED BY IDOCK:   -6.15 KCAL/MOL
REMARK 924 INTRA-LIGAND FREE ENERGY PREDICTED BY IDOCK:    1.67 KCAL/MOL
REMARK 927      BINDING AFFINITY PREDICTED BY RF-SCORE:    0.00 PKD
ROOT
HETATM    1  N   UNL     1      -9.790  10.012  69.350  1.00  0.00    -0.211 N  
HETATM    2  S   UNL     1      -9.937  10.272  67.698  1.00  0.00    -0.188 S  
HETATM    3  H2  UNL     1      -9.225   9.303  69.818  1.00  0.00     0.000 HD 
HETATM    4  H1  UNL     1     -10.387  10.716  69.784  1.00  0.00     0.000 HD 
HETATM    5  O   UNL     1      -9.090   9.272  67.082  1.00  0.00    -0.128 OA 
HETATM    6  O   UNL     1     -11.338  10.366  67.397  1.00  0.00    -0.355 OA 
ENDROOT
BRANCH   2   7
HETATM    7  C   UNL     1      -9.194  11.859  67.487  1.00  0.00    -0.177 A  
HETATM    8  C   UNL     1      -9.987  12.920  67.038  1.00  0.00    -0.244 A  
HETATM    9  C   UNL     1      -9.403  14.181  66.860  1.00  0.00    -0.264 A  
HETATM   10  C   UNL     1      -8.055  14.430  67.127  1.00  0.00    -0.145 A  
HETATM   11  N   UNL     1      -7.498  15.706  67.050  1.00  0.00    -0.216 NA 
HETATM   12  C   UNL     1      -7.289  13.356  67.599  1.00  0.00    -0.173 A  
HETATM   13  H   UNL     1      -6.697  15.965  67.628  1.00  0.00     0.000 HD 
HETATM   14  C   UNL     1      -8.087  16.654  66.127  1.00  0.00    -0.238 C  
HETATM   15  C   UNL     1      -7.842  12.076  67.775  1.00  0.00    -0.145 A  
HETATM   16  N   UNL     1      -9.449  16.853  66.554  1.00  0.00    -0.263 N  
HETATM   17 CL   UNL     1      -6.769  10.845  68.344  1.00  0.00    -0.058 Cl 
HETATM   18  O   UNL     1     -11.531  15.633  67.213  1.00  0.00    -0.201 OA 
HETATM   19  S   UNL     1     -10.414  15.512  66.303  1.00  0.00    -0.317 S  
HETATM   20  O   UNL     1     -10.586  15.342  64.880  1.00  0.00    -0.407 OA 
HETATM   21  H   UNL     1      -9.789  17.722  66.966  1.00  0.00     0.000 HD 
BRANCH  14  22
HETATM   22  C   UNL     1      -7.353  18.004  66.208  1.00  0.00    -0.317 C  
BRANCH  22  23
HETATM   23  C   UNL     1      -8.117  19.085  66.987  1.00  0.00    -0.279 C  
HETATM   24  C   UNL     1      -9.571  19.261  66.555  1.00  0.00    -0.420 C  
HETATM   25  C   UNL     1     -10.187  20.007  67.725  1.00  0.00    -0.549 C  
HETATM   26  C   UNL     1      -9.551  19.372  68.954  1.00  0.00    -0.477 C  
HETATM   27  C   UNL     1      -8.228  18.764  68.485  1.00  0.00    -0.379 C  
ENDBRANCH  22  23
ENDBRANCH  14  22
ENDBRANCH   2   7
TORSDOF 3
ENDMDL
MODEL      148
REMARK 921   NORMALIZED FREE ENERGY PREDICTED BY IDOCK:   -3.59 KCAL/MOL
REMARK 922        TOTAL FREE ENERGY PREDICTED BY IDOCK:   -4.46 KCAL/MOL
REMARK 923 INTER-LIGAND FREE ENERGY PREDICTED BY IDOCK:   -4.22 KCAL/MOL
REMARK 924 INTRA-LIGAND FREE ENERGY PREDICTED BY IDOCK:   -0.24 KCAL/MOL
REMARK 927      BINDING AFFINITY PREDICTED BY RF-SCORE:    0.00 PKD
ROOT
HETATM    1  N   UNL     1      -8.715   7.618  64.669  1.00  0.00    -0.351 N  
HETATM    2  S   UNL     1      -7.705   7.991  65.957  1.00  0.00    -0.091 S  
HETATM    3  H2  UNL     1      -8.519   6.990  63.889  1.00  0.00     0.000 HD 
HETATM    4  H1  UNL     1      -9.566   8.154  64.836  1.00  0.00     0.000 HD 
HETATM    5  O   UNL     1      -6.496   7.230  65.721  1.00  0.00    -0.043 OA 
HETATM    6  O   UNL     1      -7.684   9.421  66.093  1.00  0.00    -0.098 OA 
ENDROOT
BRANCH   2   7
HETATM    7  C   UNL     1      -8.559   7.293  67.336  1.00  0.00    -0.121 A  
HETATM    8  C   UNL     1      -9.022   8.146  68.343  1.00  0.00    -0.136 A  
HETATM    9  C   UNL     1      -9.694   7.599  69.444  1.00  0.00    -0.165 A  
HETATM   10  C   UNL     1      -9.935   6.229  69.575  1.00  0.00    -0.164 A  
HETATM   11  N   UNL     1     -10.693   5.696  70.617  1.00  0.00    -0.275 NA 
HETATM   12  C   UNL     1      -9.482   5.401  68.539  1.00  0.00    -0.156 A  
HETATM   13  H   UNL     1     -11.217   4.829  70.494  1.00  0.00     0.000 HD 
HETATM   14  C   UNL     1     -10.715   6.407  71.878  1.00  0.00    -0.224 C  
HETATM   15  C   UNL     1      -8.793   5.917  67.428  1.00  0.00    -0.106 A  
HETATM   16  N   UNL     1     -11.285   7.704  71.610  1.00  0.00    -0.243 N  
HETATM   17 CL   UNL     1      -8.277   4.770  66.241  1.00  0.00    -0.107 Cl 
HETATM   18  O   UNL     1     -11.128   9.673  70.076  1.00  0.00    -0.240 OA 
HETATM   19  S   UNL     1     -10.281   8.683  70.702  1.00  0.00    -0.208 S  
HETATM   20  O   UNL     1      -9.143   9.038  71.517  1.00  0.00    -0.257 OA 
HETATM   21  H   UNL     1     -12.206   7.994  71.941  1.00  0.00     0.000 HD 
BRANCH  14  22
HETATM   22  C   UNL     1     -11.622   5.679  72.885  1.00  0.00    -0.252 C  
BRANCH  22  23
HETATM   23  C   UNL     1     -10.887   4.654  73.761  1.00  0.00    -0.378 C  
HETATM   24  C   UNL     1     -10.778   3.262  73.142  1.00  0.00    -0.263 C  
HETATM   25  C   UNL     1      -9.669   2.614  73.952  1.00  0.00    -0.130 C  
HETATM   26  C   UNL     1      -8.652   3.729  74.157  1.00  0.00    -0.089 C  
HETATM   27  C   UNL     1      -9.424   5.043  74.021  1.00  0.00    -0.129 C  
ENDBRANCH  22  23
ENDBRANCH  14  22
ENDBRANCH   2   7
TORSDOF 3
ENDMDL
MODEL      149
REMARK 921   NORMALIZED FREE ENERGY PREDICTED BY IDOCK:   -3.56 KCAL/MOL
REMARK 922        TOTAL FREE ENERGY PREDICTED BY IDOCK:   -4.42 KCAL/MOL
REMARK 923 INTER-LIGAND FREE ENERGY PREDICTED BY IDOCK:   -4.33 KCAL/MOL
REMARK 924 INTRA-LIGAND FREE ENERGY PREDICTED BY IDOCK:   -0.09 KCAL/MOL
REMARK 927      BINDING AFFINITY PREDICTED BY RF-SCORE:    0.00 PKD
ROOT
HETATM    1  N   UNL     1     -10.567  12.445  66.043  1.00  0.00    -0.250 N  
HETATM    2  S   UNL     1     -10.705  12.981  67.627  1.00  0.00    -0.230 S  
HETATM    3  H2  UNL     1      -9.809  12.636  65.387  1.00  0.00     0.000 HD 
HETATM    4  H1  UNL     1     -11.405  11.887  65.877  1.00  0.00     0.000 HD 
HETATM    5  O   UNL     1      -9.516  13.773  67.863  1.00  0.00    -0.200 OA 
HETATM    6  O   UNL     1     -12.023  13.530  67.787  1.00  0.00    -0.354 OA 
ENDROOT
BRANCH   2   7
HETATM    7  C   UNL     1     -10.586  11.484  68.556  1.00  0.00    -0.210 A  
HETATM    8  C   UNL     1     -11.663  11.106  69.364  1.00  0.00    -0.402 A  
HETATM    9  C   UNL     1     -11.574   9.924  70.110  1.00  0.00    -0.218 A  
HETATM   10  C   UNL     1     -10.453   9.092  70.072  1.00  0.00    -0.221 A  
HETATM   11  N   UNL     1     -10.404   7.865  70.732  1.00  0.00    -0.202 NA 
HETATM   12  C   UNL     1      -9.399   9.482  69.235  1.00  0.00    -0.171 A  
HETATM   13  H   UNL     1      -9.825   7.102  70.380  1.00  0.00     0.000 HD 
HETATM   14  C   UNL     1     -11.200   7.703  71.931  1.00  0.00    -0.257 C  
HETATM   15  C   UNL     1      -9.452  10.670  68.484  1.00  0.00    -0.176 A  
HETATM   16  N   UNL     1     -12.576   7.877  71.539  1.00  0.00    -0.318 N  
HETATM   17 CL   UNL     1      -8.067  11.030  67.514  1.00  0.00    -0.115 Cl 
HETATM   18  O   UNL     1     -14.114   9.392  70.275  1.00  0.00     0.607 OA 
HETATM   19  S   UNL     1     -12.941   9.452  71.117  1.00  0.00    -0.184 S  
HETATM   20  O   UNL     1     -12.882  10.262  72.311  1.00  0.00    -0.349 OA 
HETATM   21  H   UNL     1     -13.257   7.118  71.521  1.00  0.00     0.000 HD 
BRANCH  14  22
HETATM   22  C   UNL     1     -11.033   6.280  72.493  1.00  0.00    -0.286 C  
BRANCH  22  23
HETATM   23  C   UNL     1      -9.713   6.055  73.243  1.00  0.00    -0.157 C  
HETATM   24  C   UNL     1      -8.526   5.724  72.339  1.00  0.00    -0.118 C  
HETATM   25  C   UNL     1      -7.329   5.999  73.232  1.00  0.00    -0.089 C  
HETATM   26  C   UNL     1      -7.714   7.256  74.001  1.00  0.00    -0.134 C  
HETATM   27  C   UNL     1      -9.243   7.307  73.999  1.00  0.00    -0.292 C  
ENDBRANCH  22  23
ENDBRANCH  14  22
ENDBRANCH   2   7
TORSDOF 3
ENDMDL
MODEL      150
REMARK 921   NORMALIZED FREE ENERGY PREDICTED BY IDOCK:   -3.54 KCAL/MOL
REMARK 922        TOTAL FREE ENERGY PREDICTED BY IDOCK:   -4.40 KCAL/MOL
REMARK 923 INTER-LIGAND FREE ENERGY PREDICTED BY IDOCK:   -4.16 KCAL/MOL
REMARK 924 INTRA-LIGAND FREE ENERGY PREDICTED BY IDOCK:   -0.24 KCAL/MOL
REMARK 927      BINDING AFFINITY PREDICTED BY RF-SCORE:    0.00 PKD
ROOT
HETATM    1  N   UNL     1      -8.409  11.241  66.571  1.00  0.00    -0.166 N  
HETATM    2  S   UNL     1      -9.845  10.904  67.373  1.00  0.00    -0.176 S  
HETATM    3  H2  UNL     1      -7.785  12.033  66.725  1.00  0.00     0.000 HD 
HETATM    4  H1  UNL     1      -8.296  10.483  65.899  1.00  0.00     0.000 HD 
HETATM    5  O   UNL     1     -10.006  11.980  68.329  1.00  0.00    -0.194 OA 
HETATM    6  O   UNL     1     -10.841  10.620  66.379  1.00  0.00    -0.174 OA 
ENDROOT
BRANCH   2   7
HETATM    7  C   UNL     1      -9.462   9.418  68.247  1.00  0.00    -0.137 A  
HETATM    8  C   UNL     1      -9.594   9.403  69.639  1.00  0.00    -0.199 A  
HETATM    9  C   UNL     1      -9.285   8.230  70.341  1.00  0.00    -0.151 A  
HETATM   10  C   UNL     1      -8.860   7.062  69.704  1.00  0.00    -0.141 A  
HETATM   11  N   UNL     1      -8.652   5.865  70.389  1.00  0.00    -0.133 NA 
HETATM   12  C   UNL     1      -8.760   7.097  68.307  1.00  0.00    -0.128 A  
HETATM   13  H   UNL     1      -8.771   4.965  69.923  1.00  0.00     0.000 HD 
HETATM   14  C   UNL     1      -8.263   5.935  71.783  1.00  0.00    -0.119 C  
HETATM   15  C   UNL     1      -9.050   8.263  67.575  1.00  0.00    -0.137 A  
HETATM   16  N   UNL     1      -9.338   6.597  72.478  1.00  0.00    -0.138 N  
HETATM   17 CL   UNL     1      -8.861   8.161  65.859  1.00  0.00    -0.192 Cl 
HETATM   18  O   UNL     1     -10.821   8.611  72.404  1.00  0.00    -0.343 OA 
HETATM   19  S   UNL     1      -9.464   8.218  72.093  1.00  0.00    -0.285 S  
HETATM   20  O   UNL     1      -8.314   8.900  72.638  1.00  0.00    -0.392 OA 
HETATM   21  H   UNL     1      -9.958   6.125  73.137  1.00  0.00     0.000 HD 
BRANCH  14  22
HETATM   22  C   UNL     1      -8.110   4.520  72.366  1.00  0.00    -0.098 C  
BRANCH  22  23
HETATM   23  C   UNL     1      -9.353   4.012  73.109  1.00  0.00    -0.131 C  
HETATM   24  C   UNL     1     -10.203   3.024  72.310  1.00  0.00    -0.176 C  
HETATM   25  C   UNL     1     -11.052   2.361  73.380  1.00  0.00    -0.294 C  
HETATM   26  C   UNL     1     -10.102   2.180  74.557  1.00  0.00    -0.160 C  
HETATM   27  C   UNL     1      -9.000   3.227  74.381  1.00  0.00    -0.096 C  
ENDBRANCH  22  23
ENDBRANCH  14  22
ENDBRANCH   2   7
TORSDOF 3
ENDMDL
MODEL      151
REMARK 921   NORMALIZED FREE ENERGY PREDICTED BY IDOCK:   -3.49 KCAL/MOL
REMARK 922        TOTAL FREE ENERGY PREDICTED BY IDOCK:   -4.34 KCAL/MOL
REMARK 923 INTER-LIGAND FREE ENERGY PREDICTED BY IDOCK:   -4.09 KCAL/MOL
REMARK 924 INTRA-LIGAND FREE ENERGY PREDICTED BY IDOCK:   -0.25 KCAL/MOL
REMARK 927      BINDING AFFINITY PREDICTED BY RF-SCORE:    0.00 PKD
ROOT
HETATM    1  N   UNL     1      -9.255   5.495  72.190  1.00  0.00    -0.143 N  
HETATM    2  S   UNL     1     -10.448   6.674  72.110  1.00  0.00    -0.207 S  
HETATM    3  H2  UNL     1      -9.268   4.570  71.760  1.00  0.00     0.000 HD 
HETATM    4  H1  UNL     1      -8.515   5.904  72.761  1.00  0.00     0.000 HD 
HETATM    5  O   UNL     1     -11.498   6.094  71.299  1.00  0.00    -0.294 OA 
HETATM    6  O   UNL     1     -10.693   7.135  73.448  1.00  0.00    -0.347 OA 
ENDROOT
BRANCH   2   7
HETATM    7  C   UNL     1      -9.662   7.960  71.191  1.00  0.00    -0.158 A  
HETATM    8  C   UNL     1     -10.284   8.436  70.032  1.00  0.00    -0.202 A  
HETATM    9  C   UNL     1      -9.663   9.452  69.293  1.00  0.00    -0.172 A  
HETATM   10  C   UNL     1      -8.447  10.023  69.672  1.00  0.00    -0.180 A  
HETATM   11  N   UNL     1      -7.880  11.103  68.996  1.00  0.00    -0.247 NA 
HETATM   12  C   UNL     1      -7.858   9.544  70.850  1.00  0.00    -0.016 A  
HETATM   13  H   UNL     1      -7.277  11.768  69.481  1.00  0.00     0.000 HD 
HETATM   14  C   UNL     1      -8.172  11.253  67.585  1.00  0.00    -0.120 C  
HETATM   15  C   UNL     1      -8.449   8.517  71.607  1.00  0.00    -0.178 A  
HETATM   16  N   UNL     1      -9.597  11.434  67.476  1.00  0.00    -0.166 N  
HETATM   17 CL   UNL     1      -7.594   8.017  73.025  1.00  0.00    -0.157 Cl 
HETATM   18  O   UNL     1     -11.791  10.480  68.208  1.00  0.00    -0.406 OA 
HETATM   19  S   UNL     1     -10.461  10.051  67.840  1.00  0.00    -0.249 S  
HETATM   20  O   UNL     1     -10.218   9.082  66.798  1.00  0.00    -0.256 OA 
HETATM   21  H   UNL     1     -10.035  12.315  67.204  1.00  0.00     0.000 HD 
BRANCH  14  22
HETATM   22  C   UNL     1      -7.481  12.511  67.029  1.00  0.00    -0.009 C  
BRANCH  22  23
HETATM   23  C   UNL     1      -7.075  13.528  68.105  1.00  0.00    -0.117 C  
HETATM   24  C   UNL     1      -5.674  14.110  67.923  1.00  0.00    -0.119 C  
HETATM   25  C   UNL     1      -5.706  15.355  68.792  1.00  0.00    -0.092 C  
HETATM   26  C   UNL     1      -7.096  15.936  68.568  1.00  0.00    -0.124 C  
HETATM   27  C   UNL     1      -7.977  14.771  68.112  1.00  0.00    -0.129 C  
ENDBRANCH  22  23
ENDBRANCH  14  22
ENDBRANCH   2   7
TORSDOF 3
ENDMDL
MODEL      152
REMARK 921   NORMALIZED FREE ENERGY PREDICTED BY IDOCK:   -3.46 KCAL/MOL
REMARK 922        TOTAL FREE ENERGY PREDICTED BY IDOCK:   -4.30 KCAL/MOL
REMARK 923 INTER-LIGAND FREE ENERGY PREDICTED BY IDOCK:   -4.44 KCAL/MOL
REMARK 924 INTRA-LIGAND FREE ENERGY PREDICTED BY IDOCK:    0.13 KCAL/MOL
REMARK 927      BINDING AFFINITY PREDICTED BY RF-SCORE:    0.00 PKD
ROOT
HETATM    1  N   UNL     1      -5.956  19.881  69.650  1.00  0.00    -0.296 N  
HETATM    2  S   UNL     1      -6.363  20.110  68.037  1.00  0.00    -0.272 S  
HETATM    3  H2  UNL     1      -6.273  20.426  70.452  1.00  0.00     0.000 HD 
HETATM    4  H1  UNL     1      -5.325  19.080  69.653  1.00  0.00     0.000 HD 
HETATM    5  O   UNL     1      -7.259  21.247  68.032  1.00  0.00    -0.085 OA 
HETATM    6  O   UNL     1      -5.145  20.103  67.277  1.00  0.00    -0.158 OA 
ENDROOT
BRANCH   2   7
HETATM    7  C   UNL     1      -7.287  18.654  67.659  1.00  0.00    -0.224 A  
HETATM    8  C   UNL     1      -6.789  17.414  68.073  1.00  0.00    -0.182 A  
HETATM    9  C   UNL     1      -7.513  16.253  67.771  1.00  0.00    -0.134 A  
HETATM   10  C   UNL     1      -8.726  16.281  67.079  1.00  0.00    -0.195 A  
HETATM   11  N   UNL     1      -9.497  15.138  66.868  1.00  0.00    -0.227 NA 
HETATM   12  C   UNL     1      -9.213  17.537  66.698  1.00  0.00    -0.277 A  
HETATM   13  H   UNL     1     -10.511  15.199  66.774  1.00  0.00     0.000 HD 
HETATM   14  C   UNL     1      -8.817  13.861  66.788  1.00  0.00    -0.149 C  
HETATM   15  C   UNL     1      -8.505  18.720  66.975  1.00  0.00    -0.281 A  
HETATM   16  N   UNL     1      -8.167  13.660  68.058  1.00  0.00    -0.150 N  
HETATM   17 CL   UNL     1      -9.222  20.194  66.424  1.00  0.00    -0.428 Cl 
HETATM   18  O   UNL     1      -6.678  14.768  69.735  1.00  0.00    -0.155 OA 
HETATM   19  S   UNL     1      -6.881  14.697  68.305  1.00  0.00    -0.130 S  
HETATM   20  O   UNL     1      -5.827  14.334  67.388  1.00  0.00    -0.348 OA 
HETATM   21  H   UNL     1      -8.461  12.956  68.736  1.00  0.00     0.000 HD 
BRANCH  14  22
HETATM   22  C   UNL     1      -9.836  12.727  66.581  1.00  0.00    -0.250 C  
BRANCH  22  23
HETATM   23  C   UNL     1      -9.649  11.951  65.269  1.00  0.00    -0.156 C  
HETATM   24  C   UNL     1     -10.276  10.557  65.270  1.00  0.00    -0.352 C  
HETATM   25  C   UNL     1     -10.351  10.216  63.792  1.00  0.00     0.708 C  
HETATM   26  C   UNL     1     -10.756  11.523  63.124  1.00  0.00    -0.281 C  
HETATM   27  C   UNL     1     -10.323  12.641  64.074  1.00  0.00    -0.414 C  
ENDBRANCH  22  23
ENDBRANCH  14  22
ENDBRANCH   2   7
TORSDOF 3
ENDMDL
MODEL      153
REMARK 921   NORMALIZED FREE ENERGY PREDICTED BY IDOCK:   -3.44 KCAL/MOL
REMARK 922        TOTAL FREE ENERGY PREDICTED BY IDOCK:   -4.28 KCAL/MOL
REMARK 923 INTER-LIGAND FREE ENERGY PREDICTED BY IDOCK:   -5.52 KCAL/MOL
REMARK 924 INTRA-LIGAND FREE ENERGY PREDICTED BY IDOCK:    1.23 KCAL/MOL
REMARK 927      BINDING AFFINITY PREDICTED BY RF-SCORE:    0.00 PKD
ROOT
HETATM    1  N   UNL     1      -5.177   9.886  69.918  1.00  0.00    -0.037 N  
HETATM    2  S   UNL     1      -6.709   9.202  69.982  1.00  0.00    -0.052 S  
HETATM    3  H2  UNL     1      -4.356   9.522  69.435  1.00  0.00     0.000 HD 
HETATM    4  H1  UNL     1      -5.246  10.743  70.466  1.00  0.00     0.000 HD 
HETATM    5  O   UNL     1      -6.611   7.985  69.204  1.00  0.00    -0.039 OA 
HETATM    6  O   UNL     1      -7.121   9.189  71.358  1.00  0.00    -0.220 OA 
ENDROOT
BRANCH   2   7
HETATM    7  C   UNL     1      -7.693  10.369  69.095  1.00  0.00    -0.126 A  
HETATM    8  C   UNL     1      -7.190  11.659  68.895  1.00  0.00    -0.113 A  
HETATM    9  C   UNL     1      -7.968  12.593  68.199  1.00  0.00    -0.158 A  
HETATM   10  C   UNL     1      -9.229  12.287  67.681  1.00  0.00    -0.183 A  
HETATM   11  N   UNL     1      -9.958  13.183  66.900  1.00  0.00    -0.240 NA 
HETATM   12  C   UNL     1      -9.697  10.981  67.875  1.00  0.00    -0.183 A  
HETATM   13  H   UNL     1     -10.618  12.849  66.196  1.00  0.00     0.000 HD 
HETATM   14  C   UNL     1      -9.754  14.601  67.116  1.00  0.00    -0.235 C  
HETATM   15  C   UNL     1      -8.947  10.024  68.580  1.00  0.00    -0.136 A  
HETATM   16  N   UNL     1      -8.369  14.867  66.818  1.00  0.00    -0.383 N  
HETATM   17 CL   UNL     1      -9.664   8.461  68.758  1.00  0.00    -0.161 Cl 
HETATM   18  O   UNL     1      -6.041  14.080  67.286  1.00  0.00    -0.309 OA 
HETATM   19  S   UNL     1      -7.321  14.212  67.943  1.00  0.00    -0.176 S  
HETATM   20  O   UNL     1      -7.487  14.931  69.184  1.00  0.00    -0.136 OA 
HETATM   21  H   UNL     1      -8.060  15.400  66.006  1.00  0.00     0.000 HD 
BRANCH  14  22
HETATM   22  C   UNL     1     -10.623  15.419  66.146  1.00  0.00    -0.321 C  
BRANCH  22  23
HETATM   23  C   UNL     1     -11.283  14.582  65.040  1.00  0.00    -0.384 C  
HETATM   24  C   UNL     1     -10.373  13.515  64.434  1.00  0.00    -0.306 C  
HETATM   25  C   UNL     1     -11.354  12.581  63.745  1.00  0.00    -0.534 C  
HETATM   26  C   UNL     1     -12.533  12.500  64.704  1.00  0.00    -0.539 C  
HETATM   27  C   UNL     1     -12.485  13.774  65.550  1.00  0.00    -0.548 C  
ENDBRANCH  22  23
ENDBRANCH  14  22
ENDBRANCH   2   7
TORSDOF 3
ENDMDL
MODEL      154
REMARK 921   NORMALIZED FREE ENERGY PREDICTED BY IDOCK:   -3.43 KCAL/MOL
REMARK 922        TOTAL FREE ENERGY PREDICTED BY IDOCK:   -4.27 KCAL/MOL
REMARK 923 INTER-LIGAND FREE ENERGY PREDICTED BY IDOCK:   -4.08 KCAL/MOL
REMARK 924 INTRA-LIGAND FREE ENERGY PREDICTED BY IDOCK:   -0.19 KCAL/MOL
REMARK 927      BINDING AFFINITY PREDICTED BY RF-SCORE:    0.00 PKD
ROOT
HETATM    1  N   UNL     1     -11.198   7.621  73.264  1.00  0.00    -0.549 N  
HETATM    2  S   UNL     1     -11.696   6.378  72.251  1.00  0.00    -0.257 S  
HETATM    3  H2  UNL     1     -10.844   7.539  74.217  1.00  0.00     0.000 HD 
HETATM    4  H1  UNL     1     -11.325   8.474  72.719  1.00  0.00     0.000 HD 
HETATM    5  O   UNL     1     -11.516   5.166  73.024  1.00  0.00    -0.316 OA 
HETATM    6  O   UNL     1     -12.974   6.745  71.708  1.00  0.00    -0.349 OA 
ENDROOT
BRANCH   2   7
HETATM    7  C   UNL     1     -10.489   6.418  70.964  1.00  0.00    -0.223 A  
HETATM    8  C   UNL     1     -10.901   6.731  69.664  1.00  0.00    -0.314 A  
HETATM    9  C   UNL     1      -9.950   6.758  68.635  1.00  0.00    -0.146 A  
HETATM   10  C   UNL     1      -8.596   6.495  68.854  1.00  0.00    -0.125 A  
HETATM   11  N   UNL     1      -7.634   6.623  67.853  1.00  0.00    -0.104 NA 
HETATM   12  C   UNL     1      -8.207   6.209  70.170  1.00  0.00    -0.120 A  
HETATM   13  H   UNL     1      -6.667   6.857  68.080  1.00  0.00     0.000 HD 
HETATM   14  C   UNL     1      -8.046   6.413  66.480  1.00  0.00    -0.111 C  
HETATM   15  C   UNL     1      -9.138   6.161  71.222  1.00  0.00    -0.143 A  
HETATM   16  N   UNL     1      -9.040   7.416  66.191  1.00  0.00    -0.274 N  
HETATM   17 CL   UNL     1      -8.513   5.773  72.786  1.00  0.00    -0.119 Cl 
HETATM   18  O   UNL     1     -11.150   8.442  67.059  1.00  0.00     0.051 OA 
HETATM   19  S   UNL     1     -10.478   7.164  67.004  1.00  0.00    -0.322 S  
HETATM   20  O   UNL     1     -11.101   5.981  66.458  1.00  0.00    -0.209 OA 
HETATM   21  H   UNL     1      -8.883   8.199  65.555  1.00  0.00     0.000 HD 
BRANCH  14  22
HETATM   22  C   UNL     1      -6.856   6.624  65.528  1.00  0.00    -0.052 C  
BRANCH  22  23
HETATM   23  C   UNL     1      -6.955   7.897  64.675  1.00  0.00    -0.067 C  
HETATM   24  C   UNL     1      -6.056   9.039  65.144  1.00  0.00    -0.060 C  
HETATM   25  C   UNL     1      -5.999   9.950  63.930  1.00  0.00    -0.121 C  
HETATM   26  C   UNL     1      -5.912   8.994  62.747  1.00  0.00    -0.090 C  
HETATM   27  C   UNL     1      -6.510   7.669  63.223  1.00  0.00    -0.059 C  
ENDBRANCH  22  23
ENDBRANCH  14  22
ENDBRANCH   2   7
TORSDOF 3
ENDMDL
MODEL      155
REMARK 921   NORMALIZED FREE ENERGY PREDICTED BY IDOCK:   -3.41 KCAL/MOL
REMARK 922        TOTAL FREE ENERGY PREDICTED BY IDOCK:   -4.24 KCAL/MOL
REMARK 923 INTER-LIGAND FREE ENERGY PREDICTED BY IDOCK:   -4.41 KCAL/MOL
REMARK 924 INTRA-LIGAND FREE ENERGY PREDICTED BY IDOCK:    0.17 KCAL/MOL
REMARK 927      BINDING AFFINITY PREDICTED BY RF-SCORE:    0.00 PKD
ROOT
HETATM    1  N   UNL     1      -7.105  20.444  71.279  1.00  0.00     0.140 N  
HETATM    2  S   UNL     1      -5.819  19.789  70.422  1.00  0.00    -0.294 S  
HETATM    3  H2  UNL     1      -7.359  21.429  71.359  1.00  0.00     0.000 HD 
HETATM    4  H1  UNL     1      -7.577  19.645  71.702  1.00  0.00     0.000 HD 
HETATM    5  O   UNL     1      -5.149  20.923  69.821  1.00  0.00    -0.320 OA 
HETATM    6  O   UNL     1      -5.131  18.881  71.298  1.00  0.00    -0.272 OA 
ENDROOT
BRANCH   2   7
HETATM    7  C   UNL     1      -6.627  18.866  69.153  1.00  0.00    -0.291 A  
HETATM    8  C   UNL     1      -7.133  17.598  69.461  1.00  0.00     0.079 A  
HETATM    9  C   UNL     1      -7.770  16.856  68.457  1.00  0.00    -0.227 A  
HETATM   10  C   UNL     1      -7.934  17.335  67.156  1.00  0.00    -0.205 A  
HETATM   11  N   UNL     1      -8.657  16.642  66.185  1.00  0.00    -0.428 NA 
HETATM   12  C   UNL     1      -7.439  18.617  66.882  1.00  0.00    -0.230 A  
HETATM   13  H   UNL     1      -9.132  17.139  65.431  1.00  0.00     0.000 HD 
HETATM   14  C   UNL     1      -8.714  15.198  66.278  1.00  0.00    -0.090 C  
HETATM   15  C   UNL     1      -6.784  19.382  67.863  1.00  0.00    -0.238 A  
HETATM   16  N   UNL     1      -9.357  14.891  67.531  1.00  0.00    -0.190 N  
HETATM   17 CL   UNL     1      -6.209  20.937  67.371  1.00  0.00    -0.326 Cl 
HETATM   18  O   UNL     1      -9.315  15.419  69.976  1.00  0.00    -0.154 OA 
HETATM   19  S   UNL     1      -8.412  15.265  68.858  1.00  0.00    -0.218 S  
HETATM   20  O   UNL     1      -7.292  14.354  68.884  1.00  0.00    -0.118 OA 
HETATM   21  H   UNL     1     -10.291  14.487  67.602  1.00  0.00     0.000 HD 
BRANCH  14  22
HETATM   22  C   UNL     1      -9.576  14.624  65.140  1.00  0.00     0.207 C  
BRANCH  22  23
HETATM   23  C   UNL     1     -10.918  14.041  65.605  1.00  0.00    -0.300 C  
HETATM   24  C   UNL     1     -12.143  14.748  65.028  1.00  0.00    -0.291 C  
HETATM   25  C   UNL     1     -13.258  13.743  65.257  1.00  0.00    -0.007 C  
HETATM   26  C   UNL     1     -12.615  12.394  64.959  1.00  0.00    -0.305 C  
HETATM   27  C   UNL     1     -11.111  12.583  65.165  1.00  0.00    -0.335 C  
ENDBRANCH  22  23
ENDBRANCH  14  22
ENDBRANCH   2   7
TORSDOF 3
ENDMDL
MODEL      156
REMARK 921   NORMALIZED FREE ENERGY PREDICTED BY IDOCK:   -3.40 KCAL/MOL
REMARK 922        TOTAL FREE ENERGY PREDICTED BY IDOCK:   -4.23 KCAL/MOL
REMARK 923 INTER-LIGAND FREE ENERGY PREDICTED BY IDOCK:   -4.71 KCAL/MOL
REMARK 924 INTRA-LIGAND FREE ENERGY PREDICTED BY IDOCK:    0.48 KCAL/MOL
REMARK 927      BINDING AFFINITY PREDICTED BY RF-SCORE:    0.00 PKD
ROOT
HETATM    1  N   UNL     1     -10.292  12.407  68.945  1.00  0.00    -0.417 N  
HETATM    2  S   UNL     1     -11.509  11.333  69.376  1.00  0.00    -0.332 S  
HETATM    3  H2  UNL     1      -9.975  13.225  69.465  1.00  0.00     0.000 HD 
HETATM    4  H1  UNL     1      -9.938  12.063  68.053  1.00  0.00     0.000 HD 
HETATM    5  O   UNL     1     -12.011  11.821  70.643  1.00  0.00    -0.350 OA 
HETATM    6  O   UNL     1     -12.366  11.169  68.235  1.00  0.00    -0.532 OA 
ENDROOT
BRANCH   2   7
HETATM    7  C   UNL     1     -10.622   9.832  69.653  1.00  0.00    -0.239 A  
HETATM    8  C   UNL     1     -10.492   9.359  70.963  1.00  0.00    -0.392 A  
HETATM    9  C   UNL     1      -9.783   8.172  71.192  1.00  0.00    -0.163 A  
HETATM   10  C   UNL     1      -9.208   7.428  70.160  1.00  0.00    -0.151 A  
HETATM   11  N   UNL     1      -8.593   6.195  70.375  1.00  0.00    -0.132 NA 
HETATM   12  C   UNL     1      -9.375   7.911  68.856  1.00  0.00    -0.150 A  
HETATM   13  H   UNL     1      -8.570   5.485  69.643  1.00  0.00     0.000 HD 
HETATM   14  C   UNL     1      -7.987   5.951  71.668  1.00  0.00    -0.113 C  
HETATM   15  C   UNL     1     -10.068   9.106  68.593  1.00  0.00    -0.194 A  
HETATM   16  N   UNL     1      -9.047   6.029  72.641  1.00  0.00    -0.138 N  
HETATM   17 CL   UNL     1     -10.174   9.587  66.936  1.00  0.00    -0.307 Cl 
HETATM   18  O   UNL     1     -10.966   7.448  73.392  1.00  0.00    -0.378 OA 
HETATM   19  S   UNL     1      -9.634   7.580  72.845  1.00  0.00    -0.219 S  
HETATM   20  O   UNL     1      -8.607   8.369  73.482  1.00  0.00    -0.304 OA 
HETATM   21  H   UNL     1      -9.403   5.221  73.153  1.00  0.00     0.000 HD 
BRANCH  14  22
HETATM   22  C   UNL     1      -7.388   4.534  71.718  1.00  0.00    -0.072 C  
BRANCH  22  23
HETATM   23  C   UNL     1      -6.545   4.169  70.488  1.00  0.00    -0.032 C  
HETATM   24  C   UNL     1      -7.349   4.016  69.198  1.00  0.00    -0.054 C  
HETATM   25  C   UNL     1      -6.286   4.114  68.118  1.00  0.00    -0.033 C  
HETATM   26  C   UNL     1      -5.342   5.201  68.617  1.00  0.00    -0.004 C  
HETATM   27  C   UNL     1      -5.515   5.253  70.136  1.00  0.00    -0.004 C  
ENDBRANCH  22  23
ENDBRANCH  14  22
ENDBRANCH   2   7
TORSDOF 3
ENDMDL
MODEL      157
REMARK 921   NORMALIZED FREE ENERGY PREDICTED BY IDOCK:   -3.39 KCAL/MOL
REMARK 922        TOTAL FREE ENERGY PREDICTED BY IDOCK:   -4.22 KCAL/MOL
REMARK 923 INTER-LIGAND FREE ENERGY PREDICTED BY IDOCK:   -4.35 KCAL/MOL
REMARK 924 INTRA-LIGAND FREE ENERGY PREDICTED BY IDOCK:    0.13 KCAL/MOL
REMARK 927      BINDING AFFINITY PREDICTED BY RF-SCORE:    0.00 PKD
ROOT
HETATM    1  N   UNL     1      -8.452   5.641  74.554  1.00  0.00    -0.108 N  
HETATM    2  S   UNL     1      -8.076   5.188  72.981  1.00  0.00    -0.105 S  
HETATM    3  H2  UNL     1      -7.801   5.889  75.299  1.00  0.00     0.000 HD 
HETATM    4  H1  UNL     1      -9.470   5.614  74.601  1.00  0.00     0.000 HD 
HETATM    5  O   UNL     1      -6.630   5.226  72.913  1.00  0.00    -0.064 OA 
HETATM    6  O   UNL     1      -8.817   3.994  72.684  1.00  0.00    -0.101 OA 
ENDROOT
BRANCH   2   7
HETATM    7  C   UNL     1      -8.727   6.523  72.027  1.00  0.00    -0.132 A  
HETATM    8  C   UNL     1     -10.073   6.870  72.184  1.00  0.00    -0.198 A  
HETATM    9  C   UNL     1     -10.600   7.923  71.425  1.00  0.00    -0.211 A  
HETATM   10  C   UNL     1      -9.830   8.657  70.520  1.00  0.00    -0.179 A  
HETATM   11  N   UNL     1     -10.325   9.770  69.841  1.00  0.00    -0.236 NA 
HETATM   12  C   UNL     1      -8.479   8.305  70.400  1.00  0.00    -0.129 A  
HETATM   13  H   UNL     1      -9.704  10.525  69.548  1.00  0.00     0.000 HD 
HETATM   14  C   UNL     1     -11.746   9.825  69.565  1.00  0.00     0.163 C  
HETATM   15  C   UNL     1      -7.924   7.244  71.138  1.00  0.00    -0.101 A  
HETATM   16  N   UNL     1     -12.414   9.821  70.842  1.00  0.00    -0.420 N  
HETATM   17 CL   UNL     1      -6.248   6.913  70.868  1.00  0.00    -0.035 Cl 
HETATM   18  O   UNL     1     -12.509   8.633  73.041  1.00  0.00    -0.215 OA 
HETATM   19  S   UNL     1     -12.294   8.357  71.639  1.00  0.00    -0.334 S  
HETATM   20  O   UNL     1     -13.072   7.384  70.910  1.00  0.00    -0.186 OA 
HETATM   21  H   UNL     1     -12.910  10.629  71.221  1.00  0.00     0.000 HD 
BRANCH  14  22
HETATM   22  C   UNL     1     -12.098  11.134  68.838  1.00  0.00    -0.276 C  
BRANCH  22  23
HETATM   23  C   UNL     1     -11.248  12.337  69.272  1.00  0.00    -0.275 C  
HETATM   24  C   UNL     1     -10.496  13.019  68.131  1.00  0.00    -0.252 C  
HETATM   25  C   UNL     1     -10.136  14.373  68.719  1.00  0.00    -0.234 C  
HETATM   26  C   UNL     1     -11.367  14.773  69.521  1.00  0.00    -0.312 C  
HETATM   27  C   UNL     1     -12.095  13.473  69.867  1.00  0.00    -0.408 C  
ENDBRANCH  22  23
ENDBRANCH  14  22
ENDBRANCH   2   7
TORSDOF 3
ENDMDL
MODEL      158
REMARK 921   NORMALIZED FREE ENERGY PREDICTED BY IDOCK:   -3.33 KCAL/MOL
REMARK 922        TOTAL FREE ENERGY PREDICTED BY IDOCK:   -4.15 KCAL/MOL
REMARK 923 INTER-LIGAND FREE ENERGY PREDICTED BY IDOCK:   -5.83 KCAL/MOL
REMARK 924 INTRA-LIGAND FREE ENERGY PREDICTED BY IDOCK:    1.68 KCAL/MOL
REMARK 927      BINDING AFFINITY PREDICTED BY RF-SCORE:    0.00 PKD
ROOT
HETATM    1  N   UNL     1      -6.586  20.393  70.206  1.00  0.00    -0.308 N  
HETATM    2  S   UNL     1      -6.448  19.832  68.630  1.00  0.00    -0.297 S  
HETATM    3  H2  UNL     1      -6.853  21.330  70.509  1.00  0.00     0.000 HD 
HETATM    4  H1  UNL     1      -6.345  19.596  70.795  1.00  0.00     0.000 HD 
HETATM    5  O   UNL     1      -6.789  20.964  67.795  1.00  0.00    -0.322 OA 
HETATM    6  O   UNL     1      -5.182  19.162  68.517  1.00  0.00    -0.186 OA 
ENDROOT
BRANCH   2   7
HETATM    7  C   UNL     1      -7.744  18.637  68.529  1.00  0.00    -0.316 A  
HETATM    8  C   UNL     1      -7.431  17.287  68.721  1.00  0.00    -0.260 A  
HETATM    9  C   UNL     1      -8.452  16.331  68.635  1.00  0.00    -0.221 A  
HETATM   10  C   UNL     1      -9.782  16.672  68.376  1.00  0.00    -0.243 A  
HETATM   11  N   UNL     1     -10.815  15.735  68.393  1.00  0.00    -0.283 NA 
HETATM   12  C   UNL     1     -10.071  18.033  68.214  1.00  0.00    -0.390 A  
HETATM   13  H   UNL     1     -11.768  16.008  68.636  1.00  0.00     0.000 HD 
HETATM   14  C   UNL     1     -10.496  14.362  68.057  1.00  0.00    -0.237 C  
HETATM   15  C   UNL     1      -9.067  19.015  68.281  1.00  0.00    -0.327 A  
HETATM   16  N   UNL     1      -9.545  13.907  69.040  1.00  0.00    -0.407 N  
HETATM   17 CL   UNL     1      -9.572  20.651  68.038  1.00  0.00    -0.256 Cl 
HETATM   18  O   UNL     1      -7.401  14.519  70.174  1.00  0.00     0.062 OA 
HETATM   19  S   UNL     1      -8.049  14.635  68.887  1.00  0.00    -0.122 S  
HETATM   20  O   UNL     1      -7.442  14.161  67.666  1.00  0.00    -0.149 OA 
HETATM   21  H   UNL     1      -9.763  13.213  69.755  1.00  0.00     0.000 HD 
BRANCH  14  22
HETATM   22  C   UNL     1     -11.755  13.483  68.158  1.00  0.00    -0.396 C  
BRANCH  22  23
HETATM   23  C   UNL     1     -12.592  13.733  69.421  1.00  0.00     0.149 C  
HETATM   24  C   UNL     1     -12.065  13.034  70.673  1.00  0.00    -0.333 C  
HETATM   25  C   UNL     1     -12.758  13.781  71.799  1.00  0.00    -0.373 C  
HETATM   26  C   UNL     1     -12.740  15.236  71.352  1.00  0.00    -0.462 C  
HETATM   27  C   UNL     1     -12.618  15.214  69.827  1.00  0.00    -0.149 C  
ENDBRANCH  22  23
ENDBRANCH  14  22
ENDBRANCH   2   7
TORSDOF 3
ENDMDL
MODEL      159
REMARK 921   NORMALIZED FREE ENERGY PREDICTED BY IDOCK:   -3.32 KCAL/MOL
REMARK 922        TOTAL FREE ENERGY PREDICTED BY IDOCK:   -4.14 KCAL/MOL
REMARK 923 INTER-LIGAND FREE ENERGY PREDICTED BY IDOCK:   -3.98 KCAL/MOL
REMARK 924 INTRA-LIGAND FREE ENERGY PREDICTED BY IDOCK:   -0.17 KCAL/MOL
REMARK 927      BINDING AFFINITY PREDICTED BY RF-SCORE:    0.00 PKD
ROOT
HETATM    1  N   UNL     1      -9.892   3.423  64.153  1.00  0.00    -0.161 N  
HETATM    2  S   UNL     1      -8.311   3.920  64.426  1.00  0.00    -0.095 S  
HETATM    3  H2  UNL     1     -10.407   2.697  64.650  1.00  0.00     0.000 HD 
HETATM    4  H1  UNL     1     -10.224   4.005  63.384  1.00  0.00     0.000 HD 
HETATM    5  O   UNL     1      -7.839   3.094  65.517  1.00  0.00    -0.083 OA 
HETATM    6  O   UNL     1      -7.640   3.950  63.156  1.00  0.00    -0.056 OA 
ENDROOT
BRANCH   2   7
HETATM    7  C   UNL     1      -8.519   5.573  65.008  1.00  0.00    -0.147 A  
HETATM    8  C   UNL     1      -7.902   6.616  64.309  1.00  0.00    -0.115 A  
HETATM    9  C   UNL     1      -8.056   7.930  64.770  1.00  0.00    -0.141 A  
HETATM   10  C   UNL     1      -8.814   8.249  65.898  1.00  0.00    -0.160 A  
HETATM   11  N   UNL     1      -9.053   9.564  66.297  1.00  0.00    -0.155 NA 
HETATM   12  C   UNL     1      -9.441   7.188  66.565  1.00  0.00    -0.208 A  
HETATM   13  H   UNL     1      -9.902   9.812  66.806  1.00  0.00     0.000 HD 
HETATM   14  C   UNL     1      -8.061  10.568  65.967  1.00  0.00    -0.148 C  
HETATM   15  C   UNL     1      -9.296   5.857  66.136  1.00  0.00    -0.132 A  
HETATM   16  N   UNL     1      -7.978  10.608  64.529  1.00  0.00    -0.356 N  
HETATM   17 CL   UNL     1     -10.111   4.653  67.072  1.00  0.00    -0.225 Cl 
HETATM   18  O   UNL     1      -7.730   9.162  62.503  1.00  0.00    -0.112 OA 
HETATM   19  S   UNL     1      -7.282   9.237  63.876  1.00  0.00    -0.101 S  
HETATM   20  O   UNL     1      -5.885   9.226  64.239  1.00  0.00    -0.068 OA 
HETATM   21  H   UNL     1      -8.310  11.393  63.968  1.00  0.00     0.000 HD 
BRANCH  14  22
HETATM   22  C   UNL     1      -8.517  11.950  66.465  1.00  0.00    -0.097 C  
BRANCH  22  23
HETATM   23  C   UNL     1      -9.840  11.929  67.244  1.00  0.00    -0.197 C  
HETATM   24  C   UNL     1      -9.880  12.882  68.438  1.00  0.00    -0.197 C  
HETATM   25  C   UNL     1     -11.366  13.003  68.728  1.00  0.00    -0.332 C  
HETATM   26  C   UNL     1     -12.015  13.055  67.351  1.00  0.00    -0.372 C  
HETATM   27  C   UNL     1     -11.034  12.381  66.390  1.00  0.00    -0.315 C  
ENDBRANCH  22  23
ENDBRANCH  14  22
ENDBRANCH   2   7
TORSDOF 3
ENDMDL
MODEL      160
REMARK 921   NORMALIZED FREE ENERGY PREDICTED BY IDOCK:   -3.31 KCAL/MOL
REMARK 922        TOTAL FREE ENERGY PREDICTED BY IDOCK:   -4.13 KCAL/MOL
REMARK 923 INTER-LIGAND FREE ENERGY PREDICTED BY IDOCK:   -4.43 KCAL/MOL
REMARK 924 INTRA-LIGAND FREE ENERGY PREDICTED BY IDOCK:    0.30 KCAL/MOL
REMARK 927      BINDING AFFINITY PREDICTED BY RF-SCORE:    0.00 PKD
ROOT
HETATM    1  N   UNL     1     -10.748  15.846  64.945  1.00  0.00    -0.479 N  
HETATM    2  S   UNL     1      -9.778  16.473  66.163  1.00  0.00    -0.313 S  
HETATM    3  H2  UNL     1     -10.609  15.928  63.938  1.00  0.00     0.000 HD 
HETATM    4  H1  UNL     1     -11.506  15.366  65.430  1.00  0.00     0.000 HD 
HETATM    5  O   UNL     1      -8.702  17.155  65.475  1.00  0.00    -0.272 OA 
HETATM    6  O   UNL     1     -10.634  17.156  67.092  1.00  0.00    -0.313 OA 
ENDROOT
BRANCH   2   7
HETATM    7  C   UNL     1      -9.133  15.021  66.932  1.00  0.00    -0.247 A  
HETATM    8  C   UNL     1      -9.986  13.931  67.135  1.00  0.00    -0.239 A  
HETATM    9  C   UNL     1      -9.484  12.778  67.752  1.00  0.00    -0.205 A  
HETATM   10  C   UNL     1      -8.155  12.663  68.165  1.00  0.00    -0.164 A  
HETATM   11  N   UNL     1      -7.629  11.480  68.684  1.00  0.00    -0.128 NA 
HETATM   12  C   UNL     1      -7.316  13.760  67.928  1.00  0.00    -0.155 A  
HETATM   13  H   UNL     1      -6.639  11.255  68.578  1.00  0.00     0.000 HD 
HETATM   14  C   UNL     1      -8.527  10.579  69.378  1.00  0.00    -0.094 C  
HETATM   15  C   UNL     1      -7.793  14.937  67.323  1.00  0.00    -0.206 A  
HETATM   16  N   UNL     1      -9.523  10.172  68.419  1.00  0.00    -0.141 N  
HETATM   17 CL   UNL     1      -6.646  16.214  67.115  1.00  0.00    -0.227 Cl 
HETATM   18  O   UNL     1     -11.124  11.050  66.709  1.00  0.00    -0.261 OA 
HETATM   19  S   UNL     1     -10.565  11.407  67.993  1.00  0.00    -0.203 S  
HETATM   20  O   UNL     1     -11.386  11.717  69.140  1.00  0.00    -0.239 OA 
HETATM   21  H   UNL     1      -9.586   9.227  68.039  1.00  0.00     0.000 HD 
BRANCH  14  22
HETATM   22  C   UNL     1      -7.768   9.327  69.849  1.00  0.00    -0.101 C  
BRANCH  22  23
HETATM   23  C   UNL     1      -7.911   8.120  68.911  1.00  0.00    -0.114 C  
HETATM   24  C   UNL     1      -7.124   8.241  67.607  1.00  0.00    -0.083 C  
HETATM   25  C   UNL     1      -7.065   6.807  67.109  1.00  0.00    -0.079 C  
HETATM   26  C   UNL     1      -6.843   5.980  68.369  1.00  0.00    -0.074 C  
HETATM   27  C   UNL     1      -7.370   6.824  69.532  1.00  0.00    -0.091 C  
ENDBRANCH  22  23
ENDBRANCH  14  22
ENDBRANCH   2   7
TORSDOF 3
ENDMDL
MODEL      161
REMARK 921   NORMALIZED FREE ENERGY PREDICTED BY IDOCK:   -3.31 KCAL/MOL
REMARK 922        TOTAL FREE ENERGY PREDICTED BY IDOCK:   -4.12 KCAL/MOL
REMARK 923 INTER-LIGAND FREE ENERGY PREDICTED BY IDOCK:   -3.88 KCAL/MOL
REMARK 924 INTRA-LIGAND FREE ENERGY PREDICTED BY IDOCK:   -0.24 KCAL/MOL
REMARK 927      BINDING AFFINITY PREDICTED BY RF-SCORE:    0.00 PKD
ROOT
HETATM    1  N   UNL     1     -12.015   5.918  72.463  1.00  0.00    -0.497 N  
HETATM    2  S   UNL     1     -11.229   7.358  72.818  1.00  0.00    -0.315 S  
HETATM    3  H2  UNL     1     -12.994   5.793  72.207  1.00  0.00     0.000 HD 
HETATM    4  H1  UNL     1     -11.301   5.195  72.558  1.00  0.00     0.000 HD 
HETATM    5  O   UNL     1     -12.241   8.384  72.683  1.00  0.00    -0.380 OA 
HETATM    6  O   UNL     1     -10.504   7.167  74.043  1.00  0.00    -0.353 OA 
ENDROOT
BRANCH   2   7
HETATM    7  C   UNL     1     -10.080   7.512  71.486  1.00  0.00    -0.181 A  
HETATM    8  C   UNL     1     -10.329   8.460  70.488  1.00  0.00    -0.220 A  
HETATM    9  C   UNL     1      -9.426   8.583  69.424  1.00  0.00    -0.161 A  
HETATM   10  C   UNL     1      -8.272   7.803  69.321  1.00  0.00    -0.129 A  
HETATM   11  N   UNL     1      -7.321   7.996  68.319  1.00  0.00    -0.093 NA 
HETATM   12  C   UNL     1      -8.035   6.879  70.347  1.00  0.00    -0.114 A  
HETATM   13  H   UNL     1      -6.340   7.764  68.476  1.00  0.00     0.000 HD 
HETATM   14  C   UNL     1      -7.766   8.535  67.051  1.00  0.00    -0.092 C  
HETATM   15  C   UNL     1      -8.928   6.722  71.421  1.00  0.00    -0.142 A  
HETATM   16  N   UNL     1      -8.308   9.842  67.326  1.00  0.00    -0.121 N  
HETATM   17 CL   UNL     1      -8.512   5.527  72.600  1.00  0.00    -0.117 Cl 
HETATM   18  O   UNL     1      -9.888  11.071  68.826  1.00  0.00    -0.191 OA 
HETATM   19  S   UNL     1      -9.745   9.787  68.177  1.00  0.00    -0.147 S  
HETATM   20  O   UNL     1     -10.760   9.237  67.311  1.00  0.00    -0.268 OA 
HETATM   21  H   UNL     1      -7.861  10.710  67.031  1.00  0.00     0.000 HD 
BRANCH  14  22
HETATM   22  C   UNL     1      -6.573   8.698  66.093  1.00  0.00    -0.061 C  
BRANCH  22  23
HETATM   23  C   UNL     1      -6.554   7.684  64.940  1.00  0.00    -0.047 C  
HETATM   24  C   UNL     1      -5.715   6.437  65.214  1.00  0.00    -0.022 C  
HETATM   25  C   UNL     1      -6.218   5.451  64.174  1.00  0.00    -0.022 C  
HETATM   26  C   UNL     1      -7.722   5.687  64.129  1.00  0.00    -0.098 C  
HETATM   27  C   UNL     1      -7.947   7.113  64.634  1.00  0.00    -0.114 C  
ENDBRANCH  22  23
ENDBRANCH  14  22
ENDBRANCH   2   7
TORSDOF 3
ENDMDL
MODEL      162
REMARK 921   NORMALIZED FREE ENERGY PREDICTED BY IDOCK:   -3.26 KCAL/MOL
REMARK 922        TOTAL FREE ENERGY PREDICTED BY IDOCK:   -4.07 KCAL/MOL
REMARK 923 INTER-LIGAND FREE ENERGY PREDICTED BY IDOCK:   -5.53 KCAL/MOL
REMARK 924 INTRA-LIGAND FREE ENERGY PREDICTED BY IDOCK:    1.45 KCAL/MOL
REMARK 927      BINDING AFFINITY PREDICTED BY RF-SCORE:    0.00 PKD
ROOT
HETATM    1  N   UNL     1      -7.982   7.558  68.014  1.00  0.00    -0.121 N  
HETATM    2  S   UNL     1      -9.543   7.829  67.461  1.00  0.00    -0.156 S  
HETATM    3  H2  UNL     1      -7.179   7.238  67.472  1.00  0.00     0.000 HD 
HETATM    4  H1  UNL     1      -8.009   7.784  69.009  1.00  0.00     0.000 HD 
HETATM    5  O   UNL     1      -9.505   7.509  66.050  1.00  0.00    -0.085 OA 
HETATM    6  O   UNL     1     -10.444   7.167  68.362  1.00  0.00    -0.189 OA 
ENDROOT
BRANCH   2   7
HETATM    7  C   UNL     1      -9.723   9.576  67.646  1.00  0.00    -0.154 A  
HETATM    8  C   UNL     1     -10.307  10.306  66.605  1.00  0.00    -0.283 A  
HETATM    9  C   UNL     1     -10.447  11.694  66.741  1.00  0.00    -0.230 A  
HETATM   10  C   UNL     1     -10.036  12.384  67.883  1.00  0.00    -0.208 A  
HETATM   11  N   UNL     1     -10.268  13.747  68.062  1.00  0.00    -0.241 NA 
HETATM   12  C   UNL     1      -9.477  11.625  68.919  1.00  0.00     0.014 A  
HETATM   13  H   UNL     1     -10.375  14.144  68.996  1.00  0.00     0.000 HD 
HETATM   14  C   UNL     1     -10.355  14.585  66.883  1.00  0.00    -0.264 C  
HETATM   15  C   UNL     1      -9.311  10.233  68.809  1.00  0.00    -0.166 A  
HETATM   16  N   UNL     1     -11.473  14.100  66.114  1.00  0.00    -0.337 N  
HETATM   17 CL   UNL     1      -8.586   9.435  70.161  1.00  0.00    -0.207 Cl 
HETATM   18  O   UNL     1     -12.491  12.020  65.166  1.00  0.00    -0.425 OA 
HETATM   19  S   UNL     1     -11.193  12.602  65.428  1.00  0.00    -0.311 S  
HETATM   20  O   UNL     1     -10.190  12.758  64.401  1.00  0.00    -0.350 OA 
HETATM   21  H   UNL     1     -12.345  14.617  65.999  1.00  0.00     0.000 HD 
BRANCH  14  22
HETATM   22  C   UNL     1     -10.640  16.043  67.285  1.00  0.00    -0.313 C  
BRANCH  22  23
HETATM   23  C   UNL     1     -11.368  16.189  68.629  1.00  0.00    -0.365 C  
HETATM   24  C   UNL     1     -12.385  15.086  68.916  1.00  0.00    -0.023 C  
HETATM   25  C   UNL     1     -12.601  15.203  70.415  1.00  0.00    -0.405 C  
HETATM   26  C   UNL     1     -11.215  15.492  70.974  1.00  0.00    -0.419 C  
HETATM   27  C   UNL     1     -10.412  16.111  69.828  1.00  0.00    -0.286 C  
ENDBRANCH  22  23
ENDBRANCH  14  22
ENDBRANCH   2   7
TORSDOF 3
ENDMDL
MODEL      163
REMARK 921   NORMALIZED FREE ENERGY PREDICTED BY IDOCK:   -3.24 KCAL/MOL
REMARK 922        TOTAL FREE ENERGY PREDICTED BY IDOCK:   -4.05 KCAL/MOL
REMARK 923 INTER-LIGAND FREE ENERGY PREDICTED BY IDOCK:   -3.57 KCAL/MOL
REMARK 924 INTRA-LIGAND FREE ENERGY PREDICTED BY IDOCK:   -0.48 KCAL/MOL
REMARK 927      BINDING AFFINITY PREDICTED BY RF-SCORE:    0.00 PKD
ROOT
HETATM    1  N   UNL     1     -10.234  10.276  70.430  1.00  0.00    -0.399 N  
HETATM    2  S   UNL     1     -10.066  10.822  68.851  1.00  0.00    -0.207 S  
HETATM    3  H2  UNL     1     -11.058  10.351  71.027  1.00  0.00     0.000 HD 
HETATM    4  H1  UNL     1      -9.336   9.853  70.662  1.00  0.00     0.000 HD 
HETATM    5  O   UNL     1     -11.342  11.422  68.521  1.00  0.00    -0.221 OA 
HETATM    6  O   UNL     1      -8.839  11.565  68.777  1.00  0.00    -0.138 OA 
ENDROOT
BRANCH   2   7
HETATM    7  C   UNL     1      -9.888   9.322  67.938  1.00  0.00    -0.167 A  
HETATM    8  C   UNL     1      -9.820   8.112  68.637  1.00  0.00    -0.191 A  
HETATM    9  C   UNL     1      -9.671   6.918  67.920  1.00  0.00    -0.122 A  
HETATM   10  C   UNL     1      -9.600   6.880  66.526  1.00  0.00    -0.143 A  
HETATM   11  N   UNL     1      -9.557   5.685  65.808  1.00  0.00    -0.354 NA 
HETATM   12  C   UNL     1      -9.696   8.103  65.850  1.00  0.00     0.075 A  
HETATM   13  H   UNL     1      -9.930   5.629  64.859  1.00  0.00     0.000 HD 
HETATM   14  C   UNL     1      -8.967   4.526  66.445  1.00  0.00    -0.115 C  
HETATM   15  C   UNL     1      -9.832   9.321  66.541  1.00  0.00    -0.263 A  
HETATM   16  N   UNL     1      -9.765   4.247  67.612  1.00  0.00    -0.160 N  
HETATM   17 CL   UNL     1      -9.916  10.750  65.572  1.00  0.00    -0.302 Cl 
HETATM   18  O   UNL     1     -10.779   5.309  69.637  1.00  0.00    -0.273 OA 
HETATM   19  S   UNL     1      -9.596   5.399  68.811  1.00  0.00    -0.146 S  
HETATM   20  O   UNL     1      -8.261   5.293  69.350  1.00  0.00    -0.093 OA 
HETATM   21  H   UNL     1     -10.371   3.430  67.698  1.00  0.00     0.000 HD 
BRANCH  14  22
HETATM   22  C   UNL     1      -9.037   3.309  65.508  1.00  0.00    -0.150 C  
BRANCH  22  23
HETATM   23  C   UNL     1      -7.693   2.936  64.865  1.00  0.00    -0.077 C  
HETATM   24  C   UNL     1      -7.610   3.230  63.368  1.00  0.00    -0.063 C  
HETATM   25  C   UNL     1      -6.115   3.210  63.099  1.00  0.00    -0.014 C  
HETATM   26  C   UNL     1      -5.504   3.894  64.314  1.00  0.00    -0.013 C  
HETATM   27  C   UNL     1      -6.519   3.736  65.449  1.00  0.00    -0.032 C  
ENDBRANCH  22  23
ENDBRANCH  14  22
ENDBRANCH   2   7
TORSDOF 3
ENDMDL
MODEL      164
REMARK 921   NORMALIZED FREE ENERGY PREDICTED BY IDOCK:   -3.24 KCAL/MOL
REMARK 922        TOTAL FREE ENERGY PREDICTED BY IDOCK:   -4.05 KCAL/MOL
REMARK 923 INTER-LIGAND FREE ENERGY PREDICTED BY IDOCK:   -4.18 KCAL/MOL
REMARK 924 INTRA-LIGAND FREE ENERGY PREDICTED BY IDOCK:    0.14 KCAL/MOL
REMARK 927      BINDING AFFINITY PREDICTED BY RF-SCORE:    0.00 PKD
ROOT
HETATM    1  N   UNL     1     -10.990   4.774  73.458  1.00  0.00    -0.300 N  
HETATM    2  S   UNL     1     -10.343   6.209  72.876  1.00  0.00    -0.210 S  
HETATM    3  H2  UNL     1     -11.874   4.648  73.952  1.00  0.00     0.000 HD 
HETATM    4  H1  UNL     1     -10.310   4.055  73.210  1.00  0.00     0.000 HD 
HETATM    5  O   UNL     1     -11.308   7.229  73.228  1.00  0.00    -0.232 OA 
HETATM    6  O   UNL     1      -8.976   6.278  73.314  1.00  0.00    -0.130 OA 
ENDROOT
BRANCH   2   7
HETATM    7  C   UNL     1     -10.377   5.970  71.127  1.00  0.00    -0.214 A  
HETATM    8  C   UNL     1      -9.791   4.817  70.594  1.00  0.00    -0.292 A  
HETATM    9  C   UNL     1      -9.807   4.623  69.206  1.00  0.00    -0.190 A  
HETATM   10  C   UNL     1     -10.398   5.532  68.326  1.00  0.00    -0.173 A  
HETATM   11  N   UNL     1     -10.506   5.290  66.957  1.00  0.00    -0.242 NA 
HETATM   12  C   UNL     1     -10.999   6.665  68.889  1.00  0.00    -0.325 A  
HETATM   13  H   UNL     1     -11.269   5.693  66.411  1.00  0.00     0.000 HD 
HETATM   14  C   UNL     1      -9.506   4.450  66.331  1.00  0.00    -0.176 C  
HETATM   15  C   UNL     1     -10.988   6.896  70.276  1.00  0.00    -0.281 A  
HETATM   16  N   UNL     1      -9.601   3.157  66.960  1.00  0.00    -0.399 N  
HETATM   17 CL   UNL     1     -11.751   8.348  70.821  1.00  0.00    -0.259 Cl 
HETATM   18  O   UNL     1      -9.695   2.025  69.189  1.00  0.00    -0.052 OA 
HETATM   19  S   UNL     1      -9.075   3.162  68.546  1.00  0.00    -0.170 S  
HETATM   20  O   UNL     1      -7.647   3.372  68.545  1.00  0.00    -0.053 OA 
HETATM   21  H   UNL     1      -9.953   2.325  66.487  1.00  0.00     0.000 HD 
BRANCH  14  22
HETATM   22  C   UNL     1      -9.812   4.283  64.832  1.00  0.00    -0.184 C  
BRANCH  22  23
HETATM   23  C   UNL     1      -8.634   4.630  63.911  1.00  0.00    -0.132 C  
HETATM   24  C   UNL     1      -8.185   6.088  63.989  1.00  0.00    -0.043 C  
HETATM   25  C   UNL     1      -6.796   6.051  63.375  1.00  0.00    -0.040 C  
HETATM   26  C   UNL     1      -6.186   4.759  63.901  1.00  0.00    -0.022 C  
HETATM   27  C   UNL     1      -7.360   3.848  64.263  1.00  0.00    -0.066 C  
ENDBRANCH  22  23
ENDBRANCH  14  22
ENDBRANCH   2   7
TORSDOF 3
ENDMDL
MODEL      165
REMARK 921   NORMALIZED FREE ENERGY PREDICTED BY IDOCK:   -3.23 KCAL/MOL
REMARK 922        TOTAL FREE ENERGY PREDICTED BY IDOCK:   -4.03 KCAL/MOL
REMARK 923 INTER-LIGAND FREE ENERGY PREDICTED BY IDOCK:   -4.88 KCAL/MOL
REMARK 924 INTRA-LIGAND FREE ENERGY PREDICTED BY IDOCK:    0.85 KCAL/MOL
REMARK 927      BINDING AFFINITY PREDICTED BY RF-SCORE:    0.00 PKD
ROOT
HETATM    1  N   UNL     1     -11.238  11.720  65.822  1.00  0.00    -0.311 N  
HETATM    2  S   UNL     1     -10.938  11.553  67.465  1.00  0.00    -0.274 S  
HETATM    3  H2  UNL     1     -10.685  12.242  65.141  1.00  0.00     0.000 HD 
HETATM    4  H1  UNL     1     -12.091  11.187  65.652  1.00  0.00     0.000 HD 
HETATM    5  O   UNL     1      -9.728  12.309  67.707  1.00  0.00    -0.189 OA 
HETATM    6  O   UNL     1     -12.161  11.842  68.161  1.00  0.00    -0.507 OA 
ENDROOT
BRANCH   2   7
HETATM    7  C   UNL     1     -10.577   9.832  67.622  1.00  0.00    -0.276 A  
HETATM    8  C   UNL     1     -10.845   9.196  68.839  1.00  0.00    -0.099 A  
HETATM    9  C   UNL     1     -10.554   7.832  68.973  1.00  0.00    -0.166 A  
HETATM   10  C   UNL     1     -10.016   7.071  67.933  1.00  0.00    -0.154 A  
HETATM   11  N   UNL     1      -9.824   5.693  68.033  1.00  0.00    -0.126 NA 
HETATM   12  C   UNL     1      -9.781   7.727  66.718  1.00  0.00    -0.296 A  
HETATM   13  H   UNL     1      -9.855   5.098  67.204  1.00  0.00     0.000 HD 
HETATM   14  C   UNL     1      -9.577   5.131  69.345  1.00  0.00    -0.161 C  
HETATM   15  C   UNL     1     -10.049   9.098  66.555  1.00  0.00    -0.287 A  
HETATM   16  N   UNL     1     -10.744   5.416  70.141  1.00  0.00    -0.278 N  
HETATM   17 CL   UNL     1      -9.688   9.774  65.005  1.00  0.00    -0.355 Cl 
HETATM   18  O   UNL     1     -12.301   7.256  70.811  1.00  0.00    -0.278 OA 
HETATM   19  S   UNL     1     -10.905   7.039  70.507  1.00  0.00    -0.262 S  
HETATM   20  O   UNL     1      -9.845   7.400  71.419  1.00  0.00    -0.184 OA 
HETATM   21  H   UNL     1     -11.404   4.702  70.449  1.00  0.00     0.000 HD 
BRANCH  14  22
HETATM   22  C   UNL     1      -9.418   3.604  69.249  1.00  0.00    -0.244 C  
BRANCH  22  23
HETATM   23  C   UNL     1      -8.315   3.149  68.282  1.00  0.00    -0.094 C  
HETATM   24  C   UNL     1      -8.810   2.822  66.874  1.00  0.00    -0.154 C  
HETATM   25  C   UNL     1      -7.536   2.854  66.048  1.00  0.00    -0.077 C  
HETATM   26  C   UNL     1      -6.752   4.031  66.613  1.00  0.00    -0.050 C  
HETATM   27  C   UNL     1      -7.258   4.237  68.042  1.00  0.00    -0.064 C  
ENDBRANCH  22  23
ENDBRANCH  14  22
ENDBRANCH   2   7
TORSDOF 3
ENDMDL
MODEL      166
REMARK 921   NORMALIZED FREE ENERGY PREDICTED BY IDOCK:   -3.22 KCAL/MOL
REMARK 922        TOTAL FREE ENERGY PREDICTED BY IDOCK:   -4.02 KCAL/MOL
REMARK 923 INTER-LIGAND FREE ENERGY PREDICTED BY IDOCK:   -4.31 KCAL/MOL
REMARK 924 INTRA-LIGAND FREE ENERGY PREDICTED BY IDOCK:    0.28 KCAL/MOL
REMARK 927      BINDING AFFINITY PREDICTED BY RF-SCORE:    0.00 PKD
ROOT
HETATM    1  N   UNL     1      -7.545   7.489  73.387  1.00  0.00    -0.096 N  
HETATM    2  S   UNL     1      -7.294   7.094  71.775  1.00  0.00    -0.085 S  
HETATM    3  H2  UNL     1      -6.839   7.728  74.084  1.00  0.00     0.000 HD 
HETATM    4  H1  UNL     1      -8.555   7.440  73.519  1.00  0.00     0.000 HD 
HETATM    5  O   UNL     1      -5.860   7.164  71.588  1.00  0.00    -0.036 OA 
HETATM    6  O   UNL     1      -8.035   5.894  71.502  1.00  0.00    -0.110 OA 
ENDROOT
BRANCH   2   7
HETATM    7  C   UNL     1      -8.047   8.443  70.922  1.00  0.00    -0.110 A  
HETATM    8  C   UNL     1      -9.429   8.626  71.038  1.00  0.00    -0.261 A  
HETATM    9  C   UNL     1     -10.036   9.691  70.358  1.00  0.00    -0.271 A  
HETATM   10  C   UNL     1      -9.314  10.592  69.573  1.00  0.00    -0.064 A  
HETATM   11  N   UNL     1      -9.900  11.710  68.981  1.00  0.00    -0.416 NA 
HETATM   12  C   UNL     1      -7.928  10.400  69.494  1.00  0.00    -0.152 A  
HETATM   13  H   UNL     1      -9.354  12.553  68.797  1.00  0.00     0.000 HD 
HETATM   14  C   UNL     1     -11.304  11.641  68.634  1.00  0.00    -0.267 C  
HETATM   15  C   UNL     1      -7.291   9.334  70.153  1.00  0.00    -0.096 A  
HETATM   16  N   UNL     1     -12.023  11.435  69.866  1.00  0.00    -0.336 N  
HETATM   17 CL   UNL     1      -5.579   9.213  69.945  1.00  0.00    -0.032 Cl 
HETATM   18  O   UNL     1     -12.081  10.022  71.929  1.00  0.00    -0.327 OA 
HETATM   19  S   UNL     1     -11.776   9.918  70.520  1.00  0.00    -0.290 S  
HETATM   20  O   UNL     1     -12.408   8.948  69.658  1.00  0.00     1.088 OA 
HETATM   21  H   UNL     1     -12.622  12.142  70.294  1.00  0.00     0.000 HD 
BRANCH  14  22
HETATM   22  C   UNL     1     -11.768  12.974  68.021  1.00  0.00    -0.397 C  
BRANCH  22  23
HETATM   23  C   UNL     1     -11.314  13.186  66.569  1.00  0.00    -0.350 C  
HETATM   24  C   UNL     1     -12.346  12.773  65.522  1.00  0.00    -0.495 C  
HETATM   25  C   UNL     1     -11.863  13.481  64.268  1.00  0.00    -0.471 C  
HETATM   26  C   UNL     1     -11.389  14.841  64.762  1.00  0.00    -0.399 C  
HETATM   27  C   UNL     1     -11.049  14.663  66.244  1.00  0.00    -0.336 C  
ENDBRANCH  22  23
ENDBRANCH  14  22
ENDBRANCH   2   7
TORSDOF 3
ENDMDL
MODEL      167
REMARK 921   NORMALIZED FREE ENERGY PREDICTED BY IDOCK:   -3.19 KCAL/MOL
REMARK 922        TOTAL FREE ENERGY PREDICTED BY IDOCK:   -3.99 KCAL/MOL
REMARK 923 INTER-LIGAND FREE ENERGY PREDICTED BY IDOCK:   -3.66 KCAL/MOL
REMARK 924 INTRA-LIGAND FREE ENERGY PREDICTED BY IDOCK:   -0.33 KCAL/MOL
REMARK 927      BINDING AFFINITY PREDICTED BY RF-SCORE:    0.00 PKD
ROOT
HETATM    1  N   UNL     1      -9.605   8.421  72.776  1.00  0.00    -0.267 N  
HETATM    2  S   UNL     1      -9.965   8.959  71.227  1.00  0.00    -0.312 S  
HETATM    3  H2  UNL     1     -10.225   8.408  73.587  1.00  0.00     0.000 HD 
HETATM    4  H1  UNL     1      -8.635   8.110  72.731  1.00  0.00     0.000 HD 
HETATM    5  O   UNL     1     -11.342   9.401  71.291  1.00  0.00    -0.306 OA 
HETATM    6  O   UNL     1      -8.907   9.839  70.817  1.00  0.00    -0.155 OA 
ENDROOT
BRANCH   2   7
HETATM    7  C   UNL     1      -9.885   7.476  70.273  1.00  0.00    -0.183 A  
HETATM    8  C   UNL     1      -9.588   6.273  70.922  1.00  0.00    -0.192 A  
HETATM    9  C   UNL     1      -9.515   5.092  70.171  1.00  0.00    -0.168 A  
HETATM   10  C   UNL     1      -9.740   5.062  68.793  1.00  0.00    -0.161 A  
HETATM   11  N   UNL     1      -9.770   3.874  68.062  1.00  0.00    -0.117 NA 
HETATM   12  C   UNL     1     -10.059   6.277  68.172  1.00  0.00    -0.173 A  
HETATM   13  H   UNL     1     -10.331   3.794  67.214  1.00  0.00     0.000 HD 
HETATM   14  C   UNL     1      -8.981   2.758  68.542  1.00  0.00    -0.142 C  
HETATM   15  C   UNL     1     -10.127   7.481  68.895  1.00  0.00    -0.192 A  
HETATM   16  N   UNL     1      -9.493   2.422  69.846  1.00  0.00    -0.099 N  
HETATM   17 CL   UNL     1     -10.510   8.902  67.990  1.00  0.00    -0.274 Cl 
HETATM   18  O   UNL     1     -10.122   3.409  72.057  1.00  0.00    -0.164 OA 
HETATM   19  S   UNL     1      -9.151   3.581  71.000  1.00  0.00    -0.123 S  
HETATM   20  O   UNL     1      -7.728   3.567  71.243  1.00  0.00    -0.053 OA 
HETATM   21  H   UNL     1     -10.010   1.565  70.045  1.00  0.00     0.000 HD 
BRANCH  14  22
HETATM   22  C   UNL     1      -9.167   1.539  67.621  1.00  0.00    -0.165 C  
BRANCH  22  23
HETATM   23  C   UNL     1      -8.334   1.598  66.332  1.00  0.00    -0.090 C  
HETATM   24  C   UNL     1      -9.149   1.876  65.070  1.00  0.00    -0.123 C  
HETATM   25  C   UNL     1      -8.094   2.323  64.073  1.00  0.00    -0.081 C  
HETATM   26  C   UNL     1      -7.144   3.186  64.893  1.00  0.00    -0.058 C  
HETATM   27  C   UNL     1      -7.304   2.737  66.346  1.00  0.00    -0.067 C  
ENDBRANCH  22  23
ENDBRANCH  14  22
ENDBRANCH   2   7
TORSDOF 3
ENDMDL
MODEL      168
REMARK 921   NORMALIZED FREE ENERGY PREDICTED BY IDOCK:   -2.92 KCAL/MOL
REMARK 922        TOTAL FREE ENERGY PREDICTED BY IDOCK:   -3.67 KCAL/MOL
REMARK 923 INTER-LIGAND FREE ENERGY PREDICTED BY IDOCK:   -3.54 KCAL/MOL
REMARK 924 INTRA-LIGAND FREE ENERGY PREDICTED BY IDOCK:   -0.13 KCAL/MOL
REMARK 927      BINDING AFFINITY PREDICTED BY RF-SCORE:    0.00 PKD
ROOT
HETATM    1  N   UNL     1     -10.157  12.976  68.933  1.00  0.00    -0.438 N  
HETATM    2  S   UNL     1     -10.533  11.663  67.956  1.00  0.00    -0.202 S  
HETATM    3  H2  UNL     1     -10.806  13.568  69.451  1.00  0.00     0.000 HD 
HETATM    4  H1  UNL     1      -9.140  13.051  68.896  1.00  0.00     0.000 HD 
HETATM    5  O   UNL     1     -11.976  11.555  68.008  1.00  0.00    -0.595 OA 
HETATM    6  O   UNL     1      -9.831  11.831  66.714  1.00  0.00    -0.194 OA 
ENDROOT
BRANCH   2   7
HETATM    7  C   UNL     1      -9.827  10.307  68.839  1.00  0.00    -0.195 A  
HETATM    8  C   UNL     1      -8.617   9.768  68.390  1.00  0.00    -0.119 A  
HETATM    9  C   UNL     1      -8.054   8.687  69.081  1.00  0.00    -0.116 A  
HETATM   10  C   UNL     1      -8.646   8.127  70.214  1.00  0.00    -0.131 A  
HETATM   11  N   UNL     1      -8.036   7.120  70.962  1.00  0.00    -0.103 NA 
HETATM   12  C   UNL     1      -9.845   8.702  70.657  1.00  0.00    -0.220 A  
HETATM   13  H   UNL     1      -8.222   7.022  71.961  1.00  0.00     0.000 HD 
HETATM   14  C   UNL     1      -7.130   6.218  70.281  1.00  0.00    -0.074 C  
HETATM   15  C   UNL     1     -10.443   9.779  69.978  1.00  0.00    -0.270 A  
HETATM   16  N   UNL     1      -6.053   7.026  69.768  1.00  0.00    -0.026 N  
HETATM   17 CL   UNL     1     -11.932  10.368  70.629  1.00  0.00    -0.411 Cl 
HETATM   18  O   UNL     1      -5.563   9.101  68.460  1.00  0.00    -0.040 OA 
HETATM   19  S   UNL     1      -6.524   8.022  68.512  1.00  0.00    -0.055 S  
HETATM   20  O   UNL     1      -6.825   7.193  67.369  1.00  0.00    -0.065 OA 
HETATM   21  H   UNL     1      -5.101   6.993  70.133  1.00  0.00     0.000 HD 
BRANCH  14  22
HETATM   22  C   UNL     1      -6.542   5.202  71.276  1.00  0.00    -0.039 C  
BRANCH  22  23
HETATM   23  C   UNL     1      -6.768   3.736  70.878  1.00  0.00    -0.032 C  
HETATM   24  C   UNL     1      -8.206   3.251  71.060  1.00  0.00    -0.077 C  
HETATM   25  C   UNL     1      -8.254   1.996  70.205  1.00  0.00    -0.061 C  
HETATM   26  C   UNL     1      -7.439   2.352  68.969  1.00  0.00    -0.044 C  
HETATM   27  C   UNL     1      -6.494   3.480  69.389  1.00  0.00    -0.033 C  
ENDBRANCH  22  23
ENDBRANCH  14  22
ENDBRANCH   2   7
TORSDOF 3
ENDMDL
MODEL      169
REMARK 921   NORMALIZED FREE ENERGY PREDICTED BY IDOCK:   -2.91 KCAL/MOL
REMARK 922        TOTAL FREE ENERGY PREDICTED BY IDOCK:   -3.66 KCAL/MOL
REMARK 923 INTER-LIGAND FREE ENERGY PREDICTED BY IDOCK:   -5.10 KCAL/MOL
REMARK 924 INTRA-LIGAND FREE ENERGY PREDICTED BY IDOCK:    1.45 KCAL/MOL
REMARK 927      BINDING AFFINITY PREDICTED BY RF-SCORE:    0.00 PKD
ROOT
HETATM    1  N   UNL     1      -9.660   9.039  71.772  1.00  0.00    -0.273 N  
HETATM    2  S   UNL     1     -10.903   9.159  70.650  1.00  0.00    -0.287 S  
HETATM    3  H2  UNL     1      -9.021   8.256  71.907  1.00  0.00     0.000 HD 
HETATM    4  H1  UNL     1      -9.684   9.918  72.289  1.00  0.00     0.000 HD 
HETATM    5  O   UNL     1     -10.871   7.912  69.916  1.00  0.00    -0.247 OA 
HETATM    6  O   UNL     1     -12.079   9.595  71.349  1.00  0.00    -0.334 OA 
ENDROOT
BRANCH   2   7
HETATM    7  C   UNL     1     -10.347  10.459  69.592  1.00  0.00    -0.226 A  
HETATM    8  C   UNL     1     -11.171  11.573  69.404  1.00  0.00    -0.324 A  
HETATM    9  C   UNL     1     -10.740  12.605  68.560  1.00  0.00    -0.248 A  
HETATM   10  C   UNL     1      -9.508  12.575  67.902  1.00  0.00    -0.196 A  
HETATM   11  N   UNL     1      -9.034  13.646  67.145  1.00  0.00    -0.223 NA 
HETATM   12  C   UNL     1      -8.693  11.459  68.128  1.00  0.00    -0.154 A  
HETATM   13  H   UNL     1      -8.033  13.812  67.040  1.00  0.00     0.000 HD 
HETATM   14  C   UNL     1     -10.003  14.517  66.513  1.00  0.00    -0.280 C  
HETATM   15  C   UNL     1      -9.101  10.400  68.958  1.00  0.00    -0.187 A  
HETATM   16  N   UNL     1     -10.781  15.107  67.573  1.00  0.00    -0.278 N  
HETATM   17 CL   UNL     1      -7.997   9.080  69.123  1.00  0.00    -0.099 Cl 
HETATM   18  O   UNL     1     -12.072  14.557  69.644  1.00  0.00    -0.308 OA 
HETATM   19  S   UNL     1     -11.781  14.009  68.338  1.00  0.00    -0.369 S  
HETATM   20  O   UNL     1     -12.817  13.622  67.410  1.00  0.00     0.419 OA 
HETATM   21  H   UNL     1     -10.727  16.093  67.830  1.00  0.00     0.000 HD 
BRANCH  14  22
HETATM   22  C   UNL     1      -9.288  15.647  65.751  1.00  0.00    -0.303 C  
BRANCH  22  23
HETATM   23  C   UNL     1      -8.806  16.797  66.647  1.00  0.00    -0.286 C  
HETATM   24  C   UNL     1      -9.929  17.557  67.351  1.00  0.00    -0.315 C  
HETATM   25  C   UNL     1      -9.200  18.286  68.467  1.00  0.00    -0.335 C  
HETATM   26  C   UNL     1      -8.171  17.280  68.965  1.00  0.00    -0.096 C  
HETATM   27  C   UNL     1      -7.925  16.311  67.807  1.00  0.00    -0.154 C  
ENDBRANCH  22  23
ENDBRANCH  14  22
ENDBRANCH   2   7
TORSDOF 3
ENDMDL
MODEL      170
REMARK 921   NORMALIZED FREE ENERGY PREDICTED BY IDOCK:   -2.90 KCAL/MOL
REMARK 922        TOTAL FREE ENERGY PREDICTED BY IDOCK:   -3.64 KCAL/MOL
REMARK 923 INTER-LIGAND FREE ENERGY PREDICTED BY IDOCK:   -4.27 KCAL/MOL
REMARK 924 INTRA-LIGAND FREE ENERGY PREDICTED BY IDOCK:    0.62 KCAL/MOL
REMARK 927      BINDING AFFINITY PREDICTED BY RF-SCORE:    0.00 PKD
ROOT
HETATM    1  N   UNL     1      -6.665   8.851  62.462  1.00  0.00    -0.095 N  
HETATM    2  S   UNL     1      -8.262   8.477  62.818  1.00  0.00    -0.155 S  
HETATM    3  H2  UNL     1      -6.311   9.699  62.018  1.00  0.00     0.000 HD 
HETATM    4  H1  UNL     1      -6.125   8.048  62.786  1.00  0.00     0.000 HD 
HETATM    5  O   UNL     1      -9.029   9.616  62.359  1.00  0.00    -0.235 OA 
HETATM    6  O   UNL     1      -8.516   7.149  62.332  1.00  0.00    -0.059 OA 
ENDROOT
BRANCH   2   7
HETATM    7  C   UNL     1      -8.272   8.456  64.584  1.00  0.00    -0.154 A  
HETATM    8  C   UNL     1      -9.068   9.384  65.263  1.00  0.00    -0.287 A  
HETATM    9  C   UNL     1      -9.076   9.380  66.664  1.00  0.00    -0.149 A  
HETATM   10  C   UNL     1      -8.327   8.474  67.418  1.00  0.00    -0.120 A  
HETATM   11  N   UNL     1      -8.413   8.401  68.808  1.00  0.00    -0.123 NA 
HETATM   12  C   UNL     1      -7.558   7.540  66.712  1.00  0.00    -0.101 A  
HETATM   13  H   UNL     1      -8.236   7.524  69.300  1.00  0.00     0.000 HD 
HETATM   14  C   UNL     1      -8.762   9.604  69.535  1.00  0.00    -0.185 C  
HETATM   15  C   UNL     1      -7.518   7.527  65.307  1.00  0.00    -0.084 A  
HETATM   16  N   UNL     1     -10.076   9.991  69.086  1.00  0.00    -0.195 N  
HETATM   17 CL   UNL     1      -6.507   6.330  64.576  1.00  0.00    -0.033 Cl 
HETATM   18  O   UNL     1     -11.445  10.388  67.030  1.00  0.00    -0.189 OA 
HETATM   19  S   UNL     1     -10.090  10.546  67.510  1.00  0.00    -0.199 S  
HETATM   20  O   UNL     1      -9.396  11.811  67.473  1.00  0.00    -0.169 OA 
HETATM   21  H   UNL     1     -10.911   9.931  69.669  1.00  0.00     0.000 HD 
BRANCH  14  22
HETATM   22  C   UNL     1      -8.833   9.314  71.044  1.00  0.00    -0.205 C  
BRANCH  22  23
HETATM   23  C   UNL     1      -9.819   8.200  71.421  1.00  0.00    -0.223 C  
HETATM   24  C   UNL     1      -9.940   7.949  72.923  1.00  0.00    -0.360 C  
HETATM   25  C   UNL     1     -11.242   7.177  73.037  1.00  0.00    -0.279 C  
HETATM   26  C   UNL     1     -12.167   7.847  72.030  1.00  0.00    -0.357 C  
HETATM   27  C   UNL     1     -11.260   8.520  70.998  1.00  0.00    -0.312 C  
ENDBRANCH  22  23
ENDBRANCH  14  22
ENDBRANCH   2   7
TORSDOF 3
ENDMDL
MODEL      171
REMARK 921   NORMALIZED FREE ENERGY PREDICTED BY IDOCK:   -2.86 KCAL/MOL
REMARK 922        TOTAL FREE ENERGY PREDICTED BY IDOCK:   -3.60 KCAL/MOL
REMARK 923 INTER-LIGAND FREE ENERGY PREDICTED BY IDOCK:   -4.63 KCAL/MOL
REMARK 924 INTRA-LIGAND FREE ENERGY PREDICTED BY IDOCK:    1.03 KCAL/MOL
REMARK 927      BINDING AFFINITY PREDICTED BY RF-SCORE:    0.00 PKD
ROOT
HETATM    1  N   UNL     1      -5.969  19.752  69.636  1.00  0.00    -0.270 N  
HETATM    2  S   UNL     1      -6.470  19.915  68.042  1.00  0.00    -0.251 S  
HETATM    3  H2  UNL     1      -6.301  20.276  70.446  1.00  0.00     0.000 HD 
HETATM    4  H1  UNL     1      -5.263  19.016  69.619  1.00  0.00     0.000 HD 
HETATM    5  O   UNL     1      -7.472  20.960  68.066  1.00  0.00    -0.100 OA 
HETATM    6  O   UNL     1      -5.292  20.015  67.225  1.00  0.00    -0.159 OA 
ENDROOT
BRANCH   2   7
HETATM    7  C   UNL     1      -7.263  18.370  67.724  1.00  0.00    -0.223 A  
HETATM    8  C   UNL     1      -6.767  17.219  68.344  1.00  0.00    -0.181 A  
HETATM    9  C   UNL     1      -7.386  15.988  68.091  1.00  0.00    -0.127 A  
HETATM   10  C   UNL     1      -8.494  15.861  67.250  1.00  0.00    -0.184 A  
HETATM   11  N   UNL     1      -9.174  14.655  67.079  1.00  0.00    -0.227 NA 
HETATM   12  C   UNL     1      -8.985  17.034  66.662  1.00  0.00    -0.280 A  
HETATM   13  H   UNL     1     -10.168  14.641  66.848  1.00  0.00     0.000 HD 
HETATM   14  C   UNL     1      -8.429  13.423  67.240  1.00  0.00    -0.200 C  
HETATM   15  C   UNL     1      -8.378  18.282  66.885  1.00  0.00    -0.245 A  
HETATM   16  N   UNL     1      -7.948  13.407  68.599  1.00  0.00    -0.280 N  
HETATM   17 CL   UNL     1      -9.083  19.637  66.074  1.00  0.00    -0.350 Cl 
HETATM   18  O   UNL     1      -6.755  14.788  70.310  1.00  0.00    -0.174 OA 
HETATM   19  S   UNL     1      -6.759  14.545  68.885  1.00  0.00    -0.106 S  
HETATM   20  O   UNL     1      -5.575  14.148  68.161  1.00  0.00    -0.106 OA 
HETATM   21  H   UNL     1      -8.298  12.766  69.312  1.00  0.00     0.000 HD 
BRANCH  14  22
HETATM   22  C   UNL     1      -9.355  12.211  67.040  1.00  0.00    -0.201 C  
BRANCH  22  23
HETATM   23  C   UNL     1     -10.700  12.324  67.772  1.00  0.00    -0.246 C  
HETATM   24  C   UNL     1     -11.383  10.984  68.042  1.00  0.00    -0.374 C  
HETATM   25  C   UNL     1     -12.393  11.327  69.123  1.00  0.00    -0.115 C  
HETATM   26  C   UNL     1     -11.658  12.305  70.029  1.00  0.00    -0.236 C  
HETATM   27  C   UNL     1     -10.559  12.938  69.173  1.00  0.00     0.009 C  
ENDBRANCH  22  23
ENDBRANCH  14  22
ENDBRANCH   2   7
TORSDOF 3
ENDMDL
MODEL      172
REMARK 921   NORMALIZED FREE ENERGY PREDICTED BY IDOCK:   -2.85 KCAL/MOL
REMARK 922        TOTAL FREE ENERGY PREDICTED BY IDOCK:   -3.59 KCAL/MOL
REMARK 923 INTER-LIGAND FREE ENERGY PREDICTED BY IDOCK:   -3.54 KCAL/MOL
REMARK 924 INTRA-LIGAND FREE ENERGY PREDICTED BY IDOCK:   -0.05 KCAL/MOL
REMARK 927      BINDING AFFINITY PREDICTED BY RF-SCORE:    0.00 PKD
ROOT
HETATM    1  N   UNL     1      -9.848  13.349  65.868  1.00  0.00    -0.403 N  
HETATM    2  S   UNL     1      -9.188  13.672  67.378  1.00  0.00    -0.233 S  
HETATM    3  H2  UNL     1      -9.364  13.332  64.971  1.00  0.00     0.000 HD 
HETATM    4  H1  UNL     1     -10.838  13.175  66.043  1.00  0.00     0.000 HD 
HETATM    5  O   UNL     1      -7.783  13.920  67.130  1.00  0.00    -0.127 OA 
HETATM    6  O   UNL     1     -10.026  14.645  68.020  1.00  0.00    -0.215 OA 
ENDROOT
BRANCH   2   7
HETATM    7  C   UNL     1      -9.356  12.125  68.213  1.00  0.00    -0.198 A  
HETATM    8  C   UNL     1      -8.242  11.591  68.870  1.00  0.00    -0.019 A  
HETATM    9  C   UNL     1      -8.365  10.360  69.529  1.00  0.00    -0.113 A  
HETATM   10  C   UNL     1      -9.563   9.644  69.570  1.00  0.00    -0.198 A  
HETATM   11  N   UNL     1      -9.714   8.473  70.311  1.00  0.00    -0.169 NA 
HETATM   12  C   UNL     1     -10.668  10.215  68.925  1.00  0.00    -0.249 A  
HETATM   13  H   UNL     1     -10.623   8.204  70.689  1.00  0.00     0.000 HD 
HETATM   14  C   UNL     1      -8.543   7.648  70.530  1.00  0.00    -0.137 C  
HETATM   15  C   UNL     1     -10.575  11.441  68.243  1.00  0.00    -0.195 A  
HETATM   16  N   UNL     1      -7.604   8.455  71.268  1.00  0.00    -0.082 N  
HETATM   17 CL   UNL     1     -12.017  12.008  67.477  1.00  0.00    -0.261 Cl 
HETATM   18  O   UNL     1      -6.492  10.696  71.301  1.00  0.00    -0.193 OA 
HETATM   19  S   UNL     1      -6.959   9.701  70.361  1.00  0.00    -0.136 S  
HETATM   20  O   UNL     1      -6.104   9.125  69.350  1.00  0.00    -0.037 OA 
HETATM   21  H   UNL     1      -7.358   8.283  72.243  1.00  0.00     0.000 HD 
BRANCH  14  22
HETATM   22  C   UNL     1      -8.906   6.423  71.387  1.00  0.00    -0.138 C  
BRANCH  22  23
HETATM   23  C   UNL     1      -8.141   5.147  71.009  1.00  0.00    -0.103 C  
HETATM   24  C   UNL     1      -8.260   4.017  72.031  1.00  0.00    -0.088 C  
HETATM   25  C   UNL     1      -7.830   2.794  71.239  1.00  0.00    -0.044 C  
HETATM   26  C   UNL     1      -8.446   3.002  69.862  1.00  0.00    -0.094 C  
HETATM   27  C   UNL     1      -8.663   4.509  69.713  1.00  0.00    -0.111 C  
ENDBRANCH  22  23
ENDBRANCH  14  22
ENDBRANCH   2   7
TORSDOF 3
ENDMDL
MODEL      173
REMARK 921   NORMALIZED FREE ENERGY PREDICTED BY IDOCK:   -2.84 KCAL/MOL
REMARK 922        TOTAL FREE ENERGY PREDICTED BY IDOCK:   -3.57 KCAL/MOL
REMARK 923 INTER-LIGAND FREE ENERGY PREDICTED BY IDOCK:   -3.46 KCAL/MOL
REMARK 924 INTRA-LIGAND FREE ENERGY PREDICTED BY IDOCK:   -0.11 KCAL/MOL
REMARK 927      BINDING AFFINITY PREDICTED BY RF-SCORE:    0.00 PKD
ROOT
HETATM    1  N   UNL     1      -8.947  14.197  66.298  1.00  0.00    -0.490 N  
HETATM    2  S   UNL     1      -9.484  13.941  67.868  1.00  0.00    -0.219 S  
HETATM    3  H2  UNL     1      -8.289  14.907  65.977  1.00  0.00     0.000 HD 
HETATM    4  H1  UNL     1      -9.419  13.488  65.737  1.00  0.00     0.000 HD 
HETATM    5  O   UNL     1      -8.814  14.946  68.665  1.00  0.00    -0.167 OA 
HETATM    6  O   UNL     1     -10.917  13.841  67.826  1.00  0.00    -0.249 OA 
ENDROOT
BRANCH   2   7
HETATM    7  C   UNL     1      -8.807  12.358  68.258  1.00  0.00    -0.174 A  
HETATM    8  C   UNL     1      -9.657  11.248  68.277  1.00  0.00    -0.193 A  
HETATM    9  C   UNL     1      -9.129   9.989  68.593  1.00  0.00    -0.139 A  
HETATM   10  C   UNL     1      -7.777   9.791  68.880  1.00  0.00    -0.082 A  
HETATM   11  N   UNL     1      -7.231   8.525  69.092  1.00  0.00    -0.067 NA 
HETATM   12  C   UNL     1      -6.943  10.916  68.830  1.00  0.00    -0.078 A  
HETATM   13  H   UNL     1      -6.253   8.332  68.873  1.00  0.00     0.000 HD 
HETATM   14  C   UNL     1      -8.091   7.493  69.633  1.00  0.00    -0.127 C  
HETATM   15  C   UNL     1      -7.445  12.195  68.529  1.00  0.00    -0.117 A  
HETATM   16  N   UNL     1      -9.154   7.301  68.678  1.00  0.00    -0.134 N  
HETATM   17 CL   UNL     1      -6.299  13.490  68.526  1.00  0.00    -0.080 Cl 
HETATM   18  O   UNL     1     -10.856   8.525  67.314  1.00  0.00    -0.216 OA 
HETATM   19  S   UNL     1     -10.207   8.596  68.604  1.00  0.00    -0.192 S  
HETATM   20  O   UNL     1     -10.946   8.646  69.843  1.00  0.00    -0.234 OA 
HETATM   21  H   UNL     1      -9.253   6.461  68.108  1.00  0.00     0.000 HD 
BRANCH  14  22
HETATM   22  C   UNL     1      -7.317   6.170  69.768  1.00  0.00    -0.079 C  
BRANCH  22  23
HETATM   23  C   UNL     1      -8.110   4.934  69.321  1.00  0.00    -0.078 C  
HETATM   24  C   UNL     1      -7.294   3.923  68.516  1.00  0.00    -0.055 C  
HETATM   25  C   UNL     1      -8.136   2.661  68.601  1.00  0.00    -0.066 C  
HETATM   26  C   UNL     1      -8.659   2.653  70.031  1.00  0.00    -0.108 C  
HETATM   27  C   UNL     1      -8.631   4.107  70.505  1.00  0.00    -0.111 C  
ENDBRANCH  22  23
ENDBRANCH  14  22
ENDBRANCH   2   7
TORSDOF 3
ENDMDL
MODEL      174
REMARK 921   NORMALIZED FREE ENERGY PREDICTED BY IDOCK:   -2.61 KCAL/MOL
REMARK 922        TOTAL FREE ENERGY PREDICTED BY IDOCK:   -3.31 KCAL/MOL
REMARK 923 INTER-LIGAND FREE ENERGY PREDICTED BY IDOCK:   -4.49 KCAL/MOL
REMARK 924 INTRA-LIGAND FREE ENERGY PREDICTED BY IDOCK:    1.18 KCAL/MOL
REMARK 927      BINDING AFFINITY PREDICTED BY RF-SCORE:    0.00 PKD
ROOT
HETATM    1  N   UNL     1     -10.093   3.025  64.549  1.00  0.00    -0.355 N  
HETATM    2  S   UNL     1      -8.717   3.887  64.977  1.00  0.00    -0.120 S  
HETATM    3  H2  UNL     1     -10.197   2.012  64.494  1.00  0.00     0.000 HD 
HETATM    4  H1  UNL     1     -10.801   3.734  64.356  1.00  0.00     0.000 HD 
HETATM    5  O   UNL     1      -7.712   2.881  65.251  1.00  0.00    -0.079 OA 
HETATM    6  O   UNL     1      -8.517   4.906  63.985  1.00  0.00    -0.129 OA 
ENDROOT
BRANCH   2   7
HETATM    7  C   UNL     1      -9.193   4.647  66.498  1.00  0.00    -0.132 A  
HETATM    8  C   UNL     1      -9.273   6.042  66.557  1.00  0.00    -0.158 A  
HETATM    9  C   UNL     1      -9.642   6.654  67.762  1.00  0.00    -0.123 A  
HETATM   10  C   UNL     1      -9.949   5.925  68.913  1.00  0.00    -0.157 A  
HETATM   11  N   UNL     1     -10.416   6.527  70.081  1.00  0.00    -0.204 NA 
HETATM   12  C   UNL     1      -9.885   4.529  68.819  1.00  0.00    -0.180 A  
HETATM   13  H   UNL     1     -11.025   6.020  70.726  1.00  0.00     0.000 HD 
HETATM   14  C   UNL     1     -10.015   7.891  70.354  1.00  0.00    -0.192 C  
HETATM   15  C   UNL     1      -9.505   3.885  67.628  1.00  0.00    -0.185 A  
HETATM   16  N   UNL     1     -10.527   8.696  69.273  1.00  0.00    -0.222 N  
HETATM   17 CL   UNL     1      -9.450   2.157  67.670  1.00  0.00    -0.165 Cl 
HETATM   18  O   UNL     1     -10.655   8.838  66.779  1.00  0.00    -0.258 OA 
HETATM   19  S   UNL     1      -9.749   8.412  67.822  1.00  0.00    -0.170 S  
HETATM   20  O   UNL     1      -8.399   8.911  67.931  1.00  0.00    -0.116 OA 
HETATM   21  H   UNL     1     -11.286   9.369  69.383  1.00  0.00     0.000 HD 
BRANCH  14  22
HETATM   22  C   UNL     1     -10.651   8.382  71.666  1.00  0.00    -0.327 C  
BRANCH  22  23
HETATM   23  C   UNL     1     -10.560   7.373  72.820  1.00  0.00    -0.345 C  
HETATM   24  C   UNL     1     -10.312   5.933  72.377  1.00  0.00    -0.230 C  
HETATM   25  C   UNL     1      -9.824   5.263  73.650  1.00  0.00    -0.171 C  
HETATM   26  C   UNL     1      -8.926   6.305  74.303  1.00  0.00    -0.153 C  
HETATM   27  C   UNL     1      -9.382   7.662  73.763  1.00  0.00    -0.324 C  
ENDBRANCH  22  23
ENDBRANCH  14  22
ENDBRANCH   2   7
TORSDOF 3
ENDMDL
MODEL      175
REMARK 921   NORMALIZED FREE ENERGY PREDICTED BY IDOCK:   -2.54 KCAL/MOL
REMARK 922        TOTAL FREE ENERGY PREDICTED BY IDOCK:   -3.23 KCAL/MOL
REMARK 923 INTER-LIGAND FREE ENERGY PREDICTED BY IDOCK:   -4.59 KCAL/MOL
REMARK 924 INTRA-LIGAND FREE ENERGY PREDICTED BY IDOCK:    1.36 KCAL/MOL
REMARK 927      BINDING AFFINITY PREDICTED BY RF-SCORE:    0.00 PKD
ROOT
HETATM    1  N   UNL     1     -10.569  12.373  68.742  1.00  0.00    -0.328 N  
HETATM    2  S   UNL     1     -11.556  11.259  69.519  1.00  0.00    -0.360 S  
HETATM    3  H2  UNL     1     -10.264  13.281  69.092  1.00  0.00     0.000 HD 
HETATM    4  H1  UNL     1     -10.341  11.945  67.845  1.00  0.00     0.000 HD 
HETATM    5  O   UNL     1     -11.880  11.867  70.793  1.00  0.00    -0.213 OA 
HETATM    6  O   UNL     1     -12.576  10.860  68.590  1.00  0.00    -0.255 OA 
ENDROOT
BRANCH   2   7
HETATM    7  C   UNL     1     -10.465   9.900  69.797  1.00  0.00    -0.261 A  
HETATM    8  C   UNL     1     -10.252   9.464  71.109  1.00  0.00    -0.361 A  
HETATM    9  C   UNL     1      -9.381   8.391  71.339  1.00  0.00    -0.190 A  
HETATM   10  C   UNL     1      -8.721   7.723  70.305  1.00  0.00    -0.143 A  
HETATM   11  N   UNL     1      -7.936   6.591  70.523  1.00  0.00    -0.110 NA 
HETATM   12  C   UNL     1      -8.971   8.164  68.999  1.00  0.00    -0.144 A  
HETATM   13  H   UNL     1      -7.824   5.883  69.796  1.00  0.00     0.000 HD 
HETATM   14  C   UNL     1      -7.285   6.448  71.809  1.00  0.00    -0.087 C  
HETATM   15  C   UNL     1      -9.828   9.247  68.736  1.00  0.00    -0.165 A  
HETATM   16  N   UNL     1      -8.333   6.388  72.796  1.00  0.00    -0.118 N  
HETATM   17 CL   UNL     1     -10.022   9.691  67.077  1.00  0.00    -0.247 Cl 
HETATM   18  O   UNL     1     -10.421   7.533  73.562  1.00  0.00    -0.357 OA 
HETATM   19  S   UNL     1      -9.129   7.844  72.994  1.00  0.00    -0.265 S  
HETATM   20  O   UNL     1      -8.214   8.776  73.610  1.00  0.00    -0.366 OA 
HETATM   21  H   UNL     1      -8.565   5.544  73.321  1.00  0.00     0.000 HD 
BRANCH  14  22
HETATM   22  C   UNL     1      -6.493   5.130  71.862  1.00  0.00    -0.036 C  
BRANCH  22  23
HETATM   23  C   UNL     1      -7.363   3.873  71.717  1.00  0.00    -0.055 C  
HETATM   24  C   UNL     1      -8.102   3.470  72.992  1.00  0.00    -0.074 C  
HETATM   25  C   UNL     1      -9.185   2.537  72.479  1.00  0.00    -0.128 C  
HETATM   26  C   UNL     1      -9.653   3.181  71.181  1.00  0.00    -0.230 C  
HETATM   27  C   UNL     1      -8.494   4.053  70.694  1.00  0.00    -0.097 C  
ENDBRANCH  22  23
ENDBRANCH  14  22
ENDBRANCH   2   7
TORSDOF 3
ENDMDL
MODEL      176
REMARK 921   NORMALIZED FREE ENERGY PREDICTED BY IDOCK:   -2.52 KCAL/MOL
REMARK 922        TOTAL FREE ENERGY PREDICTED BY IDOCK:   -3.19 KCAL/MOL
REMARK 923 INTER-LIGAND FREE ENERGY PREDICTED BY IDOCK:   -3.43 KCAL/MOL
REMARK 924 INTRA-LIGAND FREE ENERGY PREDICTED BY IDOCK:    0.24 KCAL/MOL
REMARK 927      BINDING AFFINITY PREDICTED BY RF-SCORE:    0.00 PKD
ROOT
HETATM    1  N   UNL     1      -8.921  14.445  66.092  1.00  0.00    -0.481 N  
HETATM    2  S   UNL     1      -8.750  13.848  67.651  1.00  0.00    -0.201 S  
HETATM    3  H2  UNL     1      -8.213  14.917  65.528  1.00  0.00     0.000 HD 
HETATM    4  H1  UNL     1      -9.884  14.235  65.830  1.00  0.00     0.000 HD 
HETATM    5  O   UNL     1      -7.383  14.146  68.022  1.00  0.00    -0.109 OA 
HETATM    6  O   UNL     1      -9.865  14.323  68.423  1.00  0.00    -0.221 OA 
ENDROOT
BRANCH   2   7
HETATM    7  C   UNL     1      -8.911  12.105  67.419  1.00  0.00    -0.180 A  
HETATM    8  C   UNL     1      -7.919  11.263  67.933  1.00  0.00    -0.118 A  
HETATM    9  C   UNL     1      -8.036   9.879  67.746  1.00  0.00    -0.105 A  
HETATM   10  C   UNL     1      -9.114   9.298  67.075  1.00  0.00    -0.130 A  
HETATM   11  N   UNL     1      -9.283   7.917  66.979  1.00  0.00    -0.141 NA 
HETATM   12  C   UNL     1     -10.105  10.163  66.592  1.00  0.00    -0.283 A  
HETATM   13  H   UNL     1     -10.214   7.507  66.896  1.00  0.00     0.000 HD 
HETATM   14  C   UNL     1      -8.100   7.081  67.001  1.00  0.00    -0.117 C  
HETATM   15  C   UNL     1     -10.011  11.556  66.751  1.00  0.00    -0.208 A  
HETATM   16  N   UNL     1      -7.461   7.305  68.273  1.00  0.00    -0.100 N  
HETATM   17 CL   UNL     1     -11.300  12.496  66.084  1.00  0.00    -0.366 Cl 
HETATM   18  O   UNL     1      -6.672   9.105  69.820  1.00  0.00    -0.047 OA 
HETATM   19  S   UNL     1      -6.786   8.827  68.406  1.00  0.00    -0.065 S  
HETATM   20  O   UNL     1      -5.658   8.899  67.507  1.00  0.00    -0.038 OA 
HETATM   21  H   UNL     1      -7.425   6.606  69.016  1.00  0.00     0.000 HD 
BRANCH  14  22
HETATM   22  C   UNL     1      -8.495   5.597  66.912  1.00  0.00    -0.111 C  
BRANCH  22  23
HETATM   23  C   UNL     1      -8.172   4.787  68.176  1.00  0.00    -0.088 C  
HETATM   24  C   UNL     1      -8.940   3.472  68.293  1.00  0.00    -0.179 C  
HETATM   25  C   UNL     1      -8.137   2.698  69.324  1.00  0.00    -0.063 C  
HETATM   26  C   UNL     1      -6.686   3.012  68.985  1.00  0.00    -0.037 C  
HETATM   27  C   UNL     1      -6.702   4.345  68.234  1.00  0.00    -0.047 C  
ENDBRANCH  22  23
ENDBRANCH  14  22
ENDBRANCH   2   7
TORSDOF 3
ENDMDL
MODEL      177
REMARK 921   NORMALIZED FREE ENERGY PREDICTED BY IDOCK:   -2.30 KCAL/MOL
REMARK 922        TOTAL FREE ENERGY PREDICTED BY IDOCK:   -2.94 KCAL/MOL
REMARK 923 INTER-LIGAND FREE ENERGY PREDICTED BY IDOCK:   -2.96 KCAL/MOL
REMARK 924 INTRA-LIGAND FREE ENERGY PREDICTED BY IDOCK:    0.02 KCAL/MOL
REMARK 927      BINDING AFFINITY PREDICTED BY RF-SCORE:    0.00 PKD
ROOT
HETATM    1  N   UNL     1      -9.639   8.312  72.764  1.00  0.00    -0.275 N  
HETATM    2  S   UNL     1      -8.982   6.829  72.332  1.00  0.00    -0.133 S  
HETATM    3  H2  UNL     1      -9.264   8.985  73.432  1.00  0.00     0.000 HD 
HETATM    4  H1  UNL     1     -10.495   8.394  72.214  1.00  0.00     0.000 HD 
HETATM    5  O   UNL     1      -7.768   6.712  73.112  1.00  0.00    -0.095 OA 
HETATM    6  O   UNL     1     -10.030   5.849  72.412  1.00  0.00    -0.170 OA 
ENDROOT
BRANCH   2   7
HETATM    7  C   UNL     1      -8.550   7.074  70.638  1.00  0.00    -0.147 A  
HETATM    8  C   UNL     1      -9.345   6.486  69.648  1.00  0.00    -0.144 A  
HETATM    9  C   UNL     1      -9.005   6.670  68.301  1.00  0.00    -0.122 A  
HETATM   10  C   UNL     1      -7.905   7.431  67.900  1.00  0.00    -0.118 A  
HETATM   11  N   UNL     1      -7.626   7.700  66.560  1.00  0.00    -0.094 NA 
HETATM   12  C   UNL     1      -7.141   8.029  68.910  1.00  0.00    -0.067 A  
HETATM   13  H   UNL     1      -7.136   8.552  66.287  1.00  0.00     0.000 HD 
HETATM   14  C   UNL     1      -8.052   6.735  65.567  1.00  0.00    -0.128 C  
HETATM   15  C   UNL     1      -7.447   7.853  70.271  1.00  0.00    -0.077 A  
HETATM   16  N   UNL     1      -9.488   6.660  65.655  1.00  0.00    -0.326 N  
HETATM   17 CL   UNL     1      -6.401   8.634  71.404  1.00  0.00    -0.054 Cl 
HETATM   18  O   UNL     1     -11.376   6.385  67.273  1.00  0.00    -0.295 OA 
HETATM   19  S   UNL     1     -10.019   5.933  67.063  1.00  0.00    -0.185 S  
HETATM   20  O   UNL     1      -9.666   4.534  67.008  1.00  0.00    -0.176 OA 
HETATM   21  H   UNL     1     -10.116   7.013  64.933  1.00  0.00     0.000 HD 
BRANCH  14  22
HETATM   22  C   UNL     1      -7.678   7.222  64.156  1.00  0.00    -0.120 C  
BRANCH  22  23
HETATM   23  C   UNL     1      -7.258   6.098  63.198  1.00  0.00    -0.056 C  
HETATM   24  C   UNL     1      -5.824   5.609  63.395  1.00  0.00    -0.018 C  
HETATM   25  C   UNL     1      -5.821   4.265  62.688  1.00  0.00    -0.016 C  
HETATM   26  C   UNL     1      -7.171   3.653  63.037  1.00  0.00    -0.049 C  
HETATM   27  C   UNL     1      -8.095   4.823  63.382  1.00  0.00    -0.097 C  
ENDBRANCH  22  23
ENDBRANCH  14  22
ENDBRANCH   2   7
TORSDOF 3
ENDMDL
MODEL      178
REMARK 921   NORMALIZED FREE ENERGY PREDICTED BY IDOCK:   -2.22 KCAL/MOL
REMARK 922        TOTAL FREE ENERGY PREDICTED BY IDOCK:   -2.85 KCAL/MOL
REMARK 923 INTER-LIGAND FREE ENERGY PREDICTED BY IDOCK:   -3.10 KCAL/MOL
REMARK 924 INTRA-LIGAND FREE ENERGY PREDICTED BY IDOCK:    0.25 KCAL/MOL
REMARK 927      BINDING AFFINITY PREDICTED BY RF-SCORE:    0.00 PKD
ROOT
HETATM    1  N   UNL     1      -9.683   8.243  72.805  1.00  0.00    -0.277 N  
HETATM    2  S   UNL     1      -9.094   6.779  72.232  1.00  0.00    -0.130 S  
HETATM    3  H2  UNL     1      -9.306   8.807  73.566  1.00  0.00     0.000 HD 
HETATM    4  H1  UNL     1     -10.499   8.446  72.227  1.00  0.00     0.000 HD 
HETATM    5  O   UNL     1      -7.936   6.491  73.052  1.00  0.00    -0.104 OA 
HETATM    6  O   UNL     1     -10.202   5.870  72.142  1.00  0.00    -0.188 OA 
ENDROOT
BRANCH   2   7
HETATM    7  C   UNL     1      -8.551   7.190  70.603  1.00  0.00    -0.143 A  
HETATM    8  C   UNL     1      -9.273   6.701  69.509  1.00  0.00    -0.143 A  
HETATM    9  C   UNL     1      -8.845   7.017  68.213  1.00  0.00    -0.126 A  
HETATM   10  C   UNL     1      -7.726   7.814  67.963  1.00  0.00    -0.126 A  
HETATM   11  N   UNL     1      -7.359   8.214  66.678  1.00  0.00    -0.081 NA 
HETATM   12  C   UNL     1      -7.036   8.311  69.077  1.00  0.00    -0.061 A  
HETATM   13  H   UNL     1      -6.858   9.090  66.523  1.00  0.00     0.000 HD 
HETATM   14  C   UNL     1      -7.710   7.351  65.569  1.00  0.00    -0.107 C  
HETATM   15  C   UNL     1      -7.432   8.002  70.390  1.00  0.00    -0.075 A  
HETATM   16  N   UNL     1      -9.149   7.266  65.552  1.00  0.00    -0.378 N  
HETATM   17 CL   UNL     1      -6.470   8.669  71.662  1.00  0.00    -0.067 Cl 
HETATM   18  O   UNL     1     -11.139   6.832  67.003  1.00  0.00    -0.403 OA 
HETATM   19  S   UNL     1      -9.768   6.404  66.843  1.00  0.00    -0.159 S  
HETATM   20  O   UNL     1      -9.401   5.018  66.675  1.00  0.00    -0.127 OA 
HETATM   21  H   UNL     1      -9.729   7.688  64.827  1.00  0.00     0.000 HD 
BRANCH  14  22
HETATM   22  C   UNL     1      -7.246   7.974  64.241  1.00  0.00    -0.086 C  
BRANCH  22  23
HETATM   23  C   UNL     1      -7.859   9.351  63.949  1.00  0.00    -0.129 C  
HETATM   24  C   UNL     1      -7.061  10.197  62.959  1.00  0.00    -0.131 C  
HETATM   25  C   UNL     1      -8.067  11.244  62.515  1.00  0.00    -0.004 C  
HETATM   26  C   UNL     1      -9.377  10.478  62.388  1.00  0.00    -0.281 C  
HETATM   27  C   UNL     1      -9.245   9.252  63.294  1.00  0.00     0.228 C  
ENDBRANCH  22  23
ENDBRANCH  14  22
ENDBRANCH   2   7
TORSDOF 3
ENDMDL
MODEL      179
REMARK 921   NORMALIZED FREE ENERGY PREDICTED BY IDOCK:   -1.99 KCAL/MOL
REMARK 922        TOTAL FREE ENERGY PREDICTED BY IDOCK:   -2.58 KCAL/MOL
REMARK 923 INTER-LIGAND FREE ENERGY PREDICTED BY IDOCK:   -4.26 KCAL/MOL
REMARK 924 INTRA-LIGAND FREE ENERGY PREDICTED BY IDOCK:    1.68 KCAL/MOL
REMARK 927      BINDING AFFINITY PREDICTED BY RF-SCORE:    0.00 PKD
ROOT
HETATM    1  N   UNL     1      -6.654  13.937  67.215  1.00  0.00    -0.133 N  
HETATM    2  S   UNL     1      -8.074  13.878  68.109  1.00  0.00    -0.161 S  
HETATM    3  H2  UNL     1      -5.721  14.176  67.550  1.00  0.00     0.000 HD 
HETATM    4  H1  UNL     1      -6.927  13.683  66.266  1.00  0.00     0.000 HD 
HETATM    5  O   UNL     1      -7.687  14.239  69.456  1.00  0.00     0.033 OA 
HETATM    6  O   UNL     1      -9.073  14.615  67.386  1.00  0.00    -0.183 OA 
ENDROOT
BRANCH   2   7
HETATM    7  C   UNL     1      -8.485  12.162  68.073  1.00  0.00    -0.170 A  
HETATM    8  C   UNL     1      -7.917  11.314  69.030  1.00  0.00    -0.062 A  
HETATM    9  C   UNL     1      -8.231   9.949  69.004  1.00  0.00    -0.124 A  
HETATM   10  C   UNL     1      -9.104   9.395  68.064  1.00  0.00    -0.127 A  
HETATM   11  N   UNL     1      -9.498   8.058  68.101  1.00  0.00    -0.143 NA 
HETATM   12  C   UNL     1      -9.678  10.271  67.134  1.00  0.00    -0.210 A  
HETATM   13  H   UNL     1     -10.405   7.767  67.734  1.00  0.00     0.000 HD 
HETATM   14  C   UNL     1      -8.584   7.092  68.677  1.00  0.00    -0.124 C  
HETATM   15  C   UNL     1      -9.372  11.643  67.125  1.00  0.00    -0.174 A  
HETATM   16  N   UNL     1      -8.392   7.477  70.053  1.00  0.00    -0.134 N  
HETATM   17 CL   UNL     1     -10.141  12.595  65.903  1.00  0.00    -0.271 Cl 
HETATM   18  O   UNL     1      -7.846   9.427  71.522  1.00  0.00    -0.308 OA 
HETATM   19  S   UNL     1      -7.518   8.891  70.219  1.00  0.00    -0.085 S  
HETATM   20  O   UNL     1      -6.159   8.632  69.806  1.00  0.00    -0.034 OA 
HETATM   21  H   UNL     1      -8.751   6.941  70.843  1.00  0.00     0.000 HD 
BRANCH  14  22
HETATM   22  C   UNL     1      -9.208   5.686  68.650  1.00  0.00    -0.134 C  
BRANCH  22  23
HETATM   23  C   UNL     1     -10.299   5.466  69.708  1.00  0.00    -0.375 C  
HETATM   24  C   UNL     1      -9.848   5.745  71.142  1.00  0.00    -0.227 C  
HETATM   25  C   UNL     1     -11.162   5.899  71.888  1.00  0.00    -0.323 C  
HETATM   26  C   UNL     1     -12.055   6.668  70.925  1.00  0.00    -0.379 C  
HETATM   27  C   UNL     1     -11.497   6.408  69.524  1.00  0.00    -0.412 C  
ENDBRANCH  22  23
ENDBRANCH  14  22
ENDBRANCH   2   7
TORSDOF 3
ENDMDL
MODEL      180
REMARK 921   NORMALIZED FREE ENERGY PREDICTED BY IDOCK:   -1.90 KCAL/MOL
REMARK 922        TOTAL FREE ENERGY PREDICTED BY IDOCK:   -2.47 KCAL/MOL
REMARK 923 INTER-LIGAND FREE ENERGY PREDICTED BY IDOCK:   -2.44 KCAL/MOL
REMARK 924 INTRA-LIGAND FREE ENERGY PREDICTED BY IDOCK:   -0.03 KCAL/MOL
REMARK 927      BINDING AFFINITY PREDICTED BY RF-SCORE:    0.00 PKD
ROOT
HETATM    1  N   UNL     1     -10.014   7.974  72.573  1.00  0.00    -0.243 N  
HETATM    2  S   UNL     1      -8.940   6.691  72.713  1.00  0.00    -0.120 S  
HETATM    3  H2  UNL     1      -9.868   8.939  72.871  1.00  0.00     0.000 HD 
HETATM    4  H1  UNL     1     -10.841   7.581  72.125  1.00  0.00     0.000 HD 
HETATM    5  O   UNL     1      -7.765   7.249  73.348  1.00  0.00    -0.090 OA 
HETATM    6  O   UNL     1      -9.657   5.586  73.285  1.00  0.00    -0.145 OA 
ENDROOT
BRANCH   2   7
HETATM    7  C   UNL     1      -8.557   6.320  71.030  1.00  0.00    -0.132 A  
HETATM    8  C   UNL     1      -8.541   4.982  70.622  1.00  0.00    -0.125 A  
HETATM    9  C   UNL     1      -8.230   4.678  69.290  1.00  0.00    -0.076 A  
HETATM   10  C   UNL     1      -7.946   5.662  68.340  1.00  0.00    -0.100 A  
HETATM   11  N   UNL     1      -7.739   5.369  66.993  1.00  0.00    -0.099 NA 
HETATM   12  C   UNL     1      -7.994   6.995  68.770  1.00  0.00    -0.120 A  
HETATM   13  H   UNL     1      -7.960   6.051  66.267  1.00  0.00     0.000 HD 
HETATM   14  C   UNL     1      -7.200   4.068  66.653  1.00  0.00    -0.068 C  
HETATM   15  C   UNL     1      -8.289   7.332  70.103  1.00  0.00    -0.137 A  
HETATM   16  N   UNL     1      -8.153   3.092  67.119  1.00  0.00    -0.082 N  
HETATM   17 CL   UNL     1      -8.290   9.017  70.489  1.00  0.00    -0.178 Cl 
HETATM   18  O   UNL     1      -9.511   2.423  69.110  1.00  0.00    -0.140 OA 
HETATM   19  S   UNL     1      -8.222   2.990  68.785  1.00  0.00    -0.061 S  
HETATM   20  O   UNL     1      -6.981   2.418  69.252  1.00  0.00    -0.036 OA 
HETATM   21  H   UNL     1      -8.727   2.523  66.496  1.00  0.00     0.000 HD 
BRANCH  14  22
HETATM   22  C   UNL     1      -7.071   3.927  65.126  1.00  0.00    -0.066 C  
BRANCH  22  23
HETATM   23  C   UNL     1      -8.180   3.084  64.480  1.00  0.00    -0.086 C  
HETATM   24  C   UNL     1      -9.142   3.880  63.600  1.00  0.00    -0.122 C  
HETATM   25  C   UNL     1      -9.809   2.803  62.763  1.00  0.00    -0.092 C  
HETATM   26  C   UNL     1      -8.685   1.830  62.435  1.00  0.00    -0.072 C  
HETATM   27  C   UNL     1      -7.627   2.015  63.525  1.00  0.00    -0.055 C  
ENDBRANCH  22  23
ENDBRANCH  14  22
ENDBRANCH   2   7
TORSDOF 3
ENDMDL
MODEL      181
REMARK 921   NORMALIZED FREE ENERGY PREDICTED BY IDOCK:   -1.83 KCAL/MOL
REMARK 922        TOTAL FREE ENERGY PREDICTED BY IDOCK:   -2.39 KCAL/MOL
REMARK 923 INTER-LIGAND FREE ENERGY PREDICTED BY IDOCK:   -4.12 KCAL/MOL
REMARK 924 INTRA-LIGAND FREE ENERGY PREDICTED BY IDOCK:    1.73 KCAL/MOL
REMARK 927      BINDING AFFINITY PREDICTED BY RF-SCORE:    0.00 PKD
ROOT
HETATM    1  N   UNL     1      -6.655   9.248  64.058  1.00  0.00    -0.089 N  
HETATM    2  S   UNL     1      -8.132   8.461  63.925  1.00  0.00    -0.111 S  
HETATM    3  H2  UNL     1      -6.474  10.248  63.958  1.00  0.00     0.000 HD 
HETATM    4  H1  UNL     1      -5.979   8.512  64.260  1.00  0.00     0.000 HD 
HETATM    5  O   UNL     1      -9.092   9.506  63.639  1.00  0.00    -0.225 OA 
HETATM    6  O   UNL     1      -7.949   7.340  63.046  1.00  0.00    -0.134 OA 
ENDROOT
BRANCH   2   7
HETATM    7  C   UNL     1      -8.406   7.870  65.566  1.00  0.00    -0.147 A  
HETATM    8  C   UNL     1      -8.325   8.775  66.630  1.00  0.00    -0.108 A  
HETATM    9  C   UNL     1      -8.534   8.312  67.936  1.00  0.00    -0.132 A  
HETATM   10  C   UNL     1      -8.833   6.978  68.223  1.00  0.00    -0.126 A  
HETATM   11  N   UNL     1      -9.142   6.538  69.510  1.00  0.00    -0.140 NA 
HETATM   12  C   UNL     1      -8.931   6.099  67.137  1.00  0.00    -0.111 A  
HETATM   13  H   UNL     1      -9.753   5.733  69.657  1.00  0.00     0.000 HD 
HETATM   14  C   UNL     1      -8.572   7.255  70.632  1.00  0.00    -0.142 C  
HETATM   15  C   UNL     1      -8.714   6.529  65.816  1.00  0.00    -0.120 A  
HETATM   16  N   UNL     1      -9.072   8.604  70.555  1.00  0.00    -0.154 N  
HETATM   17 CL   UNL     1      -8.849   5.325  64.582  1.00  0.00    -0.093 Cl 
HETATM   18  O   UNL     1      -9.369  10.536  68.993  1.00  0.00    -0.183 OA 
HETATM   19  S   UNL     1      -8.441   9.462  69.268  1.00  0.00    -0.150 S  
HETATM   20  O   UNL     1      -7.039   9.693  69.525  1.00  0.00    -0.062 OA 
HETATM   21  H   UNL     1      -9.741   8.996  71.218  1.00  0.00     0.000 HD 
BRANCH  14  22
HETATM   22  C   UNL     1      -9.050   6.637  71.958  1.00  0.00    -0.139 C  
BRANCH  22  23
HETATM   23  C   UNL     1     -10.512   6.955  72.304  1.00  0.00    -0.233 C  
HETATM   24  C   UNL     1     -10.800   8.442  72.502  1.00  0.00    -0.375 C  
HETATM   25  C   UNL     1     -12.312   8.516  72.376  1.00  0.00    -0.424 C  
HETATM   26  C   UNL     1     -12.643   7.547  71.248  1.00  0.00    -0.345 C  
HETATM   27  C   UNL     1     -11.484   6.551  71.187  1.00  0.00    -0.380 C  
ENDBRANCH  22  23
ENDBRANCH  14  22
ENDBRANCH   2   7
TORSDOF 3
ENDMDL
MODEL      182
REMARK 921   NORMALIZED FREE ENERGY PREDICTED BY IDOCK:   -1.28 KCAL/MOL
REMARK 922        TOTAL FREE ENERGY PREDICTED BY IDOCK:   -1.74 KCAL/MOL
REMARK 923 INTER-LIGAND FREE ENERGY PREDICTED BY IDOCK:   -3.01 KCAL/MOL
REMARK 924 INTRA-LIGAND FREE ENERGY PREDICTED BY IDOCK:    1.27 KCAL/MOL
REMARK 927      BINDING AFFINITY PREDICTED BY RF-SCORE:    0.00 PKD
ROOT
HETATM    1  N   UNL     1      -9.008   7.829  65.104  1.00  0.00    -0.368 N  
HETATM    2  S   UNL     1      -7.407   7.751  65.602  1.00  0.00    -0.075 S  
HETATM    3  H2  UNL     1      -9.464   7.259  64.392  1.00  0.00     0.000 HD 
HETATM    4  H1  UNL     1      -9.426   8.569  65.669  1.00  0.00     0.000 HD 
HETATM    5  O   UNL     1      -6.813   6.701  64.802  1.00  0.00    -0.047 OA 
HETATM    6  O   UNL     1      -6.886   9.089  65.601  1.00  0.00    -0.074 OA 
ENDROOT
BRANCH   2   7
HETATM    7  C   UNL     1      -7.546   7.188  67.270  1.00  0.00    -0.104 A  
HETATM    8  C   UNL     1      -7.237   8.074  68.308  1.00  0.00    -0.093 A  
HETATM    9  C   UNL     1      -7.338   7.632  69.634  1.00  0.00    -0.089 A  
HETATM   10  C   UNL     1      -7.748   6.340  69.968  1.00  0.00    -0.101 A  
HETATM   11  N   UNL     1      -7.947   5.932  71.286  1.00  0.00    -0.111 NA 
HETATM   12  C   UNL     1      -8.074   5.481  68.910  1.00  0.00    -0.095 A  
HETATM   13  H   UNL     1      -8.622   5.201  71.513  1.00  0.00     0.000 HD 
HETATM   14  C   UNL     1      -7.170   6.576  72.325  1.00  0.00    -0.086 C  
HETATM   15  C   UNL     1      -7.971   5.889  67.568  1.00  0.00    -0.102 A  
HETATM   16  N   UNL     1      -7.520   7.973  72.296  1.00  0.00    -0.090 N  
HETATM   17 CL   UNL     1      -8.388   4.713  66.371  1.00  0.00    -0.107 Cl 
HETATM   18  O   UNL     1      -7.784   9.932  70.762  1.00  0.00    -0.293 OA 
HETATM   19  S   UNL     1      -6.956   8.759  70.933  1.00  0.00    -0.081 S  
HETATM   20  O   UNL     1      -5.516   8.830  71.019  1.00  0.00    -0.031 OA 
HETATM   21  H   UNL     1      -8.056   8.436  73.030  1.00  0.00     0.000 HD 
BRANCH  14  22
HETATM   22  C   UNL     1      -7.551   6.010  73.704  1.00  0.00    -0.096 C  
BRANCH  22  23
HETATM   23  C   UNL     1      -9.039   5.658  73.846  1.00  0.00    -0.126 C  
HETATM   24  C   UNL     1      -9.973   6.528  73.006  1.00  0.00    -0.185 C  
HETATM   25  C   UNL     1     -11.255   5.716  72.969  1.00  0.00    -0.319 C  
HETATM   26  C   UNL     1     -10.784   4.275  72.820  1.00  0.00    -0.217 C  
HETATM   27  C   UNL     1      -9.356   4.234  73.367  1.00  0.00    -0.119 C  
ENDBRANCH  22  23
ENDBRANCH  14  22
ENDBRANCH   2   7
TORSDOF 3
ENDMDL
MODEL      183
REMARK 921   NORMALIZED FREE ENERGY PREDICTED BY IDOCK:   -0.82 KCAL/MOL
REMARK 922        TOTAL FREE ENERGY PREDICTED BY IDOCK:   -1.20 KCAL/MOL
REMARK 923 INTER-LIGAND FREE ENERGY PREDICTED BY IDOCK:   -3.14 KCAL/MOL
REMARK 924 INTRA-LIGAND FREE ENERGY PREDICTED BY IDOCK:    1.94 KCAL/MOL
REMARK 927      BINDING AFFINITY PREDICTED BY RF-SCORE:    0.00 PKD
ROOT
HETATM    1  N   UNL     1     -11.749  15.504  72.074  1.00  0.00    -0.415 N  
HETATM    2  S   UNL     1     -12.699  15.009  70.781  1.00  0.00    -0.396 S  
HETATM    3  H2  UNL     1     -11.836  15.220  73.050  1.00  0.00     0.000 HD 
HETATM    4  H1  UNL     1     -11.068  16.148  71.673  1.00  0.00     0.000 HD 
HETATM    5  O   UNL     1     -13.666  14.095  71.351  1.00  0.00    -0.342 OA 
HETATM    6  O   UNL     1     -13.102  16.186  70.063  1.00  0.00     0.198 OA 
ENDROOT
BRANCH   2   7
HETATM    7  C   UNL     1     -11.560  14.092  69.792  1.00  0.00    -0.281 A  
HETATM    8  C   UNL     1     -11.395  12.726  70.047  1.00  0.00     0.059 A  
HETATM    9  C   UNL     1     -10.487  11.993  69.271  1.00  0.00     0.132 A  
HETATM   10  C   UNL     1      -9.744  12.567  68.238  1.00  0.00    -0.220 A  
HETATM   11  N   UNL     1      -8.919  11.817  67.399  1.00  0.00    -0.168 NA 
HETATM   12  C   UNL     1      -9.948  13.930  67.988  1.00  0.00    -0.241 A  
HETATM   13  H   UNL     1      -8.737  12.115  66.440  1.00  0.00     0.000 HD 
HETATM   14  C   UNL     1      -8.329  10.605  67.927  1.00  0.00    -0.120 C  
HETATM   15  C   UNL     1     -10.841  14.697  68.757  1.00  0.00    -0.255 A  
HETATM   16  N   UNL     1      -9.422   9.732  68.275  1.00  0.00    -0.139 N  
HETATM   17 CL   UNL     1     -10.970  16.371  68.344  1.00  0.00    -0.341 Cl 
HETATM   18  O   UNL     1     -11.598   9.653  69.507  1.00  0.00    -0.040 OA 
HETATM   19  S   UNL     1     -10.294  10.271  69.595  1.00  0.00    -0.236 S  
HETATM   20  O   UNL     1      -9.457  10.155  70.765  1.00  0.00     0.241 OA 
HETATM   21  H   UNL     1      -9.641   8.874  67.769  1.00  0.00     0.000 HD 
BRANCH  14  22
HETATM   22  C   UNL     1      -7.480   9.911  66.848  1.00  0.00    -0.092 C  
BRANCH  22  23
HETATM   23  C   UNL     1      -7.497   8.378  66.931  1.00  0.00    -0.087 C  
HETATM   24  C   UNL     1      -6.696   7.803  68.098  1.00  0.00    -0.067 C  
HETATM   25  C   UNL     1      -7.233   6.387  68.216  1.00  0.00    -0.085 C  
HETATM   26  C   UNL     1      -8.729   6.530  67.969  1.00  0.00    -0.116 C  
HETATM   27  C   UNL     1      -8.908   7.814  67.157  1.00  0.00    -0.130 C  
ENDBRANCH  22  23
ENDBRANCH  14  22
ENDBRANCH   2   7
TORSDOF 3
ENDMDL
MODEL      184
REMARK 921   NORMALIZED FREE ENERGY PREDICTED BY IDOCK:   -0.14 KCAL/MOL
REMARK 922        TOTAL FREE ENERGY PREDICTED BY IDOCK:   -0.40 KCAL/MOL
REMARK 923 INTER-LIGAND FREE ENERGY PREDICTED BY IDOCK:   -1.55 KCAL/MOL
REMARK 924 INTRA-LIGAND FREE ENERGY PREDICTED BY IDOCK:    1.15 KCAL/MOL
REMARK 927      BINDING AFFINITY PREDICTED BY RF-SCORE:    0.00 PKD
ROOT
HETATM    1  N   UNL     1      -6.941   8.640  62.512  1.00  0.00    -0.094 N  
HETATM    2  S   UNL     1      -8.290   8.174  63.397  1.00  0.00     0.099 S  
HETATM    3  H2  UNL     1      -6.813   9.506  61.988  1.00  0.00     0.000 HD 
HETATM    4  H1  UNL     1      -6.279   7.870  62.611  1.00  0.00     0.000 HD 
HETATM    5  O   UNL     1      -9.230   9.266  63.256  1.00  0.00    -0.066 OA 
HETATM    6  O   UNL     1      -8.624   6.833  63.006  1.00  0.00     0.183 OA 
ENDROOT
BRANCH   2   7
HETATM    7  C   UNL     1      -7.679   8.157  65.054  1.00  0.00    -0.113 A  
HETATM    8  C   UNL     1      -8.413   8.813  66.048  1.00  0.00    -0.144 A  
HETATM    9  C   UNL     1      -7.931   8.811  67.364  1.00  0.00    -0.098 A  
HETATM   10  C   UNL     1      -6.748   8.166  67.732  1.00  0.00    -0.065 A  
HETATM   11  N   UNL     1      -6.323   8.075  69.057  1.00  0.00    -0.039 NA 
HETATM   12  C   UNL     1      -6.047   7.496  66.721  1.00  0.00    -0.044 A  
HETATM   13  H   UNL     1      -5.752   7.290  69.372  1.00  0.00     0.000 HD 
HETATM   14  C   UNL     1      -6.714   9.126  69.973  1.00  0.00    -0.047 C  
HETATM   15  C   UNL     1      -6.496   7.491  65.388  1.00  0.00    -0.041 A  
HETATM   16  N   UNL     1      -8.154   9.110  70.028  1.00  0.00    -0.113 N  
HETATM   17 CL   UNL     1      -5.514   6.640  64.248  1.00  0.00    -0.026 Cl 
HETATM   18  O   UNL     1     -10.205   9.083  68.596  1.00  0.00    -0.194 OA 
HETATM   19  S   UNL     1      -8.868   9.632  68.610  1.00  0.00    -0.131 S  
HETATM   20  O   UNL     1      -8.607  11.045  68.470  1.00  0.00    -0.145 OA 
HETATM   21  H   UNL     1      -8.684   8.810  70.847  1.00  0.00     0.000 HD 
BRANCH  14  22
HETATM   22  C   UNL     1      -6.173   8.833  71.383  1.00  0.00    -0.059 C  
BRANCH  22  23
HETATM   23  C   UNL     1      -6.520   7.432  71.907  1.00  0.00    -0.043 C  
HETATM   24  C   UNL     1      -6.578   7.327  73.430  1.00  0.00    -0.065 C  
HETATM   25  C   UNL     1      -7.354   6.041  73.655  1.00  0.00    -0.089 C  
HETATM   26  C   UNL     1      -8.438   6.063  72.585  1.00  0.00    -0.118 C  
HETATM   27  C   UNL     1      -7.916   6.967  71.466  1.00  0.00    -0.104 C  
ENDBRANCH  22  23
ENDBRANCH  14  22
ENDBRANCH   2   7
TORSDOF 3
ENDMDL
MODEL      185
REMARK 921   NORMALIZED FREE ENERGY PREDICTED BY IDOCK:   -0.07 KCAL/MOL
REMARK 922        TOTAL FREE ENERGY PREDICTED BY IDOCK:   -0.32 KCAL/MOL
REMARK 923 INTER-LIGAND FREE ENERGY PREDICTED BY IDOCK:   -1.80 KCAL/MOL
REMARK 924 INTRA-LIGAND FREE ENERGY PREDICTED BY IDOCK:    1.48 KCAL/MOL
REMARK 927      BINDING AFFINITY PREDICTED BY RF-SCORE:    0.00 PKD
ROOT
HETATM    1  N   UNL     1     -11.474   5.922  65.814  1.00  0.00     0.387 N  
HETATM    2  S   UNL     1      -9.796   5.874  65.833  1.00  0.00     0.260 S  
HETATM    3  H2  UNL     1     -12.103   5.372  65.229  1.00  0.00     0.000 HD 
HETATM    4  H1  UNL     1     -11.728   6.619  66.513  1.00  0.00     0.000 HD 
HETATM    5  O   UNL     1      -9.435   4.884  64.840  1.00  0.00    -0.108 OA 
HETATM    6  O   UNL     1      -9.322   7.228  65.758  1.00  0.00     0.029 OA 
ENDROOT
BRANCH   2   7
HETATM    7  C   UNL     1      -9.444   5.227  67.438  1.00  0.00    -0.127 A  
HETATM    8  C   UNL     1      -9.233   6.122  68.493  1.00  0.00    -0.115 A  
HETATM    9  C   UNL     1      -8.946   5.617  69.768  1.00  0.00    -0.127 A  
HETATM   10  C   UNL     1      -8.873   4.248  70.036  1.00  0.00    -0.077 A  
HETATM   11  N   UNL     1      -8.690   3.744  71.324  1.00  0.00    -0.080 NA 
HETATM   12  C   UNL     1      -9.112   3.375  68.967  1.00  0.00    -0.205 A  
HETATM   13  H   UNL     1      -9.055   2.827  71.585  1.00  0.00     0.000 HD 
HETATM   14  C   UNL     1      -7.967   4.557  72.279  1.00  0.00    -0.097 C  
HETATM   15  C   UNL     1      -9.389   3.850  67.673  1.00  0.00    -0.189 A  
HETATM   16  N   UNL     1      -8.726   5.771  72.444  1.00  0.00    -0.128 N  
HETATM   17 CL   UNL     1      -9.642   2.653  66.451  1.00  0.00     0.114 Cl 
HETATM   18  O   UNL     1      -9.855   7.606  71.173  1.00  0.00    -0.173 OA 
HETATM   19  S   UNL     1      -8.692   6.752  71.091  1.00  0.00    -0.136 S  
HETATM   20  O   UNL     1      -7.354   7.273  70.947  1.00  0.00    -0.072 OA 
HETATM   21  H   UNL     1      -9.231   6.008  73.298  1.00  0.00     0.000 HD 
BRANCH  14  22
HETATM   22  C   UNL     1      -7.894   3.844  73.640  1.00  0.00    -0.083 C  
BRANCH  22  23
HETATM   23  C   UNL     1      -9.196   3.138  74.046  1.00  0.00    -0.096 C  
HETATM   24  C   UNL     1     -10.466   3.838  73.564  1.00  0.00    -0.259 C  
HETATM   25  C   UNL     1     -11.521   2.752  73.685  1.00  0.00    -0.202 C  
HETATM   26  C   UNL     1     -10.812   1.485  73.228  1.00  0.00    -0.232 C  
HETATM   27  C   UNL     1      -9.317   1.731  73.442  1.00  0.00    -0.081 C  
ENDBRANCH  22  23
ENDBRANCH  14  22
ENDBRANCH   2   7
TORSDOF 3
ENDMDL
MODEL      186
REMARK 921   NORMALIZED FREE ENERGY PREDICTED BY IDOCK:    0.30 KCAL/MOL
REMARK 922        TOTAL FREE ENERGY PREDICTED BY IDOCK:    0.12 KCAL/MOL
REMARK 923 INTER-LIGAND FREE ENERGY PREDICTED BY IDOCK:   -1.87 KCAL/MOL
REMARK 924 INTRA-LIGAND FREE ENERGY PREDICTED BY IDOCK:    1.99 KCAL/MOL
REMARK 927      BINDING AFFINITY PREDICTED BY RF-SCORE:    0.00 PKD
ROOT
HETATM    1  N   UNL     1     -10.057   2.999  64.453  1.00  0.00    -0.333 N  
HETATM    2  S   UNL     1      -8.423   3.342  64.628  1.00  0.00    -0.094 S  
HETATM    3  H2  UNL     1     -10.483   2.092  64.264  1.00  0.00     0.000 HD 
HETATM    4  H1  UNL     1     -10.531   3.894  64.576  1.00  0.00     0.000 HD 
HETATM    5  O   UNL     1      -7.750   2.072  64.453  1.00  0.00    -0.062 OA 
HETATM    6  O   UNL     1      -8.126   4.476  63.798  1.00  0.00    -0.089 OA 
ENDROOT
BRANCH   2   7
HETATM    7  C   UNL     1      -8.306   3.820  66.323  1.00  0.00    -0.105 A  
HETATM    8  C   UNL     1      -7.644   5.010  66.643  1.00  0.00    -0.088 A  
HETATM    9  C   UNL     1      -7.540   5.394  67.986  1.00  0.00    -0.081 A  
HETATM   10  C   UNL     1      -8.084   4.639  69.028  1.00  0.00    -0.077 A  
HETATM   11  N   UNL     1      -8.071   5.071  70.354  1.00  0.00    -0.084 NA 
HETATM   12  C   UNL     1      -8.763   3.465  68.678  1.00  0.00    -0.141 A  
HETATM   13  H   UNL     1      -8.798   4.778  71.008  1.00  0.00     0.000 HD 
HETATM   14  C   UNL     1      -6.998   5.947  70.777  1.00  0.00    -0.063 C  
HETATM   15  C   UNL     1      -8.873   3.046  67.340  1.00  0.00    -0.139 A  
HETATM   16  N   UNL     1      -7.105   7.144  69.982  1.00  0.00    -0.065 N  
HETATM   17 CL   UNL     1      -9.721   1.565  67.065  1.00  0.00     0.269 Cl 
HETATM   18  O   UNL     1      -7.348   7.962  67.630  1.00  0.00    -0.091 OA 
HETATM   19  S   UNL     1      -6.712   6.899  68.376  1.00  0.00    -0.070 S  
HETATM   20  O   UNL     1      -5.296   6.633  68.296  1.00  0.00    -0.010 OA 
HETATM   21  H   UNL     1      -7.392   8.048  70.360  1.00  0.00     0.000 HD 
BRANCH  14  22
HETATM   22  C   UNL     1      -7.174   6.331  72.256  1.00  0.00    -0.087 C  
BRANCH  22  23
HETATM   23  C   UNL     1      -7.994   5.320  73.071  1.00  0.00    -0.102 C  
HETATM   24  C   UNL     1      -8.793   4.331  72.224  1.00  0.00    -0.123 C  
HETATM   25  C   UNL     1      -9.114   3.220  73.208  1.00  0.00    -0.100 C  
HETATM   26  C   UNL     1      -7.845   3.071  74.036  1.00  0.00    -0.064 C  
HETATM   27  C   UNL     1      -7.112   4.411  73.940  1.00  0.00    -0.067 C  
ENDBRANCH  22  23
ENDBRANCH  14  22
ENDBRANCH   2   7
TORSDOF 3
ENDMDL
MODEL      187
REMARK 921   NORMALIZED FREE ENERGY PREDICTED BY IDOCK:    3.50 KCAL/MOL
REMARK 922        TOTAL FREE ENERGY PREDICTED BY IDOCK:    3.88 KCAL/MOL
REMARK 923 INTER-LIGAND FREE ENERGY PREDICTED BY IDOCK:    4.07 KCAL/MOL
REMARK 924 INTRA-LIGAND FREE ENERGY PREDICTED BY IDOCK:   -0.19 KCAL/MOL
REMARK 927      BINDING AFFINITY PREDICTED BY RF-SCORE:    0.00 PKD
ROOT
HETATM    1  N   UNL     1     -11.224  11.115  63.737  1.00  0.00    -0.480 N  
HETATM    2  S   UNL     1     -10.113  11.653  64.875  1.00  0.00    -0.269 S  
HETATM    3  H2  UNL     1     -11.106  11.079  62.724  1.00  0.00     0.000 HD 
HETATM    4  H1  UNL     1     -12.041  10.831  64.277  1.00  0.00     0.000 HD 
HETATM    5  O   UNL     1      -8.953  12.056  64.109  1.00  0.00     0.461 OA 
HETATM    6  O   UNL     1     -10.796  12.564  65.751  1.00  0.00    -0.265 OA 
ENDROOT
BRANCH   2   7
HETATM    7  C   UNL     1      -9.725  10.179  65.766  1.00  0.00    -0.245 A  
HETATM    8  C   UNL     1      -8.390   9.765  65.834  1.00  0.00    -0.128 A  
HETATM    9  C   UNL     1      -8.074   8.593  66.533  1.00  0.00    -0.103 A  
HETATM   10  C   UNL     1      -9.040   7.819  67.180  1.00  0.00    -0.134 A  
HETATM   11  N   UNL     1      -8.715   6.710  67.961  1.00  0.00    -0.118 NA 
HETATM   12  C   UNL     1     -10.365   8.269  67.117  1.00  0.00    -0.387 A  
HETATM   13  H   UNL     1      -9.308   6.426  68.742  1.00  0.00     0.000 HD 
HETATM   14  C   UNL     1      -7.512   5.973  67.634  1.00  0.00    -0.078 C  
HETATM   15  C   UNL     1     -10.717   9.434  66.412  1.00  0.00     0.148 A  
HETATM   16  N   UNL     1      -6.411   6.892  67.788  1.00  0.00    -0.048 N  
HETATM   17 CL   UNL     1     -12.394   9.853  66.404  1.00  0.00     6.294 Cl 
HETATM   18  O   UNL     1      -5.624   9.184  67.169  1.00  0.00    -0.040 OA 
HETATM   19  S   UNL     1      -6.389   8.087  66.621  1.00  0.00    -0.055 S  
HETATM   20  O   UNL     1      -6.068   7.472  65.355  1.00  0.00    -0.037 OA 
HETATM   21  H   UNL     1      -5.718   6.819  68.533  1.00  0.00     0.000 HD 
BRANCH  14  22
HETATM   22  C   UNL     1      -7.314   4.810  68.621  1.00  0.00    -0.065 C  
BRANCH  22  23
HETATM   23  C   UNL     1      -7.406   5.221  70.097  1.00  0.00    -0.067 C  
HETATM   24  C   UNL     1      -8.660   4.719  70.811  1.00  0.00    -0.122 C  
HETATM   25  C   UNL     1      -8.295   4.854  72.279  1.00  0.00    -0.120 C  
HETATM   26  C   UNL     1      -6.835   4.424  72.345  1.00  0.00    -0.055 C  
HETATM   27  C   UNL     1      -6.262   4.642  70.943  1.00  0.00    -0.019 C  
ENDBRANCH  22  23
ENDBRANCH  14  22
ENDBRANCH   2   7
TORSDOF 3
ENDMDL
MODEL      188
REMARK 921   NORMALIZED FREE ENERGY PREDICTED BY IDOCK:    3.97 KCAL/MOL
REMARK 922        TOTAL FREE ENERGY PREDICTED BY IDOCK:    4.42 KCAL/MOL
REMARK 923 INTER-LIGAND FREE ENERGY PREDICTED BY IDOCK:    2.87 KCAL/MOL
REMARK 924 INTRA-LIGAND FREE ENERGY PREDICTED BY IDOCK:    1.56 KCAL/MOL
REMARK 927      BINDING AFFINITY PREDICTED BY RF-SCORE:    0.00 PKD
ROOT
HETATM    1  N   UNL     1     -11.758   4.158  65.997  1.00  0.00     2.271 N  
HETATM    2  S   UNL     1     -10.188   4.213  65.405  1.00  0.00    -0.126 S  
HETATM    3  H2  UNL     1     -12.088   3.678  66.834  1.00  0.00     0.000 HD 
HETATM    4  H1  UNL     1     -12.309   4.709  65.339  1.00  0.00     0.000 HD 
HETATM    5  O   UNL     1      -9.405   3.431  66.339  1.00  0.00    -0.170 OA 
HETATM    6  O   UNL     1     -10.240   3.892  64.006  1.00  0.00    -0.199 OA 
ENDROOT
BRANCH   2   7
HETATM    7  C   UNL     1      -9.762   5.917  65.590  1.00  0.00     0.296 A  
HETATM    8  C   UNL     1     -10.295   6.630  66.670  1.00  0.00    -0.215 A  
HETATM    9  C   UNL     1      -9.968   7.984  66.819  1.00  0.00    -0.274 A  
HETATM   10  C   UNL     1      -9.117   8.656  65.938  1.00  0.00    -0.205 A  
HETATM   11  N   UNL     1      -8.710   9.973  66.144  1.00  0.00    -0.138 NA 
HETATM   12  C   UNL     1      -8.579   7.911  64.881  1.00  0.00     0.031 A  
HETATM   13  H   UNL     1      -7.811  10.306  65.792  1.00  0.00     0.000 HD 
HETATM   14  C   UNL     1      -9.597  10.857  66.873  1.00  0.00    -0.178 C  
HETATM   15  C   UNL     1      -8.898   6.554  64.695  1.00  0.00     0.488 A  
HETATM   16  N   UNL     1      -9.754  10.290  68.189  1.00  0.00    -0.142 N  
HETATM   17 CL   UNL     1      -8.174   5.773  63.333  1.00  0.00    -0.106 Cl 
HETATM   18  O   UNL     1     -10.276   8.162  69.395  1.00  0.00    -0.201 OA 
HETATM   19  S   UNL     1     -10.636   8.871  68.188  1.00  0.00    -0.105 S  
HETATM   20  O   UNL     1     -12.003   9.191  67.854  1.00  0.00     1.860 OA 
HETATM   21  H   UNL     1      -9.367  10.711  69.033  1.00  0.00     0.000 HD 
BRANCH  14  22
HETATM   22  C   UNL     1      -8.962  12.250  67.018  1.00  0.00    -0.204 C  
BRANCH  22  23
HETATM   23  C   UNL     1      -7.428  12.233  67.084  1.00  0.00    -0.113 C  
HETATM   24  C   UNL     1      -6.860  11.524  68.312  1.00  0.00    -0.066 C  
HETATM   25  C   UNL     1      -5.418  11.255  67.915  1.00  0.00    -0.043 C  
HETATM   26  C   UNL     1      -5.500  10.859  66.447  1.00  0.00    -0.103 C  
HETATM   27  C   UNL     1      -6.796  11.470  65.910  1.00  0.00     0.511 C  
ENDBRANCH  22  23
ENDBRANCH  14  22
ENDBRANCH   2   7
TORSDOF 3
ENDMDL
MODEL      189
REMARK 921   NORMALIZED FREE ENERGY PREDICTED BY IDOCK:    4.37 KCAL/MOL
REMARK 922        TOTAL FREE ENERGY PREDICTED BY IDOCK:    4.90 KCAL/MOL
REMARK 923 INTER-LIGAND FREE ENERGY PREDICTED BY IDOCK:    4.33 KCAL/MOL
REMARK 924 INTRA-LIGAND FREE ENERGY PREDICTED BY IDOCK:    0.57 KCAL/MOL
REMARK 927      BINDING AFFINITY PREDICTED BY RF-SCORE:    0.00 PKD
ROOT
HETATM    1  N   UNL     1      -8.031   7.812  63.424  1.00  0.00    -0.228 N  
HETATM    2  S   UNL     1      -9.282   7.532  64.508  1.00  0.00     1.776 S  
HETATM    3  H2  UNL     1      -7.776   8.699  62.989  1.00  0.00     0.000 HD 
HETATM    4  H1  UNL     1      -7.583   6.905  63.295  1.00  0.00     0.000 HD 
HETATM    5  O   UNL     1      -9.919   8.819  64.691  1.00  0.00     1.217 OA 
HETATM    6  O   UNL     1     -10.012   6.386  64.042  1.00  0.00     3.131 OA 
ENDROOT
BRANCH   2   7
HETATM    7  C   UNL     1      -8.423   7.105  65.990  1.00  0.00    -0.145 A  
HETATM    8  C   UNL     1      -8.897   7.600  67.210  1.00  0.00    -0.122 A  
HETATM    9  C   UNL     1      -8.216   7.272  68.389  1.00  0.00    -0.125 A  
HETATM   10  C   UNL     1      -7.084   6.455  68.403  1.00  0.00    -0.083 A  
HETATM   11  N   UNL     1      -6.468   6.044  69.585  1.00  0.00    -0.040 NA 
HETATM   12  C   UNL     1      -6.646   5.952  67.171  1.00  0.00    -0.056 A  
HETATM   13  H   UNL     1      -5.961   5.159  69.632  1.00  0.00     0.000 HD 
HETATM   14  C   UNL     1      -6.568   6.907  70.743  1.00  0.00    -0.052 C  
HETATM   15  C   UNL     1      -7.299   6.274  65.968  1.00  0.00    -0.080 A  
HETATM   16  N   UNL     1      -7.971   7.016  71.056  1.00  0.00    -0.100 N  
HETATM   17 CL   UNL     1      -6.630   5.596  64.524  1.00  0.00    -0.044 Cl 
HETATM   18  O   UNL     1     -10.210   7.490  70.045  1.00  0.00    -0.206 OA 
HETATM   19  S   UNL     1      -8.827   7.894  69.921  1.00  0.00    -0.141 S  
HETATM   20  O   UNL     1      -8.410   9.273  70.011  1.00  0.00    -0.132 OA 
HETATM   21  H   UNL     1      -8.397   6.601  71.885  1.00  0.00     0.000 HD 
BRANCH  14  22
HETATM   22  C   UNL     1      -5.852   6.271  71.947  1.00  0.00    -0.036 C  
BRANCH  22  23
HETATM   23  C   UNL     1      -6.289   4.829  72.242  1.00  0.00    -0.033 C  
HETATM   24  C   UNL     1      -5.407   4.100  73.255  1.00  0.00    -0.003 C  
HETATM   25  C   UNL     1      -6.278   2.936  73.692  1.00  0.00    -0.012 C  
HETATM   26  C   UNL     1      -7.677   3.528  73.789  1.00  0.00    -0.066 C  
HETATM   27  C   UNL     1      -7.687   4.754  72.873  1.00  0.00    -0.092 C  
ENDBRANCH  22  23
ENDBRANCH  14  22
ENDBRANCH   2   7
TORSDOF 3
ENDMDL
MODEL      190
REMARK 921   NORMALIZED FREE ENERGY PREDICTED BY IDOCK:    6.10 KCAL/MOL
REMARK 922        TOTAL FREE ENERGY PREDICTED BY IDOCK:    6.93 KCAL/MOL
REMARK 923 INTER-LIGAND FREE ENERGY PREDICTED BY IDOCK:    4.91 KCAL/MOL
REMARK 924 INTRA-LIGAND FREE ENERGY PREDICTED BY IDOCK:    2.02 KCAL/MOL
REMARK 927      BINDING AFFINITY PREDICTED BY RF-SCORE:    0.00 PKD
ROOT
HETATM    1  N   UNL     1     -11.719   6.117  65.433  1.00  0.00     2.646 N  
HETATM    2  S   UNL     1     -10.081   5.880  65.156  1.00  0.00     1.636 S  
HETATM    3  H2  UNL     1     -12.499   5.625  64.997  1.00  0.00     0.000 HD 
HETATM    4  H1  UNL     1     -11.766   6.859  66.132  1.00  0.00     0.000 HD 
HETATM    5  O   UNL     1     -10.014   4.828  64.164  1.00  0.00     0.172 OA 
HETATM    6  O   UNL     1      -9.487   7.169  64.932  1.00  0.00     1.071 OA 
ENDROOT
BRANCH   2   7
HETATM    7  C   UNL     1      -9.513   5.244  66.702  1.00  0.00    -0.144 A  
HETATM    8  C   UNL     1      -8.297   4.552  66.739  1.00  0.00    -0.105 A  
HETATM    9  C   UNL     1      -7.843   4.038  67.961  1.00  0.00    -0.077 A  
HETATM   10  C   UNL     1      -8.551   4.197  69.154  1.00  0.00    -0.082 A  
HETATM   11  N   UNL     1      -8.051   3.775  70.386  1.00  0.00    -0.053 NA 
HETATM   12  C   UNL     1      -9.752   4.914  69.092  1.00  0.00    -0.252 A  
HETATM   13  H   UNL     1      -8.321   4.246  71.251  1.00  0.00     0.000 HD 
HETATM   14  C   UNL     1      -7.137   2.651  70.404  1.00  0.00    -0.033 C  
HETATM   15  C   UNL     1     -10.242   5.432  67.880  1.00  0.00    -0.165 A  
HETATM   16  N   UNL     1      -5.985   3.045  69.633  1.00  0.00    -0.023 N  
HETATM   17 CL   UNL     1     -11.749   6.276  67.956  1.00  0.00     0.617 Cl 
HETATM   18  O   UNL     1      -5.294   4.051  67.449  1.00  0.00    -0.011 OA 
HETATM   19  S   UNL     1      -6.306   3.177  67.999  1.00  0.00    -0.033 S  
HETATM   20  O   UNL     1      -6.554   1.852  67.481  1.00  0.00    -0.028 OA 
HETATM   21  H   UNL     1      -5.068   3.224  70.042  1.00  0.00     0.000 HD 
BRANCH  14  22
HETATM   22  C   UNL     1      -6.679   2.359  71.844  1.00  0.00    -0.018 C  
BRANCH  22  23
HETATM   23  C   UNL     1      -6.081   3.574  72.568  1.00  0.00    -0.009 C  
HETATM   24  C   UNL     1      -6.503   4.922  71.986  1.00  0.00    -0.035 C  
HETATM   25  C   UNL     1      -6.172   5.895  73.105  1.00  0.00    -0.058 C  
HETATM   26  C   UNL     1      -6.568   5.155  74.376  1.00  0.00    -0.071 C  
HETATM   27  C   UNL     1      -6.527   3.665  74.034  1.00  0.00    -0.037 C  
ENDBRANCH  22  23
ENDBRANCH  14  22
ENDBRANCH   2   7
TORSDOF 3
ENDMDL
MODEL      191
REMARK 921   NORMALIZED FREE ENERGY PREDICTED BY IDOCK:    7.27 KCAL/MOL
REMARK 922        TOTAL FREE ENERGY PREDICTED BY IDOCK:    8.31 KCAL/MOL
REMARK 923 INTER-LIGAND FREE ENERGY PREDICTED BY IDOCK:    6.21 KCAL/MOL
REMARK 924 INTRA-LIGAND FREE ENERGY PREDICTED BY IDOCK:    2.10 KCAL/MOL
REMARK 927      BINDING AFFINITY PREDICTED BY RF-SCORE:    0.00 PKD
ROOT
HETATM    1  N   UNL     1     -11.983   6.253  65.271  1.00  0.00     4.145 N  
HETATM    2  S   UNL     1     -10.306   6.290  65.339  1.00  0.00     2.214 S  
HETATM    3  H2  UNL     1     -12.567   5.606  64.741  1.00  0.00     0.000 HD 
HETATM    4  H1  UNL     1     -12.290   7.016  65.874  1.00  0.00     0.000 HD 
HETATM    5  O   UNL     1      -9.869   5.206  64.483  1.00  0.00     0.334 OA 
HETATM    6  O   UNL     1      -9.892   7.646  65.112  1.00  0.00     1.343 OA 
ENDROOT
BRANCH   2   7
HETATM    7  C   UNL     1      -9.975   5.859  67.018  1.00  0.00    -0.166 A  
HETATM    8  C   UNL     1      -9.230   4.705  67.283  1.00  0.00    -0.143 A  
HETATM    9  C   UNL     1      -8.970   4.352  68.614  1.00  0.00    -0.115 A  
HETATM   10  C   UNL     1      -9.414   5.115  69.696  1.00  0.00    -0.143 A  
HETATM   11  N   UNL     1      -9.068   4.822  71.015  1.00  0.00    -0.128 NA 
HETATM   12  C   UNL     1     -10.136   6.279  69.401  1.00  0.00    -0.215 A  
HETATM   13  H   UNL     1      -9.010   5.559  71.718  1.00  0.00     0.000 HD 
HETATM   14  C   UNL     1      -8.794   3.441  71.358  1.00  0.00    -0.085 C  
HETATM   15  C   UNL     1     -10.426   6.653  68.077  1.00  0.00    -0.216 A  
HETATM   16  N   UNL     1      -7.663   3.036  70.562  1.00  0.00    -0.043 N  
HETATM   17 CL   UNL     1     -11.345   8.103  67.871  1.00  0.00     0.616 Cl 
HETATM   18  O   UNL     1      -6.769   3.023  68.226  1.00  0.00    -0.039 OA 
HETATM   19  S   UNL     1      -8.022   2.902  68.936  1.00  0.00    -0.055 S  
HETATM   20  O   UNL     1      -8.908   1.774  68.763  1.00  0.00    -0.068 OA 
HETATM   21  H   UNL     1      -6.738   2.850  70.951  1.00  0.00     0.000 HD 
BRANCH  14  22
HETATM   22  C   UNL     1      -8.407   3.328  72.843  1.00  0.00    -0.081 C  
BRANCH  22  23
HETATM   23  C   UNL     1      -8.529   4.645  73.623  1.00  0.00    -0.105 C  
HETATM   24  C   UNL     1      -8.648   5.887  72.742  1.00  0.00    -0.122 C  
HETATM   25  C   UNL     1      -9.196   6.932  73.699  1.00  0.00    -0.190 C  
HETATM   26  C   UNL     1     -10.208   6.173  74.546  1.00  0.00    -0.318 C  
HETATM   27  C   UNL     1      -9.795   4.701  74.489  1.00  0.00    -0.209 C  
ENDBRANCH  22  23
ENDBRANCH  14  22
ENDBRANCH   2   7
TORSDOF 3
ENDMDL
MODEL      192
REMARK 921   NORMALIZED FREE ENERGY PREDICTED BY IDOCK:    9.16 KCAL/MOL
REMARK 922        TOTAL FREE ENERGY PREDICTED BY IDOCK:   10.53 KCAL/MOL
REMARK 923 INTER-LIGAND FREE ENERGY PREDICTED BY IDOCK:    9.03 KCAL/MOL
REMARK 924 INTRA-LIGAND FREE ENERGY PREDICTED BY IDOCK:    1.50 KCAL/MOL
REMARK 927      BINDING AFFINITY PREDICTED BY RF-SCORE:    0.00 PKD
ROOT
HETATM    1  N   UNL     1      -7.001  19.458  72.417  1.00  0.00     1.976 N  
HETATM    2  S   UNL     1      -7.259  20.209  70.939  1.00  0.00     1.203 S  
HETATM    3  H2  UNL     1      -7.491  19.632  73.295  1.00  0.00     0.000 HD 
HETATM    4  H1  UNL     1      -6.249  18.790  72.248  1.00  0.00     0.000 HD 
HETATM    5  O   UNL     1      -8.327  21.158  71.179  1.00  0.00     2.254 OA 
HETATM    6  O   UNL     1      -5.981  20.623  70.432  1.00  0.00    -0.514 OA 
ENDROOT
BRANCH   2   7
HETATM    7  C   UNL     1      -7.879  18.894  69.937  1.00  0.00     0.855 A  
HETATM    8  C   UNL     1      -7.097  18.432  68.874  1.00  0.00    -0.292 A  
HETATM    9  C   UNL     1      -7.586  17.394  68.070  1.00  0.00    -0.206 A  
HETATM   10  C   UNL     1      -8.823  16.787  68.293  1.00  0.00    -0.228 A  
HETATM   11  N   UNL     1      -9.264  15.686  67.559  1.00  0.00    -0.199 NA 
HETATM   12  C   UNL     1      -9.575  17.253  69.380  1.00  0.00     0.134 A  
HETATM   13  H   UNL     1      -9.904  15.004  67.968  1.00  0.00     0.000 HD 
HETATM   14  C   UNL     1      -8.787  15.537  66.199  1.00  0.00    -0.238 C  
HETATM   15  C   UNL     1      -9.119  18.302  70.197  1.00  0.00     2.230 A  
HETATM   16  N   UNL     1      -7.354  15.400  66.278  1.00  0.00     0.647 N  
HETATM   17 CL   UNL     1     -10.166  18.783  71.487  1.00  0.00     2.981 Cl 
HETATM   18  O   UNL     1      -5.305  16.426  67.281  1.00  0.00    -0.166 OA 
HETATM   19  S   UNL     1      -6.588  16.812  66.739  1.00  0.00    -0.178 S  
HETATM   20  O   UNL     1      -6.722  17.767  65.665  1.00  0.00    -0.279 OA 
HETATM   21  H   UNL     1      -6.859  14.532  66.074  1.00  0.00     0.000 HD 
BRANCH  14  22
HETATM   22  C   UNL     1      -9.361  14.255  65.570  1.00  0.00     0.279 C  
BRANCH  22  23
HETATM   23  C   UNL     1      -9.893  13.242  66.593  1.00  0.00    -0.276 C  
HETATM   24  C   UNL     1      -9.217  13.316  67.961  1.00  0.00    -0.217 C  
HETATM   25  C   UNL     1     -10.191  12.579  68.864  1.00  0.00    -0.012 C  
HETATM   26  C   UNL     1     -11.565  13.016  68.372  1.00  0.00    -0.370 C  
HETATM   27  C   UNL     1     -11.378  13.458  66.919  1.00  0.00    -0.351 C  
ENDBRANCH  22  23
ENDBRANCH  14  22
ENDBRANCH   2   7
TORSDOF 3
ENDMDL
MODEL      193
REMARK 921   NORMALIZED FREE ENERGY PREDICTED BY IDOCK:   11.89 KCAL/MOL
REMARK 922        TOTAL FREE ENERGY PREDICTED BY IDOCK:   13.73 KCAL/MOL
REMARK 923 INTER-LIGAND FREE ENERGY PREDICTED BY IDOCK:   14.03 KCAL/MOL
REMARK 924 INTRA-LIGAND FREE ENERGY PREDICTED BY IDOCK:   -0.30 KCAL/MOL
REMARK 927      BINDING AFFINITY PREDICTED BY RF-SCORE:    0.00 PKD
ROOT
HETATM    1  N   UNL     1      -8.327   7.780  63.297  1.00  0.00    -0.374 N  
HETATM    2  S   UNL     1      -9.782   7.360  64.022  1.00  0.00     4.687 S  
HETATM    3  H2  UNL     1      -8.030   8.708  62.994  1.00  0.00     0.000 HD 
HETATM    4  H1  UNL     1      -7.804   6.907  63.226  1.00  0.00     0.000 HD 
HETATM    5  O   UNL     1     -10.524   8.599  64.123  1.00  0.00     4.663 OA 
HETATM    6  O   UNL     1     -10.304   6.221  63.320  1.00  0.00     4.382 OA 
ENDROOT
BRANCH   2   7
HETATM    7  C   UNL     1      -9.281   6.862  65.639  1.00  0.00     0.223 A  
HETATM    8  C   UNL     1      -7.932   6.976  65.991  1.00  0.00    -0.109 A  
HETATM    9  C   UNL     1      -7.524   6.575  67.271  1.00  0.00    -0.088 A  
HETATM   10  C   UNL     1      -8.416   6.075  68.222  1.00  0.00    -0.112 A  
HETATM   11  N   UNL     1      -8.030   5.774  69.528  1.00  0.00    -0.095 NA 
HETATM   12  C   UNL     1      -9.765   5.995  67.852  1.00  0.00    -0.123 A  
HETATM   13  H   UNL     1      -8.697   5.833  70.299  1.00  0.00     0.000 HD 
HETATM   14  C   UNL     1      -6.657   5.374  69.760  1.00  0.00    -0.046 C  
HETATM   15  C   UNL     1     -10.203   6.376  66.571  1.00  0.00    -0.081 A  
HETATM   16  N   UNL     1      -5.832   6.486  69.359  1.00  0.00    -0.020 N  
HETATM   17 CL   UNL     1     -11.893   6.200  66.252  1.00  0.00     1.598 Cl 
HETATM   18  O   UNL     1      -5.437   8.110  67.498  1.00  0.00    -0.035 OA 
HETATM   19  S   UNL     1      -5.825   6.732  67.707  1.00  0.00    -0.021 S  
HETATM   20  O   UNL     1      -5.129   5.628  67.091  1.00  0.00    -0.004 OA 
HETATM   21  H   UNL     1      -5.306   7.062  70.017  1.00  0.00     0.000 HD 
BRANCH  14  22
HETATM   22  C   UNL     1      -6.423   5.112  71.258  1.00  0.00    -0.031 C  
BRANCH  22  23
HETATM   23  C   UNL     1      -6.858   6.269  72.169  1.00  0.00    -0.073 C  
HETATM   24  C   UNL     1      -7.444   5.827  73.509  1.00  0.00    -0.091 C  
HETATM   25  C   UNL     1      -7.358   7.087  74.352  1.00  0.00    -0.110 C  
HETATM   26  C   UNL     1      -6.019   7.704  73.971  1.00  0.00    -0.072 C  
HETATM   27  C   UNL     1      -5.684   7.171  72.577  1.00  0.00    -0.038 C  
ENDBRANCH  22  23
ENDBRANCH  14  22
ENDBRANCH   2   7
TORSDOF 3
ENDMDL
MODEL      194
REMARK 921   NORMALIZED FREE ENERGY PREDICTED BY IDOCK:   13.69 KCAL/MOL
REMARK 922        TOTAL FREE ENERGY PREDICTED BY IDOCK:   15.85 KCAL/MOL
REMARK 923 INTER-LIGAND FREE ENERGY PREDICTED BY IDOCK:   15.71 KCAL/MOL
REMARK 924 INTRA-LIGAND FREE ENERGY PREDICTED BY IDOCK:    0.14 KCAL/MOL
REMARK 927      BINDING AFFINITY PREDICTED BY RF-SCORE:    0.00 PKD
ROOT
HETATM    1  N   UNL     1     -12.960  10.026  65.299  1.00  0.00    11.046 N  
HETATM    2  S   UNL     1     -11.769  11.051  64.708  1.00  0.00     1.220 S  
HETATM    3  H2  UNL     1     -12.853   9.054  65.589  1.00  0.00     0.000 HD 
HETATM    4  H1  UNL     1     -13.813  10.586  65.304  1.00  0.00     0.000 HD 
HETATM    5  O   UNL     1     -10.558  10.257  64.700  1.00  0.00    -0.066 OA 
HETATM    6  O   UNL     1     -12.277  11.666  63.514  1.00  0.00    -0.443 OA 
ENDROOT
BRANCH   2   7
HETATM    7  C   UNL     1     -11.642  12.271  65.977  1.00  0.00    -0.393 A  
HETATM    8  C   UNL     1     -10.880  11.983  67.115  1.00  0.00    -0.297 A  
HETATM    9  C   UNL     1     -10.780  12.943  68.130  1.00  0.00    -0.241 A  
HETATM   10  C   UNL     1     -11.403  14.191  68.050  1.00  0.00    -0.299 A  
HETATM   11  N   UNL     1     -11.220  15.185  69.011  1.00  0.00    -0.257 NA 
HETATM   12  C   UNL     1     -12.139  14.463  66.889  1.00  0.00    -0.386 A  
HETATM   13  H   UNL     1     -11.293  16.173  68.765  1.00  0.00     0.000 HD 
HETATM   14  C   UNL     1     -10.923  14.776  70.368  1.00  0.00    -0.060 C  
HETATM   15  C   UNL     1     -12.269  13.515  65.858  1.00  0.00    -0.460 A  
HETATM   16  N   UNL     1      -9.677  14.054  70.318  1.00  0.00     1.239 N  
HETATM   17 CL   UNL     1     -13.226  13.985  64.497  1.00  0.00     0.588 Cl 
HETATM   18  O   UNL     1      -8.482  12.219  69.107  1.00  0.00     0.302 OA 
HETATM   19  S   UNL     1      -9.810  12.574  69.554  1.00  0.00     1.485 S  
HETATM   20  O   UNL     1     -10.606  11.707  70.391  1.00  0.00     1.054 OA 
HETATM   21  H   UNL     1      -8.803  14.409  70.708  1.00  0.00     0.000 HD 
BRANCH  14  22
HETATM   22  C   UNL     1     -10.731  16.010  71.267  1.00  0.00     0.470 C  
BRANCH  22  23
HETATM   23  C   UNL     1     -11.566  15.982  72.555  1.00  0.00    -0.404 C  
HETATM   24  C   UNL     1     -13.066  16.173  72.335  1.00  0.00    -0.225 C  
HETATM   25  C   UNL     1     -13.669  15.663  73.632  1.00  0.00     0.357 C  
HETATM   26  C   UNL     1     -12.830  14.441  73.982  1.00  0.00     0.996 C  
HETATM   27  C   UNL     1     -11.484  14.631  73.281  1.00  0.00     0.490 C  
ENDBRANCH  22  23
ENDBRANCH  14  22
ENDBRANCH   2   7
TORSDOF 3
ENDMDL
MODEL      195
REMARK 921   NORMALIZED FREE ENERGY PREDICTED BY IDOCK:   34.72 KCAL/MOL
REMARK 922        TOTAL FREE ENERGY PREDICTED BY IDOCK:   40.58 KCAL/MOL
REMARK 923 INTER-LIGAND FREE ENERGY PREDICTED BY IDOCK:   39.45 KCAL/MOL
REMARK 924 INTRA-LIGAND FREE ENERGY PREDICTED BY IDOCK:    1.12 KCAL/MOL
REMARK 927      BINDING AFFINITY PREDICTED BY RF-SCORE:    0.00 PKD
ROOT
HETATM    1  N   UNL     1      -7.710  18.976  73.341  1.00  0.00     4.974 N  
HETATM    2  S   UNL     1      -7.510  20.265  72.285  1.00  0.00     2.649 S  
HETATM    3  H2  UNL     1      -8.405  18.883  74.082  1.00  0.00     0.000 HD 
HETATM    4  H1  UNL     1      -6.987  18.305  73.081  1.00  0.00     0.000 HD 
HETATM    5  O   UNL     1      -8.536  21.218  72.654  1.00  0.00     2.446 OA 
HETATM    6  O   UNL     1      -6.117  20.616  72.287  1.00  0.00    -0.323 OA 
ENDROOT
BRANCH   2   7
HETATM    7  C   UNL     1      -7.924  19.556  70.722  1.00  0.00     2.065 A  
HETATM    8  C   UNL     1      -7.286  20.037  69.574  1.00  0.00    -0.082 A  
HETATM    9  C   UNL     1      -7.614  19.484  68.329  1.00  0.00    -0.311 A  
HETATM   10  C   UNL     1      -8.550  18.458  68.185  1.00  0.00    -0.284 A  
HETATM   11  N   UNL     1      -8.802  17.837  66.961  1.00  0.00    -0.245 NA 
HETATM   12  C   UNL     1      -9.156  17.979  69.353  1.00  0.00     0.412 A  
HETATM   13  H   UNL     1      -9.119  16.868  66.920  1.00  0.00     0.000 HD 
HETATM   14  C   UNL     1      -8.600  18.608  65.751  1.00  0.00     0.413 C  
HETATM   15  C   UNL     1      -8.858  18.521  70.616  1.00  0.00     4.119 A  
HETATM   16  N   UNL     1      -7.206  18.970  65.721  1.00  0.00    -0.261 N  
HETATM   17 CL   UNL     1      -9.702  17.842  71.964  1.00  0.00     7.863 Cl 
HETATM   18  O   UNL     1      -5.372  19.963  67.103  1.00  0.00    -0.163 OA 
HETATM   19  S   UNL     1      -6.797  20.090  66.891  1.00  0.00    -0.226 S  
HETATM   20  O   UNL     1      -7.422  21.346  66.549  1.00  0.00     0.079 OA 
HETATM   21  H   UNL     1      -6.537  18.583  65.054  1.00  0.00     0.000 HD 
BRANCH  14  22
HETATM   22  C   UNL     1      -8.903  17.745  64.514  1.00  0.00     6.865 C  
BRANCH  22  23
HETATM   23  C   UNL     1      -9.755  16.503  64.811  1.00  0.00     1.938 C  
HETATM   24  C   UNL     1     -10.095  15.665  63.579  1.00  0.00     6.933 C  
HETATM   25  C   UNL     1     -10.514  14.333  64.177  1.00  0.00     0.678 C  
HETATM   26  C   UNL     1      -9.542  14.116  65.330  1.00  0.00     0.020 C  
HETATM   27  C   UNL     1      -9.039  15.504  65.732  1.00  0.00    -0.105 C  
ENDBRANCH  22  23
ENDBRANCH  14  22
ENDBRANCH   2   7
TORSDOF 3
ENDMDL
MODEL      196
REMARK 921   NORMALIZED FREE ENERGY PREDICTED BY IDOCK:   38.29 KCAL/MOL
REMARK 922        TOTAL FREE ENERGY PREDICTED BY IDOCK:   44.77 KCAL/MOL
REMARK 923 INTER-LIGAND FREE ENERGY PREDICTED BY IDOCK:   43.37 KCAL/MOL
REMARK 924 INTRA-LIGAND FREE ENERGY PREDICTED BY IDOCK:    1.40 KCAL/MOL
REMARK 927      BINDING AFFINITY PREDICTED BY RF-SCORE:    0.00 PKD
ROOT
HETATM    1  N   UNL     1      -7.683  18.898  73.639  1.00  0.00     5.612 N  
HETATM    2  S   UNL     1      -7.890  19.630  72.143  1.00  0.00     3.970 S  
HETATM    3  H2  UNL     1      -8.298  18.963  74.451  1.00  0.00     0.000 HD 
HETATM    4  H1  UNL     1      -6.811  18.376  73.562  1.00  0.00     0.000 HD 
HETATM    5  O   UNL     1      -9.128  20.371  72.252  1.00  0.00     1.568 OA 
HETATM    6  O   UNL     1      -6.652  20.272  71.798  1.00  0.00    -0.392 OA 
ENDROOT
BRANCH   2   7
HETATM    7  C   UNL     1      -8.143  18.252  71.068  1.00  0.00     6.177 A  
HETATM    8  C   UNL     1      -7.915  18.415  69.698  1.00  0.00     0.693 A  
HETATM    9  C   UNL     1      -8.121  17.329  68.838  1.00  0.00    -0.189 A  
HETATM   10  C   UNL     1      -8.535  16.076  69.294  1.00  0.00    -0.224 A  
HETATM   11  N   UNL     1      -8.641  14.967  68.454  1.00  0.00    -0.156 NA 
HETATM   12  C   UNL     1      -8.732  15.933  70.674  1.00  0.00     2.337 A  
HETATM   13  H   UNL     1      -8.513  14.021  68.815  1.00  0.00     0.000 HD 
HETATM   14  C   UNL     1      -8.936  15.197  67.055  1.00  0.00    -0.234 C  
HETATM   15  C   UNL     1      -8.547  17.007  71.562  1.00  0.00     9.732 A  
HETATM   16  N   UNL     1      -7.847  15.979  66.527  1.00  0.00    -0.239 N  
HETATM   17 CL   UNL     1      -8.849  16.685  73.233  1.00  0.00    16.119 Cl 
HETATM   18  O   UNL     1      -6.467  18.022  66.955  1.00  0.00    -0.166 OA 
HETATM   19  S   UNL     1      -7.821  17.543  67.115  1.00  0.00    -0.216 S  
HETATM   20  O   UNL     1      -8.962  18.245  66.574  1.00  0.00    -0.275 OA 
HETATM   21  H   UNL     1      -7.162  15.617  65.863  1.00  0.00     0.000 HD 
BRANCH  14  22
HETATM   22  C   UNL     1      -8.984  13.860  66.294  1.00  0.00     0.081 C  
BRANCH  22  23
HETATM   23  C   UNL     1      -9.159  12.632  67.199  1.00  0.00    -0.210 C  
HETATM   24  C   UNL     1      -9.221  11.303  66.448  1.00  0.00    -0.206 C  
HETATM   25  C   UNL     1      -8.939  10.282  67.537  1.00  0.00    -0.138 C  
HETATM   26  C   UNL     1      -7.856  10.931  68.389  1.00  0.00    -0.123 C  
HETATM   27  C   UNL     1      -7.981  12.439  68.165  1.00  0.00    -0.153 C  
ENDBRANCH  22  23
ENDBRANCH  14  22
ENDBRANCH   2   7
TORSDOF 3
ENDMDL
