MODEL        1
REMARK 921   NORMALIZED FREE ENERGY PREDICTED BY IDOCK:   -6.92 KCAL/MOL
REMARK 922        TOTAL FREE ENERGY PREDICTED BY IDOCK:   -8.03 KCAL/MOL
REMARK 923 INTER-LIGAND FREE ENERGY PREDICTED BY IDOCK:   -7.73 KCAL/MOL
REMARK 924 INTRA-LIGAND FREE ENERGY PREDICTED BY IDOCK:   -0.30 KCAL/MOL
REMARK 927      BINDING AFFINITY PREDICTED BY RF-SCORE:    0.00 PKD
ROOT
HETATM    1  C   UNL     1     -12.151  13.133  66.542  1.00  0.00    -0.358 C  
HETATM    2  S   UNL     1     -11.521  14.428  67.686  1.00  0.00    -0.364 SA 
HETATM    3  C   UNL     1     -10.218  15.041  66.527  1.00  0.00    -0.275 C  
HETATM    4  C   UNL     1     -10.040  16.549  66.723  1.00  0.00    -0.290 C  
HETATM    5  C   UNL     1      -8.888  14.375  66.937  1.00  0.00    -0.246 C  
HETATM    6  CA  UNL     1     -10.680  14.591  65.119  1.00  0.00    -0.406 C  
HETATM    7  N   UNL     1     -11.392  13.310  65.282  1.00  0.00    -0.292 N  
HETATM    8  C   UNL     1     -11.621  15.558  64.379  1.00  0.00    -0.258 C  
HETATM    9  C   UNL     1     -10.678  12.151  65.444  1.00  0.00    -0.284 C  
HETATM   10  O   UNL     1     -12.726  14.956  63.862  1.00  0.00    -0.789 OA 
HETATM   11  OXT UNL     1     -11.385  16.741  64.178  1.00  0.00    -1.194 OA 
HETATM   12  O   UNL     1      -9.656  11.784  64.914  1.00  0.00    -0.210 OA 
HETATM   13  CA  UNL     1     -11.529  11.718  66.654  1.00  0.00    -0.267 C  
ENDROOT
BRANCH  13  14
HETATM   14  N   UNL     1     -10.805  11.412  67.917  1.00  0.00    -0.210 N  
HETATM   15  H   UNL     1     -10.563  12.161  68.566  1.00  0.00     0.000 HD 
HETATM   16  C   UNL     1     -10.465  10.112  68.199  1.00  0.00    -0.206 C  
HETATM   17  O   UNL     1     -10.783   9.209  67.419  1.00  0.00    -0.277 OA 
BRANCH  16  18
HETATM   18  C   UNL     1      -9.794   9.823  69.582  1.00  0.00    -0.221 C  
HETATM   19  C   UNL     1     -10.803  10.196  70.687  1.00  0.00    -0.305 C  
HETATM   20  N   UNL     1      -8.610  10.709  69.686  1.00  0.00    -0.383 NA 
HETATM   21  C   UNL     1     -12.003   9.243  70.672  1.00  0.00    -0.206 C  
HETATM   22  H1  UNL     1      -8.172  10.520  70.588  1.00  0.00     0.000 HD 
HETATM   23  H2  UNL     1      -8.834  11.694  69.549  1.00  0.00     0.000 HD 
HETATM   24  C   UNL     1     -11.567   7.792  70.848  1.00  0.00    -0.289 C  
HETATM   25  C   UNL     1     -10.484   7.377  69.856  1.00  0.00    -0.238 C  
HETATM   26  C   UNL     1      -9.325   8.373  69.806  1.00  0.00    -0.158 C  
ENDBRANCH  16  18
ENDBRANCH  13  14
TORSDOF 2
ENDMDL
MODEL        2
REMARK 921   NORMALIZED FREE ENERGY PREDICTED BY IDOCK:   -6.88 KCAL/MOL
REMARK 922        TOTAL FREE ENERGY PREDICTED BY IDOCK:   -7.99 KCAL/MOL
REMARK 923 INTER-LIGAND FREE ENERGY PREDICTED BY IDOCK:   -7.62 KCAL/MOL
REMARK 924 INTRA-LIGAND FREE ENERGY PREDICTED BY IDOCK:   -0.37 KCAL/MOL
REMARK 927      BINDING AFFINITY PREDICTED BY RF-SCORE:    0.00 PKD
ROOT
HETATM    1  C   UNL     1      -8.805  14.384  66.954  1.00  0.00    -0.223 C  
HETATM    2  S   UNL     1      -9.416  14.467  68.687  1.00  0.00    -0.162 SA 
HETATM    3  C   UNL     1     -11.204  14.392  68.226  1.00  0.00    -0.275 C  
HETATM    4  C   UNL     1     -11.973  13.635  69.312  1.00  0.00    -0.384 C  
HETATM    5  C   UNL     1     -11.740  15.839  68.224  1.00  0.00    -0.229 C  
HETATM    6  CA  UNL     1     -11.235  13.763  66.811  1.00  0.00    -0.316 C  
HETATM    7  N   UNL     1     -10.011  14.196  66.113  1.00  0.00    -0.303 N  
HETATM    8  C   UNL     1     -11.284  12.225  66.760  1.00  0.00    -0.318 C  
HETATM    9  C   UNL     1      -9.943  15.456  65.577  1.00  0.00    -0.344 C  
HETATM   10  O   UNL     1     -10.367  11.678  65.916  1.00  0.00    -0.231 OA 
HETATM   11  OXT UNL     1     -12.112  11.535  67.338  1.00  0.00    -0.593 OA 
HETATM   12  O   UNL     1     -10.783  16.103  64.997  1.00  0.00    -0.558 OA 
HETATM   13  CA  UNL     1      -8.567  15.725  66.216  1.00  0.00    -0.272 C  
ENDROOT
BRANCH  13  14
HETATM   14  N   UNL     1      -8.442  16.936  67.071  1.00  0.00    -0.193 N  
HETATM   15  H   UNL     1      -8.801  16.932  68.026  1.00  0.00     0.000 HD 
HETATM   16  C   UNL     1      -7.839  18.060  66.561  1.00  0.00    -0.260 C  
HETATM   17  O   UNL     1      -7.386  18.048  65.412  1.00  0.00    -0.495 OA 
BRANCH  16  18
HETATM   18  C   UNL     1      -7.640  19.275  67.524  1.00  0.00    -0.237 C  
HETATM   19  C   UNL     1      -8.267  20.517  66.859  1.00  0.00    -0.267 C  
HETATM   20  N   UNL     1      -6.179  19.486  67.665  1.00  0.00    -0.202 NA 
HETATM   21  C   UNL     1      -9.791  20.378  66.778  1.00  0.00    -0.541 C  
HETATM   22  H1  UNL     1      -6.049  20.278  68.294  1.00  0.00     0.000 HD 
HETATM   23  H2  UNL     1      -5.703  19.603  66.771  1.00  0.00     0.000 HD 
HETATM   24  C   UNL     1     -10.409  20.171  68.157  1.00  0.00    -0.441 C  
HETATM   25  C   UNL     1      -9.762  19.023  68.926  1.00  0.00    -0.442 C  
HETATM   26  C   UNL     1      -8.235  19.112  68.935  1.00  0.00    -0.330 C  
ENDBRANCH  16  18
ENDBRANCH  13  14
TORSDOF 2
ENDMDL
MODEL        3
REMARK 921   NORMALIZED FREE ENERGY PREDICTED BY IDOCK:   -6.85 KCAL/MOL
REMARK 922        TOTAL FREE ENERGY PREDICTED BY IDOCK:   -7.96 KCAL/MOL
REMARK 923 INTER-LIGAND FREE ENERGY PREDICTED BY IDOCK:   -8.25 KCAL/MOL
REMARK 924 INTRA-LIGAND FREE ENERGY PREDICTED BY IDOCK:    0.29 KCAL/MOL
REMARK 927      BINDING AFFINITY PREDICTED BY RF-SCORE:    0.00 PKD
ROOT
HETATM    1  C   UNL     1      -9.417  17.481  68.270  1.00  0.00    -0.296 C  
HETATM    2  S   UNL     1      -9.099  15.925  69.198  1.00  0.00    -0.255 SA 
HETATM    3  C   UNL     1      -7.310  15.835  68.744  1.00  0.00    -0.141 C  
HETATM    4  C   UNL     1      -6.526  15.216  69.905  1.00  0.00    -0.171 C  
HETATM    5  C   UNL     1      -7.186  14.863  67.551  1.00  0.00    -0.227 C  
HETATM    6  CA  UNL     1      -6.914  17.281  68.354  1.00  0.00    -0.202 C  
HETATM    7  N   UNL     1      -8.100  17.909  67.743  1.00  0.00    -0.228 N  
HETATM    8  C   UNL     1      -6.449  18.185  69.510  1.00  0.00    -0.186 C  
HETATM    9  C   UNL     1      -8.427  17.622  66.443  1.00  0.00    -0.246 C  
HETATM   10  O   UNL     1      -7.058  19.402  69.530  1.00  0.00    -0.307 OA 
HETATM   11  OXT UNL     1      -5.556  17.905  70.297  1.00  0.00    -0.240 OA 
HETATM   12  O   UNL     1      -7.719  17.471  65.475  1.00  0.00    -0.383 OA 
HETATM   13  CA  UNL     1      -9.900  17.351  66.804  1.00  0.00    -0.296 C  
ENDROOT
BRANCH  13  14
HETATM   14  N   UNL     1     -10.463  16.032  66.408  1.00  0.00    -0.307 N  
HETATM   15  H   UNL     1     -10.432  15.244  67.055  1.00  0.00     0.000 HD 
HETATM   16  C   UNL     1     -11.024  15.887  65.163  1.00  0.00    -0.377 C  
HETATM   17  O   UNL     1     -11.078  16.852  64.395  1.00  0.00    -1.128 OA 
BRANCH  16  18
HETATM   18  C   UNL     1     -11.691  14.514  64.825  1.00  0.00    -0.422 C  
HETATM   19  C   UNL     1     -10.568  13.504  64.510  1.00  0.00    -0.439 C  
HETATM   20  N   UNL     1     -12.518  14.716  63.611  1.00  0.00    -1.064 NA 
HETATM   21  C   UNL     1      -9.746  13.196  65.766  1.00  0.00    -0.151 C  
HETATM   22  H1  UNL     1     -12.953  13.821  63.392  1.00  0.00     0.000 HD 
HETATM   23  H2  UNL     1     -11.992  15.107  62.830  1.00  0.00     0.000 HD 
HETATM   24  C   UNL     1     -10.621  12.651  66.889  1.00  0.00    -0.256 C  
HETATM   25  C   UNL     1     -11.822  13.544  67.187  1.00  0.00    -0.430 C  
HETATM   26  C   UNL     1     -12.596  13.924  65.923  1.00  0.00    -0.498 C  
ENDBRANCH  16  18
ENDBRANCH  13  14
TORSDOF 2
ENDMDL
MODEL        4
REMARK 921   NORMALIZED FREE ENERGY PREDICTED BY IDOCK:   -6.78 KCAL/MOL
REMARK 922        TOTAL FREE ENERGY PREDICTED BY IDOCK:   -7.88 KCAL/MOL
REMARK 923 INTER-LIGAND FREE ENERGY PREDICTED BY IDOCK:   -7.63 KCAL/MOL
REMARK 924 INTRA-LIGAND FREE ENERGY PREDICTED BY IDOCK:   -0.25 KCAL/MOL
REMARK 927      BINDING AFFINITY PREDICTED BY RF-SCORE:    0.00 PKD
ROOT
HETATM    1  C   UNL     1      -7.727  17.465  68.343  1.00  0.00    -0.258 C  
HETATM    2  S   UNL     1      -6.738  17.768  66.822  1.00  0.00    -0.209 SA 
HETATM    3  C   UNL     1      -7.016  19.595  66.816  1.00  0.00    -0.201 C  
HETATM    4  C   UNL     1      -5.771  20.291  66.258  1.00  0.00    -0.192 C  
HETATM    5  C   UNL     1      -8.169  19.882  65.831  1.00  0.00    -0.229 C  
HETATM    6  CA  UNL     1      -7.397  19.954  68.273  1.00  0.00    -0.292 C  
HETATM    7  N   UNL     1      -8.134  18.804  68.828  1.00  0.00    -0.323 N  
HETATM    8  C   UNL     1      -6.223  20.260  69.220  1.00  0.00    -0.321 C  
HETATM    9  C   UNL     1      -9.453  18.620  68.503  1.00  0.00    -0.350 C  
HETATM   10  O   UNL     1      -6.288  19.591  70.404  1.00  0.00    -0.197 OA 
HETATM   11  OXT UNL     1      -5.347  21.084  69.000  1.00  0.00    -0.333 OA 
HETATM   12  O   UNL     1     -10.344  19.426  68.373  1.00  0.00    -0.412 OA 
HETATM   13  CA  UNL     1      -9.230  17.134  68.163  1.00  0.00    -0.261 C  
ENDROOT
BRANCH  13  14
HETATM   14  N   UNL     1      -9.649  16.679  66.811  1.00  0.00    -0.246 N  
HETATM   15  H   UNL     1      -9.102  16.935  65.988  1.00  0.00     0.000 HD 
HETATM   16  C   UNL     1     -10.780  15.910  66.680  1.00  0.00    -0.270 C  
HETATM   17  O   UNL     1     -11.423  15.585  67.683  1.00  0.00    -0.307 OA 
BRANCH  16  18
HETATM   18  C   UNL     1     -11.128  15.371  65.255  1.00  0.00    -0.360 C  
HETATM   19  C   UNL     1     -10.044  14.349  64.855  1.00  0.00    -0.253 C  
HETATM   20  N   UNL     1     -11.073  16.525  64.326  1.00  0.00    -1.300 NA 
HETATM   21  C   UNL     1     -10.127  13.097  65.735  1.00  0.00    -0.290 C  
HETATM   22  H1  UNL     1     -11.301  16.173  63.396  1.00  0.00     0.000 HD 
HETATM   23  H2  UNL     1     -10.184  17.023  64.358  1.00  0.00     0.000 HD 
HETATM   24  C   UNL     1     -11.501  12.442  65.649  1.00  0.00    -0.412 C  
HETATM   25  C   UNL     1     -12.639  13.421  65.924  1.00  0.00    -0.412 C  
HETATM   26  C   UNL     1     -12.512  14.710  65.111  1.00  0.00    -0.206 C  
ENDBRANCH  16  18
ENDBRANCH  13  14
TORSDOF 2
ENDMDL
MODEL        5
REMARK 921   NORMALIZED FREE ENERGY PREDICTED BY IDOCK:   -6.76 KCAL/MOL
REMARK 922        TOTAL FREE ENERGY PREDICTED BY IDOCK:   -7.86 KCAL/MOL
REMARK 923 INTER-LIGAND FREE ENERGY PREDICTED BY IDOCK:   -7.87 KCAL/MOL
REMARK 924 INTRA-LIGAND FREE ENERGY PREDICTED BY IDOCK:    0.01 KCAL/MOL
REMARK 927      BINDING AFFINITY PREDICTED BY RF-SCORE:    0.00 PKD
ROOT
HETATM    1  C   UNL     1     -11.060  11.544  67.616  1.00  0.00    -0.266 C  
HETATM    2  S   UNL     1     -12.006  12.606  66.449  1.00  0.00    -0.273 SA 
HETATM    3  C   UNL     1     -10.574  12.915  65.322  1.00  0.00    -0.297 C  
HETATM    4  C   UNL     1     -11.083  13.037  63.883  1.00  0.00    -0.411 C  
HETATM    5  C   UNL     1      -9.976  14.286  65.704  1.00  0.00    -0.346 C  
HETATM    6  CA  UNL     1      -9.583  11.757  65.594  1.00  0.00    -0.220 C  
HETATM    7  N   UNL     1      -9.712  11.397  67.018  1.00  0.00    -0.189 N  
HETATM    8  C   UNL     1      -9.800  10.477  64.766  1.00  0.00    -0.323 C  
HETATM    9  C   UNL     1      -9.106  12.171  67.973  1.00  0.00    -0.190 C  
HETATM   10  O   UNL     1      -9.812   9.340  65.513  1.00  0.00    -0.265 OA 
HETATM   11  OXT UNL     1      -9.869  10.441  63.546  1.00  0.00    -0.309 OA 
HETATM   12  O   UNL     1      -8.027  12.714  67.968  1.00  0.00    -0.132 OA 
HETATM   13  CA  UNL     1     -10.388  12.238  68.826  1.00  0.00    -0.135 C  
ENDROOT
BRANCH  13  14
HETATM   14  N   UNL     1     -10.897  13.591  69.179  1.00  0.00    -0.407 N  
HETATM   15  H   UNL     1     -10.529  14.418  68.710  1.00  0.00     0.000 HD 
HETATM   16  C   UNL     1     -11.867  13.714  70.144  1.00  0.00    -0.281 C  
HETATM   17  O   UNL     1     -12.323  12.706  70.691  1.00  0.00    -0.359 OA 
BRANCH  16  18
HETATM   18  C   UNL     1     -12.443  15.142  70.413  1.00  0.00    -0.368 C  
HETATM   19  C   UNL     1     -13.872  14.981  70.972  1.00  0.00    -0.379 C  
HETATM   20  N   UNL     1     -12.508  15.840  69.106  1.00  0.00    -0.497 NA 
HETATM   21  C   UNL     1     -13.841  14.346  72.366  1.00  0.00    -0.595 C  
HETATM   22  H1  UNL     1     -12.884  16.772  69.281  1.00  0.00     0.000 HD 
HETATM   23  H2  UNL     1     -13.035  15.323  68.402  1.00  0.00     0.000 HD 
HETATM   24  C   UNL     1     -13.003  15.169  73.338  1.00  0.00    -0.642 C  
HETATM   25  C   UNL     1     -11.604  15.466  72.805  1.00  0.00    -0.464 C  
HETATM   26  C   UNL     1     -11.627  16.020  71.380  1.00  0.00    -0.520 C  
ENDBRANCH  16  18
ENDBRANCH  13  14
TORSDOF 2
ENDMDL
MODEL        6
REMARK 921   NORMALIZED FREE ENERGY PREDICTED BY IDOCK:   -6.70 KCAL/MOL
REMARK 922        TOTAL FREE ENERGY PREDICTED BY IDOCK:   -7.79 KCAL/MOL
REMARK 923 INTER-LIGAND FREE ENERGY PREDICTED BY IDOCK:   -7.99 KCAL/MOL
REMARK 924 INTRA-LIGAND FREE ENERGY PREDICTED BY IDOCK:    0.20 KCAL/MOL
REMARK 927      BINDING AFFINITY PREDICTED BY RF-SCORE:    0.00 PKD
ROOT
HETATM    1  C   UNL     1      -9.931  14.130  65.134  1.00  0.00    -0.229 C  
HETATM    2  S   UNL     1      -9.309  13.609  66.785  1.00  0.00    -0.247 SA 
HETATM    3  C   UNL     1     -10.611  12.323  67.045  1.00  0.00    -0.223 C  
HETATM    4  C   UNL     1     -10.016  11.158  67.841  1.00  0.00    -0.189 C  
HETATM    5  C   UNL     1     -11.710  12.953  67.927  1.00  0.00    -0.405 C  
HETATM    6  CA  UNL     1     -11.134  11.980  65.629  1.00  0.00    -0.313 C  
HETATM    7  N   UNL     1     -11.051  13.211  64.822  1.00  0.00    -0.315 N  
HETATM    8  C   UNL     1     -10.367  10.876  64.879  1.00  0.00    -0.304 C  
HETATM    9  C   UNL     1     -12.007  14.183  64.964  1.00  0.00    -0.408 C  
HETATM   10  O   UNL     1     -10.027  11.216  63.605  1.00  0.00    -0.292 OA 
HETATM   11  OXT UNL     1     -10.145   9.758  65.321  1.00  0.00    -0.286 OA 
HETATM   12  O   UNL     1     -13.201  14.085  65.119  1.00  0.00    -0.768 OA 
HETATM   13  CA  UNL     1     -10.949  15.297  65.091  1.00  0.00    -0.416 C  
ENDROOT
BRANCH  13  14
HETATM   14  N   UNL     1     -11.017  16.160  66.301  1.00  0.00    -0.117 N  
HETATM   15  H   UNL     1     -11.722  15.987  67.018  1.00  0.00     0.000 HD 
HETATM   16  C   UNL     1     -10.121  17.191  66.442  1.00  0.00    -0.320 C  
HETATM   17  O   UNL     1      -9.257  17.379  65.580  1.00  0.00    -0.477 OA 
BRANCH  16  18
HETATM   18  C   UNL     1     -10.164  18.010  67.773  1.00  0.00    -0.378 C  
HETATM   19  C   UNL     1      -8.729  18.077  68.336  1.00  0.00    -0.301 C  
HETATM   20  N   UNL     1     -11.023  17.260  68.720  1.00  0.00    -0.263 NA 
HETATM   21  C   UNL     1      -7.829  18.924  67.431  1.00  0.00    -0.255 C  
HETATM   22  H1  UNL     1     -11.051  17.795  69.588  1.00  0.00     0.000 HD 
HETATM   23  H2  UNL     1     -10.723  16.295  68.854  1.00  0.00     0.000 HD 
HETATM   24  C   UNL     1      -8.376  20.337  67.261  1.00  0.00    -0.404 C  
HETATM   25  C   UNL     1      -9.834  20.355  66.809  1.00  0.00    -0.541 C  
HETATM   26  C   UNL     1     -10.720  19.442  67.658  1.00  0.00    -0.536 C  
ENDBRANCH  16  18
ENDBRANCH  13  14
TORSDOF 2
ENDMDL
MODEL        7
REMARK 921   NORMALIZED FREE ENERGY PREDICTED BY IDOCK:   -6.63 KCAL/MOL
REMARK 922        TOTAL FREE ENERGY PREDICTED BY IDOCK:   -7.71 KCAL/MOL
REMARK 923 INTER-LIGAND FREE ENERGY PREDICTED BY IDOCK:   -7.52 KCAL/MOL
REMARK 924 INTRA-LIGAND FREE ENERGY PREDICTED BY IDOCK:   -0.19 KCAL/MOL
REMARK 927      BINDING AFFINITY PREDICTED BY RF-SCORE:    0.00 PKD
ROOT
HETATM    1  C   UNL     1      -9.432  13.053  66.247  1.00  0.00    -0.192 C  
HETATM    2  S   UNL     1      -9.111  12.746  68.032  1.00  0.00    -0.211 SA 
HETATM    3  C   UNL     1     -10.673  11.799  68.311  1.00  0.00    -0.214 C  
HETATM    4  C   UNL     1     -10.423  10.713  69.363  1.00  0.00    -0.252 C  
HETATM    5  C   UNL     1     -11.703  12.777  68.914  1.00  0.00    -0.370 C  
HETATM    6  CA  UNL     1     -11.103  11.298  66.910  1.00  0.00    -0.275 C  
HETATM    7  N   UNL     1     -10.679  12.317  65.933  1.00  0.00    -0.251 N  
HETATM    8  C   UNL     1     -10.509   9.949  66.467  1.00  0.00    -0.143 C  
HETATM    9  C   UNL     1     -11.420  13.460  65.778  1.00  0.00    -0.320 C  
HETATM   10  O   UNL     1      -9.972   9.973  65.217  1.00  0.00    -0.315 OA 
HETATM   11  OXT UNL     1     -10.575   8.913  67.114  1.00  0.00    -0.286 OA 
HETATM   12  O   UNL     1     -12.618  13.619  65.775  1.00  0.00    -0.476 OA 
HETATM   13  CA  UNL     1     -10.172  14.360  65.870  1.00  0.00    -0.325 C  
ENDROOT
BRANCH  13  14
HETATM   14  N   UNL     1     -10.186  15.433  66.900  1.00  0.00    -0.268 N  
HETATM   15  H   UNL     1     -10.044  15.204  67.884  1.00  0.00     0.000 HD 
HETATM   16  C   UNL     1     -10.391  16.735  66.513  1.00  0.00    -0.301 C  
HETATM   17  O   UNL     1     -10.538  17.006  65.317  1.00  0.00    -0.647 OA 
BRANCH  16  18
HETATM   18  C   UNL     1     -10.298  17.841  67.614  1.00  0.00    -0.373 C  
HETATM   19  C   UNL     1      -8.810  18.033  67.971  1.00  0.00    -0.278 C  
HETATM   20  N   UNL     1     -11.021  17.333  68.805  1.00  0.00    -0.263 NA 
HETATM   21  C   UNL     1      -8.044  18.645  66.793  1.00  0.00    -0.275 C  
HETATM   22  H1  UNL     1     -10.961  18.055  69.523  1.00  0.00     0.000 HD 
HETATM   23  H2  UNL     1     -10.682  16.425  69.122  1.00  0.00     0.000 HD 
HETATM   24  C   UNL     1      -8.643  19.981  66.368  1.00  0.00    -0.350 C  
HETATM   25  C   UNL     1     -10.144  19.896  66.103  1.00  0.00    -0.611 C  
HETATM   26  C   UNL     1     -10.900  19.208  67.239  1.00  0.00    -0.529 C  
ENDBRANCH  16  18
ENDBRANCH  13  14
TORSDOF 2
ENDMDL
MODEL        8
REMARK 921   NORMALIZED FREE ENERGY PREDICTED BY IDOCK:   -6.52 KCAL/MOL
REMARK 922        TOTAL FREE ENERGY PREDICTED BY IDOCK:   -7.58 KCAL/MOL
REMARK 923 INTER-LIGAND FREE ENERGY PREDICTED BY IDOCK:   -7.12 KCAL/MOL
REMARK 924 INTRA-LIGAND FREE ENERGY PREDICTED BY IDOCK:   -0.47 KCAL/MOL
REMARK 927      BINDING AFFINITY PREDICTED BY RF-SCORE:    0.00 PKD
ROOT
HETATM    1  C   UNL     1     -11.267  16.072  68.135  1.00  0.00    -0.325 C  
HETATM    2  S   UNL     1      -9.821  15.954  69.267  1.00  0.00    -0.270 SA 
HETATM    3  C   UNL     1      -8.607  16.608  68.036  1.00  0.00    -0.193 C  
HETATM    4  C   UNL     1      -7.531  17.414  68.770  1.00  0.00    -0.258 C  
HETATM    5  C   UNL     1      -7.899  15.393  67.399  1.00  0.00    -0.215 C  
HETATM    6  CA  UNL     1      -9.453  17.391  67.003  1.00  0.00    -0.266 C  
HETATM    7  N   UNL     1     -10.756  16.709  66.899  1.00  0.00    -0.217 N  
HETATM    8  C   UNL     1      -9.724  18.869  67.337  1.00  0.00    -0.312 C  
HETATM    9  C   UNL     1     -10.866  15.562  66.156  1.00  0.00    -0.295 C  
HETATM   10  O   UNL     1     -11.032  19.225  67.218  1.00  0.00    -0.483 OA 
HETATM   11  OXT UNL     1      -8.859  19.693  67.600  1.00  0.00    -0.305 OA 
HETATM   12  O   UNL     1     -10.364  15.268  65.097  1.00  0.00    -0.382 OA 
HETATM   13  CA  UNL     1     -11.611  14.824  67.285  1.00  0.00    -0.369 C  
ENDROOT
BRANCH  13  14
HETATM   14  N   UNL     1     -11.034  13.531  67.744  1.00  0.00    -0.261 N  
HETATM   15  H   UNL     1     -10.361  13.511  68.511  1.00  0.00     0.000 HD 
HETATM   16  C   UNL     1     -11.415  12.367  67.125  1.00  0.00    -0.357 C  
HETATM   17  O   UNL     1     -12.247  12.398  66.213  1.00  0.00    -0.620 OA 
BRANCH  16  18
HETATM   18  C   UNL     1     -10.861  11.024  67.703  1.00  0.00    -0.256 C  
HETATM   19  C   UNL     1     -10.399  10.150  66.519  1.00  0.00    -0.270 C  
HETATM   20  N   UNL     1     -11.985  10.349  68.395  1.00  0.00    -0.749 NA 
HETATM   21  C   UNL     1      -9.177  10.769  65.832  1.00  0.00    -0.214 C  
HETATM   22  H1  UNL     1     -11.623   9.473  68.773  1.00  0.00     0.000 HD 
HETATM   23  H2  UNL     1     -12.802  10.220  67.798  1.00  0.00     0.000 HD 
HETATM   24  C   UNL     1      -8.021  10.956  66.808  1.00  0.00    -0.143 C  
HETATM   25  C   UNL     1      -8.428  11.720  68.065  1.00  0.00    -0.157 C  
HETATM   26  C   UNL     1      -9.698  11.158  68.705  1.00  0.00    -0.202 C  
ENDBRANCH  16  18
ENDBRANCH  13  14
TORSDOF 2
ENDMDL
MODEL        9
REMARK 921   NORMALIZED FREE ENERGY PREDICTED BY IDOCK:   -6.50 KCAL/MOL
REMARK 922        TOTAL FREE ENERGY PREDICTED BY IDOCK:   -7.57 KCAL/MOL
REMARK 923 INTER-LIGAND FREE ENERGY PREDICTED BY IDOCK:   -7.23 KCAL/MOL
REMARK 924 INTRA-LIGAND FREE ENERGY PREDICTED BY IDOCK:   -0.34 KCAL/MOL
REMARK 927      BINDING AFFINITY PREDICTED BY RF-SCORE:    0.00 PKD
ROOT
HETATM    1  C   UNL     1      -8.809  14.783  66.867  1.00  0.00    -0.248 C  
HETATM    2  S   UNL     1      -9.424  14.793  68.600  1.00  0.00    -0.215 SA 
HETATM    3  C   UNL     1     -11.194  14.530  68.140  1.00  0.00    -0.284 C  
HETATM    4  C   UNL     1     -11.877  13.690  69.223  1.00  0.00    -0.395 C  
HETATM    5  C   UNL     1     -11.881  15.912  68.144  1.00  0.00    -0.001 C  
HETATM    6  CA  UNL     1     -11.159  13.907  66.722  1.00  0.00    -0.303 C  
HETATM    7  N   UNL     1      -9.988  14.472  66.026  1.00  0.00    -0.307 N  
HETATM    8  C   UNL     1     -11.043  12.373  66.664  1.00  0.00    -0.289 C  
HETATM    9  C   UNL     1     -10.056  15.734  65.496  1.00  0.00    -0.351 C  
HETATM   10  O   UNL     1     -10.074  11.931  65.818  1.00  0.00    -0.226 OA 
HETATM   11  OXT UNL     1     -11.792  11.596  67.240  1.00  0.00    -0.609 OA 
HETATM   12  O   UNL     1     -10.960  16.290  64.919  1.00  0.00    -0.565 OA 
HETATM   13  CA  UNL     1      -8.715  16.146  66.135  1.00  0.00    -0.323 C  
ENDROOT
BRANCH  13  14
HETATM   14  N   UNL     1      -8.720  17.360  66.995  1.00  0.00    -0.227 N  
HETATM   15  H   UNL     1      -9.182  17.345  67.905  1.00  0.00     0.000 HD 
HETATM   16  C   UNL     1      -8.097  18.500  66.552  1.00  0.00    -0.280 C  
HETATM   17  O   UNL     1      -7.521  18.503  65.460  1.00  0.00    -0.516 OA 
BRANCH  16  18
HETATM   18  C   UNL     1      -8.040  19.720  67.528  1.00  0.00    -0.302 C  
HETATM   19  C   UNL     1      -7.666  19.191  68.928  1.00  0.00    -0.358 C  
HETATM   20  N   UNL     1      -9.402  20.304  67.578  1.00  0.00    -0.379 NA 
HETATM   21  C   UNL     1      -6.228  18.661  68.943  1.00  0.00    -0.243 C  
HETATM   22  H1  UNL     1      -9.364  21.100  68.214  1.00  0.00     0.000 HD 
HETATM   23  H2  UNL     1     -10.120  19.625  67.829  1.00  0.00     0.000 HD 
HETATM   24  C   UNL     1      -5.231  19.735  68.520  1.00  0.00    -0.206 C  
HETATM   25  C   UNL     1      -5.596  20.387  67.190  1.00  0.00    -0.196 C  
HETATM   26  C   UNL     1      -7.056  20.840  67.141  1.00  0.00    -0.404 C  
ENDBRANCH  16  18
ENDBRANCH  13  14
TORSDOF 2
ENDMDL
MODEL       10
REMARK 921   NORMALIZED FREE ENERGY PREDICTED BY IDOCK:   -6.40 KCAL/MOL
REMARK 922        TOTAL FREE ENERGY PREDICTED BY IDOCK:   -7.45 KCAL/MOL
REMARK 923 INTER-LIGAND FREE ENERGY PREDICTED BY IDOCK:   -7.23 KCAL/MOL
REMARK 924 INTRA-LIGAND FREE ENERGY PREDICTED BY IDOCK:   -0.22 KCAL/MOL
REMARK 927      BINDING AFFINITY PREDICTED BY RF-SCORE:    0.00 PKD
ROOT
HETATM    1  C   UNL     1      -8.401  16.513  66.325  1.00  0.00    -0.329 C  
HETATM    2  S   UNL     1      -9.932  17.531  66.248  1.00  0.00    -0.285 SA 
HETATM    3  C   UNL     1      -9.819  18.114  67.999  1.00  0.00    -0.325 C  
HETATM    4  C   UNL     1     -10.373  19.539  68.092  1.00  0.00    -0.550 C  
HETATM    5  C   UNL     1     -10.749  17.216  68.843  1.00  0.00    -0.257 C  
HETATM    6  CA  UNL     1      -8.332  17.938  68.393  1.00  0.00    -0.304 C  
HETATM    7  N   UNL     1      -7.824  16.759  67.667  1.00  0.00    -0.172 N  
HETATM    8  C   UNL     1      -7.406  19.123  68.068  1.00  0.00    -0.256 C  
HETATM    9  C   UNL     1      -8.119  15.501  68.123  1.00  0.00    -0.132 C  
HETATM   10  O   UNL     1      -6.263  18.762  67.424  1.00  0.00    -0.183 OA 
HETATM   11  OXT UNL     1      -7.603  20.278  68.419  1.00  0.00    -0.198 OA 
HETATM   12  O   UNL     1      -8.173  15.073  69.252  1.00  0.00    -0.182 OA 
HETATM   13  CA  UNL     1      -8.554  15.024  66.723  1.00  0.00    -0.244 C  
ENDROOT
BRANCH  13  14
HETATM   14  N   UNL     1      -9.918  14.443  66.600  1.00  0.00    -0.264 N  
HETATM   15  H   UNL     1     -10.741  15.042  66.672  1.00  0.00     0.000 HD 
HETATM   16  C   UNL     1     -10.057  13.094  66.387  1.00  0.00    -0.281 C  
HETATM   17  O   UNL     1      -9.055  12.381  66.277  1.00  0.00    -0.194 OA 
BRANCH  16  18
HETATM   18  C   UNL     1     -11.503  12.542  66.164  1.00  0.00    -0.377 C  
HETATM   19  C   UNL     1     -12.418  13.733  65.814  1.00  0.00    -0.527 C  
HETATM   20  N   UNL     1     -11.947  11.949  67.448  1.00  0.00    -0.601 NA 
HETATM   21  C   UNL     1     -12.050  14.318  64.446  1.00  0.00    -0.490 C  
HETATM   22  H1  UNL     1     -12.890  11.588  67.303  1.00  0.00     0.000 HD 
HETATM   23  H2  UNL     1     -11.884  12.599  68.232  1.00  0.00     0.000 HD 
HETATM   24  C   UNL     1     -12.138  13.266  63.345  1.00  0.00    -0.508 C  
HETATM   25  C   UNL     1     -11.344  12.004  63.670  1.00  0.00    -0.536 C  
HETATM   26  C   UNL     1     -11.646  11.467  65.070  1.00  0.00    -0.032 C  
ENDBRANCH  16  18
ENDBRANCH  13  14
TORSDOF 2
ENDMDL
MODEL       11
REMARK 921   NORMALIZED FREE ENERGY PREDICTED BY IDOCK:   -6.30 KCAL/MOL
REMARK 922        TOTAL FREE ENERGY PREDICTED BY IDOCK:   -7.34 KCAL/MOL
REMARK 923 INTER-LIGAND FREE ENERGY PREDICTED BY IDOCK:   -7.01 KCAL/MOL
REMARK 924 INTRA-LIGAND FREE ENERGY PREDICTED BY IDOCK:   -0.33 KCAL/MOL
REMARK 927      BINDING AFFINITY PREDICTED BY RF-SCORE:    0.00 PKD
ROOT
HETATM    1  C   UNL     1      -8.089  17.178  66.270  1.00  0.00    -0.290 C  
HETATM    2  S   UNL     1      -9.610  18.199  66.105  1.00  0.00    -0.089 SA 
HETATM    3  C   UNL     1      -9.352  19.120  67.687  1.00  0.00    -0.303 C  
HETATM    4  C   UNL     1      -9.882  20.548  67.529  1.00  0.00    -0.534 C  
HETATM    5  C   UNL     1     -10.220  18.436  68.764  1.00  0.00    -0.333 C  
HETATM    6  CA  UNL     1      -7.840  18.988  67.994  1.00  0.00    -0.287 C  
HETATM    7  N   UNL     1      -7.404  17.675  67.486  1.00  0.00    -0.187 N  
HETATM    8  C   UNL     1      -6.930  20.059  67.366  1.00  0.00    -0.238 C  
HETATM    9  C   UNL     1      -7.674  16.542  68.210  1.00  0.00    -0.176 C  
HETATM   10  O   UNL     1      -5.846  19.545  66.723  1.00  0.00    -0.171 OA 
HETATM   11  OXT UNL     1      -7.087  21.265  67.488  1.00  0.00    -0.482 OA 
HETATM   12  O   UNL     1      -7.643  16.353  69.403  1.00  0.00    -0.229 OA 
HETATM   13  CA  UNL     1      -8.224  15.804  66.974  1.00  0.00    -0.228 C  
ENDROOT
BRANCH  13  14
HETATM   14  N   UNL     1      -9.600  15.246  67.075  1.00  0.00    -0.219 N  
HETATM   15  H   UNL     1     -10.395  15.863  67.243  1.00  0.00     0.000 HD 
HETATM   16  C   UNL     1      -9.788  13.893  66.940  1.00  0.00    -0.268 C  
HETATM   17  O   UNL     1      -8.823  13.156  66.714  1.00  0.00    -0.207 OA 
BRANCH  16  18
HETATM   18  C   UNL     1     -11.258  13.362  66.954  1.00  0.00    -0.308 C  
HETATM   19  C   UNL     1     -12.145  14.397  66.231  1.00  0.00    -0.384 C  
HETATM   20  N   UNL     1     -11.677  13.271  68.373  1.00  0.00    -0.334 NA 
HETATM   21  C   UNL     1     -11.805  14.455  64.738  1.00  0.00    -0.439 C  
HETATM   22  H1  UNL     1     -12.636  12.924  68.382  1.00  0.00     0.000 HD 
HETATM   23  H2  UNL     1     -11.564  14.148  68.881  1.00  0.00     0.000 HD 
HETATM   24  C   UNL     1     -11.968  13.092  64.074  1.00  0.00    -0.523 C  
HETATM   25  C   UNL     1     -11.205  11.987  64.799  1.00  0.00    -0.373 C  
HETATM   26  C   UNL     1     -11.476  11.982  66.305  1.00  0.00    -0.408 C  
ENDBRANCH  16  18
ENDBRANCH  13  14
TORSDOF 2
ENDMDL
MODEL       12
REMARK 921   NORMALIZED FREE ENERGY PREDICTED BY IDOCK:   -6.23 KCAL/MOL
REMARK 922        TOTAL FREE ENERGY PREDICTED BY IDOCK:   -7.26 KCAL/MOL
REMARK 923 INTER-LIGAND FREE ENERGY PREDICTED BY IDOCK:   -6.82 KCAL/MOL
REMARK 924 INTRA-LIGAND FREE ENERGY PREDICTED BY IDOCK:   -0.44 KCAL/MOL
REMARK 927      BINDING AFFINITY PREDICTED BY RF-SCORE:    0.00 PKD
ROOT
HETATM    1  C   UNL     1     -10.681  16.232  66.348  1.00  0.00    -0.182 C  
HETATM    2  S   UNL     1      -9.182  15.224  66.000  1.00  0.00    -0.183 SA 
HETATM    3  C   UNL     1      -9.627  13.870  67.177  1.00  0.00    -0.247 C  
HETATM    4  C   UNL     1      -9.127  12.534  66.619  1.00  0.00    -0.203 C  
HETATM    5  C   UNL     1      -8.853  14.127  68.487  1.00  0.00    -0.173 C  
HETATM    6  CA  UNL     1     -11.158  13.990  67.377  1.00  0.00    -0.303 C  
HETATM    7  N   UNL     1     -11.501  15.420  67.278  1.00  0.00    -0.235 N  
HETATM    8  C   UNL     1     -12.030  13.228  66.363  1.00  0.00    -0.410 C  
HETATM    9  C   UNL     1     -11.272  16.249  68.346  1.00  0.00    -0.349 C  
HETATM   10  O   UNL     1     -13.027  13.982  65.826  1.00  0.00    -0.517 OA 
HETATM   11  OXT UNL     1     -11.923  12.037  66.108  1.00  0.00    -0.581 OA 
HETATM   12  O   UNL     1     -11.419  16.056  69.529  1.00  0.00    -0.326 OA 
HETATM   13  CA  UNL     1     -10.577  17.303  67.462  1.00  0.00    -0.329 C  
ENDROOT
BRANCH  13  14
HETATM   14  N   UNL     1      -9.203  17.717  67.856  1.00  0.00    -0.262 N  
HETATM   15  H   UNL     1      -8.599  17.075  68.370  1.00  0.00     0.000 HD 
HETATM   16  C   UNL     1      -8.756  18.971  67.520  1.00  0.00    -0.290 C  
HETATM   17  O   UNL     1      -9.485  19.733  66.878  1.00  0.00    -0.330 OA 
BRANCH  16  18
HETATM   18  C   UNL     1      -7.274  19.328  67.865  1.00  0.00    -0.253 C  
HETATM   19  C   UNL     1      -6.389  18.131  67.457  1.00  0.00    -0.183 C  
HETATM   20  N   UNL     1      -7.198  19.508  69.335  1.00  0.00    -0.316 NA 
HETATM   21  C   UNL     1      -6.367  17.967  65.934  1.00  0.00    -0.294 C  
HETATM   22  H1  UNL     1      -6.231  19.741  69.560  1.00  0.00     0.000 HD 
HETATM   23  H2  UNL     1      -7.547  18.704  69.855  1.00  0.00     0.000 HD 
HETATM   24  C   UNL     1      -5.866  19.230  65.242  1.00  0.00    -0.242 C  
HETATM   25  C   UNL     1      -6.622  20.481  65.679  1.00  0.00    -0.268 C  
HETATM   26  C   UNL     1      -6.722  20.603  67.200  1.00  0.00    -0.350 C  
ENDBRANCH  16  18
ENDBRANCH  13  14
TORSDOF 2
ENDMDL
MODEL       13
REMARK 921   NORMALIZED FREE ENERGY PREDICTED BY IDOCK:   -6.18 KCAL/MOL
REMARK 922        TOTAL FREE ENERGY PREDICTED BY IDOCK:   -7.21 KCAL/MOL
REMARK 923 INTER-LIGAND FREE ENERGY PREDICTED BY IDOCK:   -7.01 KCAL/MOL
REMARK 924 INTRA-LIGAND FREE ENERGY PREDICTED BY IDOCK:   -0.20 KCAL/MOL
REMARK 927      BINDING AFFINITY PREDICTED BY RF-SCORE:    0.00 PKD
ROOT
HETATM    1  C   UNL     1     -12.004  13.058  66.478  1.00  0.00    -0.391 C  
HETATM    2  S   UNL     1     -11.306  14.314  67.625  1.00  0.00    -0.342 SA 
HETATM    3  C   UNL     1     -10.065  14.958  66.416  1.00  0.00    -0.284 C  
HETATM    4  C   UNL     1      -9.868  16.459  66.647  1.00  0.00    -0.272 C  
HETATM    5  C   UNL     1      -8.718  14.274  66.731  1.00  0.00    -0.161 C  
HETATM    6  CA  UNL     1     -10.606  14.553  65.022  1.00  0.00    -0.437 C  
HETATM    7  N   UNL     1     -11.314  13.271  65.184  1.00  0.00    -0.293 N  
HETATM    8  C   UNL     1     -11.580  15.547  64.364  1.00  0.00    -0.258 C  
HETATM    9  C   UNL     1     -10.599  12.105  65.271  1.00  0.00    -0.281 C  
HETATM   10  O   UNL     1     -12.715  14.965  63.890  1.00  0.00    -0.789 OA 
HETATM   11  OXT UNL     1     -11.349  16.735  64.187  1.00  0.00    -1.194 OA 
HETATM   12  O   UNL     1      -9.609  11.750  64.675  1.00  0.00    -0.189 OA 
HETATM   13  CA  UNL     1     -11.385  11.638  66.511  1.00  0.00    -0.263 C  
ENDROOT
BRANCH  13  14
HETATM   14  N   UNL     1     -10.594  11.290  67.723  1.00  0.00    -0.192 N  
HETATM   15  H   UNL     1     -10.264  12.024  68.350  1.00  0.00     0.000 HD 
HETATM   16  C   UNL     1     -10.315   9.972  67.988  1.00  0.00    -0.198 C  
HETATM   17  O   UNL     1     -10.739   9.089  67.237  1.00  0.00    -0.269 OA 
BRANCH  16  18
HETATM   18  C   UNL     1      -9.568   9.645  69.322  1.00  0.00    -0.185 C  
HETATM   19  C   UNL     1      -9.432   8.112  69.427  1.00  0.00    -0.162 C  
HETATM   20  N   UNL     1     -10.421  10.135  70.432  1.00  0.00    -0.412 NA 
HETATM   21  C   UNL     1      -8.482   7.576  68.351  1.00  0.00    -0.125 C  
HETATM   22  H1  UNL     1      -9.933   9.921  71.302  1.00  0.00     0.000 HD 
HETATM   23  H2  UNL     1     -11.369   9.760  70.403  1.00  0.00     0.000 HD 
HETATM   24  C   UNL     1      -7.103   8.217  68.452  1.00  0.00    -0.081 C  
HETATM   25  C   UNL     1      -7.161   9.742  68.466  1.00  0.00    -0.070 C  
HETATM   26  C   UNL     1      -8.173  10.279  69.479  1.00  0.00    -0.165 C  
ENDBRANCH  16  18
ENDBRANCH  13  14
TORSDOF 2
ENDMDL
MODEL       14
REMARK 921   NORMALIZED FREE ENERGY PREDICTED BY IDOCK:   -6.14 KCAL/MOL
REMARK 922        TOTAL FREE ENERGY PREDICTED BY IDOCK:   -7.17 KCAL/MOL
REMARK 923 INTER-LIGAND FREE ENERGY PREDICTED BY IDOCK:   -6.69 KCAL/MOL
REMARK 924 INTRA-LIGAND FREE ENERGY PREDICTED BY IDOCK:   -0.48 KCAL/MOL
REMARK 927      BINDING AFFINITY PREDICTED BY RF-SCORE:    0.00 PKD
ROOT
HETATM    1  C   UNL     1      -6.860  16.200  67.533  1.00  0.00    -0.165 C  
HETATM    2  S   UNL     1      -7.472  17.259  66.159  1.00  0.00    -0.210 SA 
HETATM    3  C   UNL     1      -8.544  18.310  67.237  1.00  0.00    -0.254 C  
HETATM    4  C   UNL     1      -8.571  19.737  66.682  1.00  0.00    -0.380 C  
HETATM    5  C   UNL     1      -9.982  17.761  67.131  1.00  0.00    -0.322 C  
HETATM    6  CA  UNL     1      -7.968  18.150  68.666  1.00  0.00    -0.288 C  
HETATM    7  N   UNL     1      -7.434  16.780  68.770  1.00  0.00    -0.219 N  
HETATM    8  C   UNL     1      -6.839  19.123  69.049  1.00  0.00    -0.328 C  
HETATM    9  C   UNL     1      -8.291  15.729  68.972  1.00  0.00    -0.236 C  
HETATM   10  O   UNL     1      -5.756  18.512  69.600  1.00  0.00    -0.221 OA 
HETATM   11  OXT UNL     1      -6.911  20.341  68.963  1.00  0.00    -0.250 OA 
HETATM   12  O   UNL     1      -9.276  15.649  69.667  1.00  0.00    -0.277 OA 
HETATM   13  CA  UNL     1      -7.650  14.903  67.840  1.00  0.00    -0.136 C  
ENDROOT
BRANCH  13  14
HETATM   14  N   UNL     1      -8.553  14.409  66.767  1.00  0.00    -0.409 N  
HETATM   15  H   UNL     1      -8.737  14.984  65.944  1.00  0.00     0.000 HD 
HETATM   16  C   UNL     1      -9.137  13.173  66.895  1.00  0.00    -0.229 C  
HETATM   17  O   UNL     1      -8.890  12.474  67.882  1.00  0.00    -0.168 OA 
BRANCH  16  18
HETATM   18  C   UNL     1      -9.999  12.652  65.699  1.00  0.00    -0.242 C  
HETATM   19  C   UNL     1     -11.215  11.901  66.280  1.00  0.00    -0.392 C  
HETATM   20  N   UNL     1      -9.158  11.698  64.936  1.00  0.00    -0.413 NA 
HETATM   21  C   UNL     1     -12.159  12.870  67.000  1.00  0.00    -0.296 C  
HETATM   22  H1  UNL     1      -9.720  11.359  64.156  1.00  0.00     0.000 HD 
HETATM   23  H2  UNL     1      -8.781  10.947  65.514  1.00  0.00     0.000 HD 
HETATM   24  C   UNL     1     -12.642  13.976  66.068  1.00  0.00    -0.452 C  
HETATM   25  C   UNL     1     -11.495  14.698  65.365  1.00  0.00    -0.352 C  
HETATM   26  C   UNL     1     -10.503  13.729  64.720  1.00  0.00    -0.448 C  
ENDBRANCH  16  18
ENDBRANCH  13  14
TORSDOF 2
ENDMDL
MODEL       15
REMARK 921   NORMALIZED FREE ENERGY PREDICTED BY IDOCK:   -6.13 KCAL/MOL
REMARK 922        TOTAL FREE ENERGY PREDICTED BY IDOCK:   -7.15 KCAL/MOL
REMARK 923 INTER-LIGAND FREE ENERGY PREDICTED BY IDOCK:   -6.98 KCAL/MOL
REMARK 924 INTRA-LIGAND FREE ENERGY PREDICTED BY IDOCK:   -0.17 KCAL/MOL
REMARK 927      BINDING AFFINITY PREDICTED BY RF-SCORE:    0.00 PKD
ROOT
HETATM    1  C   UNL     1     -10.170  14.370  64.964  1.00  0.00    -0.374 C  
HETATM    2  S   UNL     1      -9.288  13.778  66.466  1.00  0.00    -0.189 SA 
HETATM    3  C   UNL     1     -10.495  12.427  66.834  1.00  0.00    -0.224 C  
HETATM    4  C   UNL     1      -9.750  11.241  67.454  1.00  0.00    -0.190 C  
HETATM    5  C   UNL     1     -11.465  12.959  67.910  1.00  0.00    -0.362 C  
HETATM    6  CA  UNL     1     -11.216  12.147  65.493  1.00  0.00    -0.334 C  
HETATM    7  N   UNL     1     -11.295  13.427  64.764  1.00  0.00    -0.324 N  
HETATM    8  C   UNL     1     -10.538  11.122  64.566  1.00  0.00    -0.328 C  
HETATM    9  C   UNL     1     -12.248  14.349  65.111  1.00  0.00    -0.393 C  
HETATM   10  O   UNL     1     -10.407  11.550  63.281  1.00  0.00    -0.375 OA 
HETATM   11  OXT UNL     1     -10.218   9.989  64.897  1.00  0.00    -0.261 OA 
HETATM   12  O   UNL     1     -13.401  14.195  65.436  1.00  0.00    -0.705 OA 
HETATM   13  CA  UNL     1     -11.218  15.495  65.150  1.00  0.00    -0.318 C  
ENDROOT
BRANCH  13  14
HETATM   14  N   UNL     1     -11.128  16.282  66.410  1.00  0.00     0.020 N  
HETATM   15  H   UNL     1     -11.764  16.089  67.184  1.00  0.00     0.000 HD 
HETATM   16  C   UNL     1     -10.179  17.269  66.519  1.00  0.00    -0.325 C  
HETATM   17  O   UNL     1      -9.398  17.480  65.586  1.00  0.00    -0.467 OA 
BRANCH  16  18
HETATM   18  C   UNL     1     -10.054  18.003  67.894  1.00  0.00    -0.355 C  
HETATM   19  C   UNL     1     -10.274  16.961  69.011  1.00  0.00    -0.308 C  
HETATM   20  N   UNL     1     -11.138  19.012  67.951  1.00  0.00    -0.239 NA 
HETATM   21  C   UNL     1      -9.123  15.950  69.045  1.00  0.00    -0.240 C  
HETATM   22  H1  UNL     1     -11.056  19.491  68.848  1.00  0.00     0.000 HD 
HETATM   23  H2  UNL     1     -12.064  18.615  67.794  1.00  0.00     0.000 HD 
HETATM   24  C   UNL     1      -7.778  16.639  69.248  1.00  0.00    -0.110 C  
HETATM   25  C   UNL     1      -7.533  17.762  68.245  1.00  0.00    -0.247 C  
HETATM   26  C   UNL     1      -8.717  18.725  68.146  1.00  0.00    -0.335 C  
ENDBRANCH  16  18
ENDBRANCH  13  14
TORSDOF 2
ENDMDL
MODEL       16
REMARK 921   NORMALIZED FREE ENERGY PREDICTED BY IDOCK:   -6.10 KCAL/MOL
REMARK 922        TOTAL FREE ENERGY PREDICTED BY IDOCK:   -7.12 KCAL/MOL
REMARK 923 INTER-LIGAND FREE ENERGY PREDICTED BY IDOCK:   -6.96 KCAL/MOL
REMARK 924 INTRA-LIGAND FREE ENERGY PREDICTED BY IDOCK:   -0.16 KCAL/MOL
REMARK 927      BINDING AFFINITY PREDICTED BY RF-SCORE:    0.00 PKD
ROOT
HETATM    1  C   UNL     1      -8.312  17.149  66.269  1.00  0.00    -0.263 C  
HETATM    2  S   UNL     1      -9.776  18.257  66.151  1.00  0.00    -0.147 SA 
HETATM    3  C   UNL     1      -9.333  19.260  67.639  1.00  0.00    -0.307 C  
HETATM    4  C   UNL     1      -9.785  20.707  67.422  1.00  0.00    -0.552 C  
HETATM    5  C   UNL     1     -10.151  18.708  68.825  1.00  0.00    -0.398 C  
HETATM    6  CA  UNL     1      -7.812  19.047  67.836  1.00  0.00    -0.271 C  
HETATM    7  N   UNL     1      -7.501  17.677  67.391  1.00  0.00    -0.191 N  
HETATM    8  C   UNL     1      -6.893  20.011  67.065  1.00  0.00    -0.221 C  
HETATM    9  C   UNL     1      -7.780  16.615  68.211  1.00  0.00    -0.183 C  
HETATM   10  O   UNL     1      -5.898  19.385  66.378  1.00  0.00    -0.165 OA 
HETATM   11  OXT UNL     1      -6.964  21.231  67.114  1.00  0.00    -0.491 OA 
HETATM   12  O   UNL     1      -7.662  16.503  69.409  1.00  0.00    -0.209 OA 
HETATM   13  CA  UNL     1      -8.474  15.837  67.077  1.00  0.00    -0.220 C  
ENDROOT
BRANCH  13  14
HETATM   14  N   UNL     1      -9.868  15.380  67.324  1.00  0.00    -0.216 N  
HETATM   15  H   UNL     1     -10.657  15.908  66.950  1.00  0.00     0.000 HD 
HETATM   16  C   UNL     1     -10.082  14.240  68.059  1.00  0.00    -0.227 C  
HETATM   17  O   UNL     1      -9.121  13.593  68.487  1.00  0.00    -0.183 OA 
BRANCH  16  18
HETATM   18  C   UNL     1     -11.557  13.742  68.210  1.00  0.00    -0.338 C  
HETATM   19  C   UNL     1     -11.999  13.150  66.856  1.00  0.00    -0.421 C  
HETATM   20  N   UNL     1     -12.389  14.930  68.516  1.00  0.00    -0.586 NA 
HETATM   21  C   UNL     1     -11.224  11.865  66.545  1.00  0.00    -0.383 C  
HETATM   22  H1  UNL     1     -13.351  14.605  68.615  1.00  0.00     0.000 HD 
HETATM   23  H2  UNL     1     -12.289  15.677  67.830  1.00  0.00     0.000 HD 
HETATM   24  C   UNL     1     -11.407  10.822  67.642  1.00  0.00    -0.328 C  
HETATM   25  C   UNL     1     -11.093  11.367  69.032  1.00  0.00    -0.300 C  
HETATM   26  C   UNL     1     -11.798  12.694  69.313  1.00  0.00    -0.358 C  
ENDBRANCH  16  18
ENDBRANCH  13  14
TORSDOF 2
ENDMDL
MODEL       17
REMARK 921   NORMALIZED FREE ENERGY PREDICTED BY IDOCK:   -6.09 KCAL/MOL
REMARK 922        TOTAL FREE ENERGY PREDICTED BY IDOCK:   -7.11 KCAL/MOL
REMARK 923 INTER-LIGAND FREE ENERGY PREDICTED BY IDOCK:   -6.77 KCAL/MOL
REMARK 924 INTRA-LIGAND FREE ENERGY PREDICTED BY IDOCK:   -0.34 KCAL/MOL
REMARK 927      BINDING AFFINITY PREDICTED BY RF-SCORE:    0.00 PKD
ROOT
HETATM    1  C   UNL     1      -9.198  13.899  66.841  1.00  0.00    -0.259 C  
HETATM    2  S   UNL     1     -10.128  13.004  65.530  1.00  0.00    -0.222 SA 
HETATM    3  C   UNL     1     -11.620  14.089  65.627  1.00  0.00    -0.331 C  
HETATM    4  C   UNL     1     -12.241  14.217  64.233  1.00  0.00    -0.449 C  
HETATM    5  C   UNL     1     -12.656  13.368  66.515  1.00  0.00    -0.101 C  
HETATM    6  CA  UNL     1     -11.125  15.408  66.271  1.00  0.00    -0.226 C  
HETATM    7  N   UNL     1     -10.047  15.056  67.213  1.00  0.00    -0.235 N  
HETATM    8  C   UNL     1     -10.571  16.464  65.298  1.00  0.00    -0.299 C  
HETATM    9  C   UNL     1     -10.360  14.544  68.445  1.00  0.00    -0.241 C  
HETATM   10  O   UNL     1      -9.366  16.973  65.674  1.00  0.00    -0.523 OA 
HETATM   11  OXT UNL     1     -11.170  16.894  64.322  1.00  0.00    -1.204 OA 
HETATM   12  O   UNL     1     -11.250  14.838  69.209  1.00  0.00    -0.256 OA 
HETATM   13  CA  UNL     1      -9.349  13.391  68.297  1.00  0.00    -0.205 C  
ENDROOT
BRANCH  13  14
HETATM   14  N   UNL     1      -9.870  12.007  68.463  1.00  0.00    -0.295 N  
HETATM   15  H   UNL     1     -10.874  11.827  68.429  1.00  0.00     0.000 HD 
HETATM   16  C   UNL     1      -8.986  10.975  68.662  1.00  0.00    -0.167 C  
HETATM   17  O   UNL     1      -7.772  11.198  68.679  1.00  0.00    -0.118 OA 
BRANCH  16  18
HETATM   18  C   UNL     1      -9.569   9.526  68.733  1.00  0.00    -0.157 C  
HETATM   19  C   UNL     1      -8.492   8.610  69.349  1.00  0.00    -0.126 C  
HETATM   20  N   UNL     1      -9.835   9.094  67.339  1.00  0.00    -0.173 NA 
HETATM   21  C   UNL     1      -8.254   8.965  70.820  1.00  0.00    -0.198 C  
HETATM   22  H1  UNL     1     -10.216   8.149  67.385  1.00  0.00     0.000 HD 
HETATM   23  H2  UNL     1      -9.017   9.167  66.735  1.00  0.00     0.000 HD 
HETATM   24  C   UNL     1      -9.538   8.863  71.636  1.00  0.00    -0.363 C  
HETATM   25  C   UNL     1     -10.689   9.658  71.027  1.00  0.00    -0.393 C  
HETATM   26  C   UNL     1     -10.874   9.370  69.536  1.00  0.00    -0.231 C  
ENDBRANCH  16  18
ENDBRANCH  13  14
TORSDOF 2
ENDMDL
MODEL       18
REMARK 921   NORMALIZED FREE ENERGY PREDICTED BY IDOCK:   -6.07 KCAL/MOL
REMARK 922        TOTAL FREE ENERGY PREDICTED BY IDOCK:   -7.08 KCAL/MOL
REMARK 923 INTER-LIGAND FREE ENERGY PREDICTED BY IDOCK:   -6.68 KCAL/MOL
REMARK 924 INTRA-LIGAND FREE ENERGY PREDICTED BY IDOCK:   -0.41 KCAL/MOL
REMARK 927      BINDING AFFINITY PREDICTED BY RF-SCORE:    0.00 PKD
ROOT
HETATM    1  C   UNL     1      -9.947  17.664  68.510  1.00  0.00    -0.368 C  
HETATM    2  S   UNL     1      -8.254  17.210  69.069  1.00  0.00    -0.025 SA 
HETATM    3  C   UNL     1      -7.455  17.547  67.437  1.00  0.00    -0.195 C  
HETATM    4  C   UNL     1      -6.037  18.077  67.671  1.00  0.00    -0.162 C  
HETATM    5  C   UNL     1      -7.313  16.194  66.707  1.00  0.00    -0.220 C  
HETATM    6  CA  UNL     1      -8.422  18.504  66.698  1.00  0.00    -0.278 C  
HETATM    7  N   UNL     1      -9.791  18.153  67.120  1.00  0.00    -0.304 N  
HETATM    8  C   UNL     1      -8.220  20.005  66.969  1.00  0.00    -0.321 C  
HETATM    9  C   UNL     1     -10.413  17.061  66.571  1.00  0.00    -0.250 C  
HETATM   10  O   UNL     1      -9.369  20.663  67.283  1.00  0.00    -0.401 OA 
HETATM   11  OXT UNL     1      -7.159  20.600  66.835  1.00  0.00    -0.277 OA 
HETATM   12  O   UNL     1     -10.407  16.649  65.435  1.00  0.00    -0.584 OA 
HETATM   13  CA  UNL     1     -10.842  16.529  67.953  1.00  0.00    -0.326 C  
ENDROOT
BRANCH  13  14
HETATM   14  N   UNL     1     -10.438  15.139  68.297  1.00  0.00    -0.237 N  
HETATM   15  H   UNL     1      -9.582  14.967  68.825  1.00  0.00     0.000 HD 
HETATM   16  C   UNL     1     -11.230  14.090  67.898  1.00  0.00    -0.273 C  
HETATM   17  O   UNL     1     -12.277  14.309  67.281  1.00  0.00    -0.393 OA 
BRANCH  16  18
HETATM   18  C   UNL     1     -10.822  12.656  68.367  1.00  0.00    -0.245 C  
HETATM   19  C   UNL     1     -11.608  11.636  67.516  1.00  0.00    -0.345 C  
HETATM   20  N   UNL     1     -11.235  12.525  69.785  1.00  0.00    -0.487 NA 
HETATM   21  C   UNL     1     -11.144  11.675  66.056  1.00  0.00    -0.325 C  
HETATM   22  H1  UNL     1     -10.968  11.589  70.090  1.00  0.00     0.000 HD 
HETATM   23  H2  UNL     1     -12.223  12.728  69.934  1.00  0.00     0.000 HD 
HETATM   24  C   UNL     1      -9.650  11.396  65.936  1.00  0.00    -0.254 C  
HETATM   25  C   UNL     1      -8.807  12.295  66.836  1.00  0.00    -0.207 C  
HETATM   26  C   UNL     1      -9.320  12.326  68.276  1.00  0.00    -0.199 C  
ENDBRANCH  16  18
ENDBRANCH  13  14
TORSDOF 2
ENDMDL
MODEL       19
REMARK 921   NORMALIZED FREE ENERGY PREDICTED BY IDOCK:   -6.06 KCAL/MOL
REMARK 922        TOTAL FREE ENERGY PREDICTED BY IDOCK:   -7.07 KCAL/MOL
REMARK 923 INTER-LIGAND FREE ENERGY PREDICTED BY IDOCK:   -6.73 KCAL/MOL
REMARK 924 INTRA-LIGAND FREE ENERGY PREDICTED BY IDOCK:   -0.34 KCAL/MOL
REMARK 927      BINDING AFFINITY PREDICTED BY RF-SCORE:    0.00 PKD
ROOT
HETATM    1  C   UNL     1     -11.653  11.978  66.842  1.00  0.00    -0.318 C  
HETATM    2  S   UNL     1     -11.680  13.317  68.104  1.00  0.00    -0.367 SA 
HETATM    3  C   UNL     1     -10.180  14.177  67.452  1.00  0.00    -0.244 C  
HETATM    4  C   UNL     1     -10.334  15.686  67.663  1.00  0.00    -0.275 C  
HETATM    5  C   UNL     1      -8.981  13.724  68.311  1.00  0.00    -0.186 C  
HETATM    6  CA  UNL     1     -10.047  13.708  65.982  1.00  0.00    -0.312 C  
HETATM    7  N   UNL     1     -10.547  12.323  65.918  1.00  0.00    -0.249 N  
HETATM    8  C   UNL     1     -10.823  14.535  64.940  1.00  0.00    -0.421 C  
HETATM    9  C   UNL     1      -9.751  11.292  66.343  1.00  0.00    -0.209 C  
HETATM   10  O   UNL     1     -11.566  13.778  64.087  1.00  0.00    -0.381 OA 
HETATM   11  OXT UNL     1     -10.733  15.747  64.806  1.00  0.00    -0.500 OA 
HETATM   12  O   UNL     1      -8.563  11.117  66.208  1.00  0.00    -0.173 OA 
HETATM   13  CA  UNL     1     -10.881  10.682  67.194  1.00  0.00    -0.270 C  
ENDROOT
BRANCH  13  14
HETATM   14  N   UNL     1     -10.596  10.453  68.637  1.00  0.00    -0.196 N  
HETATM   15  H   UNL     1     -10.525  11.243  69.279  1.00  0.00     0.000 HD 
HETATM   16  C   UNL     1     -10.428   9.169  69.094  1.00  0.00    -0.217 C  
HETATM   17  O   UNL     1     -10.538   8.218  68.314  1.00  0.00    -0.187 OA 
BRANCH  16  18
HETATM   18  C   UNL     1     -10.229   8.969  70.632  1.00  0.00    -0.229 C  
HETATM   19  C   UNL     1     -11.349   9.739  71.361  1.00  0.00    -0.407 C  
HETATM   20  N   UNL     1      -8.919   9.568  70.984  1.00  0.00    -0.348 NA 
HETATM   21  C   UNL     1     -12.713   9.093  71.095  1.00  0.00    -0.271 C  
HETATM   22  H1  UNL     1      -8.789   9.436  71.987  1.00  0.00     0.000 HD 
HETATM   23  H2  UNL     1      -8.833  10.542  70.694  1.00  0.00     0.000 HD 
HETATM   24  C   UNL     1     -12.735   7.631  71.528  1.00  0.00    -0.373 C  
HETATM   25  C   UNL     1     -11.585   6.823  70.933  1.00  0.00    -0.403 C  
HETATM   26  C   UNL     1     -10.231   7.508  71.120  1.00  0.00    -0.199 C  
ENDBRANCH  16  18
ENDBRANCH  13  14
TORSDOF 2
ENDMDL
MODEL       20
REMARK 921   NORMALIZED FREE ENERGY PREDICTED BY IDOCK:   -6.00 KCAL/MOL
REMARK 922        TOTAL FREE ENERGY PREDICTED BY IDOCK:   -7.01 KCAL/MOL
REMARK 923 INTER-LIGAND FREE ENERGY PREDICTED BY IDOCK:   -6.69 KCAL/MOL
REMARK 924 INTRA-LIGAND FREE ENERGY PREDICTED BY IDOCK:   -0.32 KCAL/MOL
REMARK 927      BINDING AFFINITY PREDICTED BY RF-SCORE:    0.00 PKD
ROOT
HETATM    1  C   UNL     1      -8.278  16.212  66.428  1.00  0.00    -0.301 C  
HETATM    2  S   UNL     1      -9.863  17.019  65.956  1.00  0.00    -0.196 SA 
HETATM    3  C   UNL     1     -10.092  17.875  67.577  1.00  0.00    -0.342 C  
HETATM    4  C   UNL     1     -10.782  19.222  67.342  1.00  0.00    -0.594 C  
HETATM    5  C   UNL     1     -11.061  17.017  68.418  1.00  0.00    -0.164 C  
HETATM    6  CA  UNL     1      -8.679  17.939  68.209  1.00  0.00    -0.275 C  
HETATM    7  N   UNL     1      -7.954  16.730  67.778  1.00  0.00    -0.175 N  
HETATM    8  C   UNL     1      -7.825  19.160  67.824  1.00  0.00    -0.264 C  
HETATM    9  C   UNL     1      -8.202  15.531  68.395  1.00  0.00    -0.145 C  
HETATM   10  O   UNL     1      -6.564  18.840  67.426  1.00  0.00    -0.193 OA 
HETATM   11  OXT UNL     1      -8.183  20.324  67.939  1.00  0.00    -0.262 OA 
HETATM   12  O   UNL     1      -8.401  15.280  69.561  1.00  0.00    -0.244 OA 
HETATM   13  CA  UNL     1      -8.357  14.796  67.050  1.00  0.00    -0.198 C  
ENDROOT
BRANCH  13  14
HETATM   14  N   UNL     1      -9.623  14.046  66.830  1.00  0.00    -0.262 N  
HETATM   15  H   UNL     1     -10.508  14.546  66.739  1.00  0.00     0.000 HD 
HETATM   16  C   UNL     1      -9.588  12.676  66.751  1.00  0.00    -0.241 C  
HETATM   17  O   UNL     1      -8.510  12.081  66.839  1.00  0.00    -0.174 OA 
BRANCH  16  18
HETATM   18  C   UNL     1     -10.926  11.936  66.420  1.00  0.00    -0.292 C  
HETATM   19  C   UNL     1     -11.745  12.836  65.472  1.00  0.00    -0.436 C  
HETATM   20  N   UNL     1     -11.663  11.775  67.696  1.00  0.00    -0.553 NA 
HETATM   21  C   UNL     1     -11.060  12.952  64.106  1.00  0.00    -0.438 C  
HETATM   22  H1  UNL     1     -12.535  11.292  67.480  1.00  0.00     0.000 HD 
HETATM   23  H2  UNL     1     -11.806  12.656  68.189  1.00  0.00     0.000 HD 
HETATM   24  C   UNL     1     -10.857  11.585  63.463  1.00  0.00    -0.473 C  
HETATM   25  C   UNL     1     -10.147  10.598  64.386  1.00  0.00    -0.418 C  
HETATM   26  C   UNL     1     -10.777  10.544  65.778  1.00  0.00    -0.055 C  
ENDBRANCH  16  18
ENDBRANCH  13  14
TORSDOF 2
ENDMDL
MODEL       21
REMARK 921   NORMALIZED FREE ENERGY PREDICTED BY IDOCK:   -5.99 KCAL/MOL
REMARK 922        TOTAL FREE ENERGY PREDICTED BY IDOCK:   -6.99 KCAL/MOL
REMARK 923 INTER-LIGAND FREE ENERGY PREDICTED BY IDOCK:   -6.72 KCAL/MOL
REMARK 924 INTRA-LIGAND FREE ENERGY PREDICTED BY IDOCK:   -0.28 KCAL/MOL
REMARK 927      BINDING AFFINITY PREDICTED BY RF-SCORE:    0.00 PKD
ROOT
HETATM    1  C   UNL     1     -10.165  14.549  69.161  1.00  0.00    -0.164 C  
HETATM    2  S   UNL     1     -11.659  15.199  68.308  1.00  0.00    -0.316 SA 
HETATM    3  C   UNL     1     -11.253  14.433  66.676  1.00  0.00    -0.339 C  
HETATM    4  C   UNL     1     -12.552  14.039  65.967  1.00  0.00    -0.452 C  
HETATM    5  C   UNL     1     -10.583  15.521  65.811  1.00  0.00    -0.370 C  
HETATM    6  CA  UNL     1     -10.280  13.272  67.000  1.00  0.00    -0.244 C  
HETATM    7  N   UNL     1      -9.482  13.685  68.169  1.00  0.00    -0.212 N  
HETATM    8  C   UNL     1     -10.934  11.920  67.333  1.00  0.00    -0.263 C  
HETATM    9  C   UNL     1      -8.432  14.551  68.005  1.00  0.00    -0.161 C  
HETATM   10  O   UNL     1     -10.448  11.343  68.466  1.00  0.00    -0.188 OA 
HETATM   11  OXT UNL     1     -11.750  11.347  66.625  1.00  0.00    -0.434 OA 
HETATM   12  O   UNL     1      -7.607  14.618  67.124  1.00  0.00    -0.181 OA 
HETATM   13  CA  UNL     1      -8.901  15.444  69.170  1.00  0.00    -0.249 C  
ENDROOT
BRANCH  13  14
HETATM   14  N   UNL     1      -9.112  16.887  68.874  1.00  0.00    -0.252 N  
HETATM   15  H   UNL     1     -10.054  17.252  68.731  1.00  0.00     0.000 HD 
HETATM   16  C   UNL     1      -8.025  17.723  68.795  1.00  0.00    -0.238 C  
HETATM   17  O   UNL     1      -6.890  17.279  68.993  1.00  0.00    -0.225 OA 
BRANCH  16  18
HETATM   18  C   UNL     1      -8.299  19.248  68.581  1.00  0.00    -0.372 C  
HETATM   19  C   UNL     1      -7.764  19.636  67.187  1.00  0.00    -0.288 C  
HETATM   20  N   UNL     1      -7.530  19.979  69.617  1.00  0.00     0.024 NA 
HETATM   21  C   UNL     1      -8.594  18.971  66.083  1.00  0.00    -0.208 C  
HETATM   22  H1  UNL     1      -7.709  20.973  69.478  1.00  0.00     0.000 HD 
HETATM   23  H2  UNL     1      -6.536  19.747  69.616  1.00  0.00     0.000 HD 
HETATM   24  C   UNL     1     -10.068  19.347  66.187  1.00  0.00    -0.533 C  
HETATM   25  C   UNL     1     -10.644  19.094  67.577  1.00  0.00    -0.567 C  
HETATM   26  C   UNL     1      -9.772  19.683  68.687  1.00  0.00    -0.486 C  
ENDBRANCH  16  18
ENDBRANCH  13  14
TORSDOF 2
ENDMDL
MODEL       22
REMARK 921   NORMALIZED FREE ENERGY PREDICTED BY IDOCK:   -5.98 KCAL/MOL
REMARK 922        TOTAL FREE ENERGY PREDICTED BY IDOCK:   -6.98 KCAL/MOL
REMARK 923 INTER-LIGAND FREE ENERGY PREDICTED BY IDOCK:   -6.53 KCAL/MOL
REMARK 924 INTRA-LIGAND FREE ENERGY PREDICTED BY IDOCK:   -0.45 KCAL/MOL
REMARK 927      BINDING AFFINITY PREDICTED BY RF-SCORE:    0.00 PKD
ROOT
HETATM    1  C   UNL     1      -9.068  13.913  66.846  1.00  0.00    -0.245 C  
HETATM    2  S   UNL     1     -10.152  13.104  65.599  1.00  0.00    -0.240 SA 
HETATM    3  C   UNL     1     -11.562  14.275  65.836  1.00  0.00    -0.358 C  
HETATM    4  C   UNL     1     -12.284  14.471  64.499  1.00  0.00    -0.483 C  
HETATM    5  C   UNL     1     -12.567  13.597  66.792  1.00  0.00    -0.082 C  
HETATM    6  CA  UNL     1     -10.937  15.546  66.461  1.00  0.00    -0.243 C  
HETATM    7  N   UNL     1      -9.811  15.109  67.306  1.00  0.00    -0.227 N  
HETATM    8  C   UNL     1     -10.399  16.590  65.466  1.00  0.00    -0.284 C  
HETATM    9  C   UNL     1     -10.056  14.589  68.550  1.00  0.00    -0.242 C  
HETATM   10  O   UNL     1      -9.139  17.017  65.751  1.00  0.00    -0.530 OA 
HETATM   11  OXT UNL     1     -11.046  17.076  64.549  1.00  0.00    -1.098 OA 
HETATM   12  O   UNL     1     -10.862  14.919  69.389  1.00  0.00    -0.249 OA 
HETATM   13  CA  UNL     1      -9.132  13.381  68.300  1.00  0.00    -0.181 C  
ENDROOT
BRANCH  13  14
HETATM   14  N   UNL     1      -9.723  12.028  68.483  1.00  0.00    -0.313 N  
HETATM   15  H   UNL     1     -10.733  11.913  68.561  1.00  0.00     0.000 HD 
HETATM   16  C   UNL     1      -8.893  10.935  68.546  1.00  0.00    -0.153 C  
HETATM   17  O   UNL     1      -7.673  11.081  68.427  1.00  0.00    -0.105 OA 
BRANCH  16  18
HETATM   18  C   UNL     1      -9.560   9.524  68.639  1.00  0.00    -0.146 C  
HETATM   19  C   UNL     1     -10.561   9.394  67.472  1.00  0.00    -0.333 C  
HETATM   20  N   UNL     1     -10.301   9.475  69.922  1.00  0.00    -0.218 NA 
HETATM   21  C   UNL     1      -9.826   9.348  66.129  1.00  0.00    -0.356 C  
HETATM   22  H1  UNL     1     -10.736   8.555  69.983  1.00  0.00     0.000 HD 
HETATM   23  H2  UNL     1     -10.967  10.240  70.029  1.00  0.00     0.000 HD 
HETATM   24  C   UNL     1      -8.828   8.196  66.076  1.00  0.00    -0.206 C  
HETATM   25  C   UNL     1      -7.869   8.192  67.262  1.00  0.00    -0.105 C  
HETATM   26  C   UNL     1      -8.594   8.326  68.601  1.00  0.00    -0.133 C  
ENDBRANCH  16  18
ENDBRANCH  13  14
TORSDOF 2
ENDMDL
MODEL       23
REMARK 921   NORMALIZED FREE ENERGY PREDICTED BY IDOCK:   -5.97 KCAL/MOL
REMARK 922        TOTAL FREE ENERGY PREDICTED BY IDOCK:   -6.98 KCAL/MOL
REMARK 923 INTER-LIGAND FREE ENERGY PREDICTED BY IDOCK:   -6.58 KCAL/MOL
REMARK 924 INTRA-LIGAND FREE ENERGY PREDICTED BY IDOCK:   -0.39 KCAL/MOL
REMARK 927      BINDING AFFINITY PREDICTED BY RF-SCORE:    0.00 PKD
ROOT
HETATM    1  C   UNL     1     -11.284  15.910  68.398  1.00  0.00    -0.368 C  
HETATM    2  S   UNL     1     -11.271  15.368  66.640  1.00  0.00    -0.096 SA 
HETATM    3  C   UNL     1     -10.277  13.841  66.955  1.00  0.00    -0.254 C  
HETATM    4  C   UNL     1     -10.725  12.741  65.988  1.00  0.00    -0.295 C  
HETATM    5  C   UNL     1      -8.809  14.169  66.612  1.00  0.00    -0.141 C  
HETATM    6  CA  UNL     1     -10.465  13.536  68.462  1.00  0.00    -0.244 C  
HETATM    7  N   UNL     1     -10.610  14.829  69.155  1.00  0.00    -0.244 N  
HETATM    8  C   UNL     1     -11.684  12.670  68.825  1.00  0.00    -0.323 C  
HETATM    9  C   UNL     1      -9.499  15.586  69.422  1.00  0.00    -0.278 C  
HETATM   10  O   UNL     1     -12.435  13.182  69.838  1.00  0.00    -0.173 OA 
HETATM   11  OXT UNL     1     -11.934  11.578  68.335  1.00  0.00    -0.511 OA 
HETATM   12  O   UNL     1      -8.396  15.251  69.783  1.00  0.00    -0.194 OA 
HETATM   13  CA  UNL     1     -10.153  16.863  68.860  1.00  0.00    -0.297 C  
ENDROOT
BRANCH  13  14
HETATM   14  N   UNL     1      -9.417  17.584  67.786  1.00  0.00    -0.265 N  
HETATM   15  H   UNL     1      -9.205  17.118  66.904  1.00  0.00     0.000 HD 
HETATM   16  C   UNL     1      -9.027  18.884  67.996  1.00  0.00    -0.305 C  
HETATM   17  O   UNL     1      -9.309  19.449  69.057  1.00  0.00    -0.373 OA 
BRANCH  16  18
HETATM   18  C   UNL     1      -8.345  19.635  66.806  1.00  0.00    -0.308 C  
HETATM   19  C   UNL     1      -7.449  20.745  67.395  1.00  0.00    -0.374 C  
HETATM   20  N   UNL     1      -9.427  20.258  66.005  1.00  0.00    -0.634 NA 
HETATM   21  C   UNL     1      -6.264  20.139  68.155  1.00  0.00    -0.295 C  
HETATM   22  H1  UNL     1      -8.981  20.748  65.229  1.00  0.00     0.000 HD 
HETATM   23  H2  UNL     1     -10.039  20.858  66.558  1.00  0.00     0.000 HD 
HETATM   24  C   UNL     1      -5.429  19.232  67.258  1.00  0.00    -0.165 C  
HETATM   25  C   UNL     1      -6.266  18.171  66.549  1.00  0.00    -0.215 C  
HETATM   26  C   UNL     1      -7.498  18.761  65.862  1.00  0.00    -0.233 C  
ENDBRANCH  16  18
ENDBRANCH  13  14
TORSDOF 2
ENDMDL
MODEL       24
REMARK 921   NORMALIZED FREE ENERGY PREDICTED BY IDOCK:   -5.83 KCAL/MOL
REMARK 922        TOTAL FREE ENERGY PREDICTED BY IDOCK:   -6.82 KCAL/MOL
REMARK 923 INTER-LIGAND FREE ENERGY PREDICTED BY IDOCK:   -6.59 KCAL/MOL
REMARK 924 INTRA-LIGAND FREE ENERGY PREDICTED BY IDOCK:   -0.23 KCAL/MOL
REMARK 927      BINDING AFFINITY PREDICTED BY RF-SCORE:    0.00 PKD
ROOT
HETATM    1  C   UNL     1     -11.761  14.025  67.129  1.00  0.00    -0.393 C  
HETATM    2  S   UNL     1     -10.646  13.533  65.752  1.00  0.00    -0.289 SA 
HETATM    3  C   UNL     1      -9.481  12.582  66.826  1.00  0.00    -0.231 C  
HETATM    4  C   UNL     1      -8.926  11.392  66.038  1.00  0.00    -0.203 C  
HETATM    5  C   UNL     1      -8.286  13.507  67.141  1.00  0.00    -0.151 C  
HETATM    6  CA  UNL     1     -10.292  12.233  68.099  1.00  0.00    -0.216 C  
HETATM    7  N   UNL     1     -11.235  13.341  68.333  1.00  0.00    -0.263 N  
HETATM    8  C   UNL     1     -11.107  10.929  68.039  1.00  0.00    -0.293 C  
HETATM    9  C   UNL     1     -10.789  14.503  68.908  1.00  0.00    -0.253 C  
HETATM   10  O   UNL     1     -12.399  11.074  68.442  1.00  0.00    -0.528 OA 
HETATM   11  OXT UNL     1     -10.649   9.833  67.749  1.00  0.00    -0.233 OA 
HETATM   12  O   UNL     1      -9.998  14.676  69.805  1.00  0.00     0.033 OA 
HETATM   13  CA  UNL     1     -11.472  15.373  67.835  1.00  0.00    -0.299 C  
ENDROOT
BRANCH  13  14
HETATM   14  N   UNL     1     -10.612  16.335  67.095  1.00  0.00    -0.310 N  
HETATM   15  H   UNL     1     -10.244  16.095  66.174  1.00  0.00     0.000 HD 
HETATM   16  C   UNL     1     -10.317  17.550  67.665  1.00  0.00    -0.360 C  
HETATM   17  O   UNL     1     -10.785  17.842  68.769  1.00  0.00    -0.221 OA 
BRANCH  16  18
HETATM   18  C   UNL     1      -9.493  18.569  66.812  1.00  0.00    -0.301 C  
HETATM   19  C   UNL     1      -9.302  19.848  67.653  1.00  0.00    -0.464 C  
HETATM   20  N   UNL     1     -10.305  18.892  65.613  1.00  0.00    -0.531 NA 
HETATM   21  C   UNL     1      -8.390  19.577  68.854  1.00  0.00    -0.300 C  
HETATM   22  H1  UNL     1      -9.767  19.556  65.057  1.00  0.00     0.000 HD 
HETATM   23  H2  UNL     1     -11.240  19.227  65.842  1.00  0.00     0.000 HD 
HETATM   24  C   UNL     1      -7.030  19.046  68.416  1.00  0.00    -0.290 C  
HETATM   25  C   UNL     1      -7.138  17.841  67.487  1.00  0.00    -0.198 C  
HETATM   26  C   UNL     1      -8.114  18.077  66.334  1.00  0.00    -0.292 C  
ENDBRANCH  16  18
ENDBRANCH  13  14
TORSDOF 2
ENDMDL
MODEL       25
REMARK 921   NORMALIZED FREE ENERGY PREDICTED BY IDOCK:   -5.80 KCAL/MOL
REMARK 922        TOTAL FREE ENERGY PREDICTED BY IDOCK:   -6.79 KCAL/MOL
REMARK 923 INTER-LIGAND FREE ENERGY PREDICTED BY IDOCK:   -6.38 KCAL/MOL
REMARK 924 INTRA-LIGAND FREE ENERGY PREDICTED BY IDOCK:   -0.41 KCAL/MOL
REMARK 927      BINDING AFFINITY PREDICTED BY RF-SCORE:    0.00 PKD
ROOT
HETATM    1  C   UNL     1      -8.152  16.793  66.314  1.00  0.00    -0.330 C  
HETATM    2  S   UNL     1      -9.690  17.798  66.221  1.00  0.00    -0.228 SA 
HETATM    3  C   UNL     1      -9.452  18.601  67.868  1.00  0.00    -0.303 C  
HETATM    4  C   UNL     1     -10.005  20.028  67.817  1.00  0.00    -0.560 C  
HETATM    5  C   UNL     1     -10.311  17.824  68.888  1.00  0.00    -0.300 C  
HETATM    6  CA  UNL     1      -7.938  18.473  68.171  1.00  0.00    -0.289 C  
HETATM    7  N   UNL     1      -7.478  17.209  67.567  1.00  0.00    -0.159 N  
HETATM    8  C   UNL     1      -7.046  19.603  67.628  1.00  0.00    -0.240 C  
HETATM    9  C   UNL     1      -7.730  16.020  68.202  1.00  0.00    -0.133 C  
HETATM   10  O   UNL     1      -5.951  19.158  66.953  1.00  0.00    -0.164 OA 
HETATM   11  OXT UNL     1      -7.224  20.794  67.840  1.00  0.00    -0.257 OA 
HETATM   12  O   UNL     1      -7.699  15.742  69.378  1.00  0.00    -0.219 OA 
HETATM   13  CA  UNL     1      -8.265  15.369  66.912  1.00  0.00    -0.246 C  
ENDROOT
BRANCH  13  14
HETATM   14  N   UNL     1      -9.631  14.781  66.966  1.00  0.00    -0.233 N  
HETATM   15  H   UNL     1     -10.446  15.383  67.092  1.00  0.00     0.000 HD 
HETATM   16  C   UNL     1      -9.784  13.422  66.844  1.00  0.00    -0.253 C  
HETATM   17  O   UNL     1      -8.795  12.704  66.668  1.00  0.00    -0.203 OA 
BRANCH  16  18
HETATM   18  C   UNL     1     -11.242  12.858  66.806  1.00  0.00    -0.298 C  
HETATM   19  C   UNL     1     -11.198  11.394  67.291  1.00  0.00    -0.370 C  
HETATM   20  N   UNL     1     -11.686  12.889  65.392  1.00  0.00    -0.354 NA 
HETATM   21  C   UNL     1     -10.831  11.324  68.777  1.00  0.00    -0.252 C  
HETATM   22  H1  UNL     1     -12.637  12.521  65.368  1.00  0.00     0.000 HD 
HETATM   23  H2  UNL     1     -11.051  12.397  64.763  1.00  0.00     0.000 HD 
HETATM   24  C   UNL     1     -11.814  12.115  69.634  1.00  0.00    -0.391 C  
HETATM   25  C   UNL     1     -11.997  13.550  69.148  1.00  0.00    -0.378 C  
HETATM   26  C   UNL     1     -12.277  13.628  67.647  1.00  0.00    -0.224 C  
ENDBRANCH  16  18
ENDBRANCH  13  14
TORSDOF 2
ENDMDL
MODEL       26
REMARK 921   NORMALIZED FREE ENERGY PREDICTED BY IDOCK:   -5.79 KCAL/MOL
REMARK 922        TOTAL FREE ENERGY PREDICTED BY IDOCK:   -6.78 KCAL/MOL
REMARK 923 INTER-LIGAND FREE ENERGY PREDICTED BY IDOCK:   -6.54 KCAL/MOL
REMARK 924 INTRA-LIGAND FREE ENERGY PREDICTED BY IDOCK:   -0.24 KCAL/MOL
REMARK 927      BINDING AFFINITY PREDICTED BY RF-SCORE:    0.00 PKD
ROOT
HETATM    1  C   UNL     1     -10.473  16.522  67.980  1.00  0.00    -0.313 C  
HETATM    2  S   UNL     1      -8.806  16.754  68.722  1.00  0.00    -0.235 SA 
HETATM    3  C   UNL     1      -8.145  17.748  67.311  1.00  0.00    -0.211 C  
HETATM    4  C   UNL     1      -7.154  18.786  67.848  1.00  0.00    -0.253 C  
HETATM    5  C   UNL     1      -7.342  16.788  66.409  1.00  0.00    -0.261 C  
HETATM    6  CA  UNL     1      -9.393  18.313  66.589  1.00  0.00    -0.303 C  
HETATM    7  N   UNL     1     -10.467  17.313  66.727  1.00  0.00    -0.295 N  
HETATM    8  C   UNL     1      -9.929  19.654  67.122  1.00  0.00    -0.387 C  
HETATM    9  C   UNL     1     -10.472  16.204  65.921  1.00  0.00    -0.352 C  
HETATM   10  O   UNL     1     -11.270  19.653  67.349  1.00  0.00    -0.293 OA 
HETATM   11  OXT UNL     1      -9.259  20.668  67.254  1.00  0.00    -0.384 OA 
HETATM   12  O   UNL     1     -10.198  16.090  64.750  1.00  0.00    -0.425 OA 
HETATM   13  CA  UNL     1     -10.699  15.256  67.115  1.00  0.00    -0.316 C  
ENDROOT
BRANCH  13  14
HETATM   14  N   UNL     1      -9.721  14.149  67.295  1.00  0.00    -0.231 N  
HETATM   15  H   UNL     1      -8.957  14.241  67.965  1.00  0.00     0.000 HD 
HETATM   16  C   UNL     1      -9.858  13.004  66.551  1.00  0.00    -0.263 C  
HETATM   17  O   UNL     1     -10.799  12.892  65.759  1.00  0.00    -0.265 OA 
BRANCH  16  18
HETATM   18  C   UNL     1      -8.869  11.828  66.843  1.00  0.00    -0.191 C  
HETATM   19  C   UNL     1      -9.156  11.309  68.267  1.00  0.00    -0.173 C  
HETATM   20  N   UNL     1      -7.498  12.389  66.797  1.00  0.00    -0.385 NA 
HETATM   21  C   UNL     1     -10.532  10.637  68.334  1.00  0.00    -0.212 C  
HETATM   22  H1  UNL     1      -6.853  11.622  66.988  1.00  0.00     0.000 HD 
HETATM   23  H2  UNL     1      -7.370  13.184  67.423  1.00  0.00     0.000 HD 
HETATM   24  C   UNL     1     -10.641   9.486  67.340  1.00  0.00    -0.337 C  
HETATM   25  C   UNL     1     -10.264   9.895  65.920  1.00  0.00    -0.264 C  
HETATM   26  C   UNL     1      -8.932  10.644  65.861  1.00  0.00    -0.192 C  
ENDBRANCH  16  18
ENDBRANCH  13  14
TORSDOF 2
ENDMDL
MODEL       27
REMARK 921   NORMALIZED FREE ENERGY PREDICTED BY IDOCK:   -5.76 KCAL/MOL
REMARK 922        TOTAL FREE ENERGY PREDICTED BY IDOCK:   -6.74 KCAL/MOL
REMARK 923 INTER-LIGAND FREE ENERGY PREDICTED BY IDOCK:   -6.35 KCAL/MOL
REMARK 924 INTRA-LIGAND FREE ENERGY PREDICTED BY IDOCK:   -0.39 KCAL/MOL
REMARK 927      BINDING AFFINITY PREDICTED BY RF-SCORE:    0.00 PKD
ROOT
HETATM    1  C   UNL     1      -9.215  12.047  67.794  1.00  0.00    -0.190 C  
HETATM    2  S   UNL     1      -8.229  10.823  66.838  1.00  0.00    -0.135 SA 
HETATM    3  C   UNL     1      -9.607  10.376  65.689  1.00  0.00    -0.226 C  
HETATM    4  C   UNL     1      -9.026  10.049  64.310  1.00  0.00    -0.269 C  
HETATM    5  C   UNL     1     -10.248   9.078  66.224  1.00  0.00    -0.237 C  
HETATM    6  CA  UNL     1     -10.589  11.572  65.745  1.00  0.00    -0.263 C  
HETATM    7  N   UNL     1     -10.527  12.125  67.110  1.00  0.00    -0.217 N  
HETATM    8  C   UNL     1     -10.306  12.721  64.761  1.00  0.00    -0.322 C  
HETATM    9  C   UNL     1     -11.196  11.497  68.129  1.00  0.00    -0.271 C  
HETATM   10  O   UNL     1     -10.311  13.951  65.342  1.00  0.00    -0.315 OA 
HETATM   11  OXT UNL     1     -10.173  12.586  63.553  1.00  0.00    -0.390 OA 
HETATM   12  O   UNL     1     -12.283  10.971  68.140  1.00  0.00    -0.578 OA 
HETATM   13  CA  UNL     1      -9.962  11.536  69.051  1.00  0.00    -0.019 C  
ENDROOT
BRANCH  13  14
HETATM   14  N   UNL     1      -9.497  10.240  69.615  1.00  0.00    -0.364 N  
HETATM   15  H   UNL     1      -8.671   9.779  69.233  1.00  0.00     0.000 HD 
HETATM   16  C   UNL     1     -10.191   9.671  70.654  1.00  0.00    -0.278 C  
HETATM   17  O   UNL     1     -11.176  10.247  71.126  1.00  0.00    -0.277 OA 
BRANCH  16  18
HETATM   18  C   UNL     1      -9.612   8.361  71.281  1.00  0.00    -0.185 C  
HETATM   19  C   UNL     1     -10.782   7.575  71.906  1.00  0.00    -0.253 C  
HETATM   20  N   UNL     1      -8.672   8.768  72.353  1.00  0.00    -0.403 NA 
HETATM   21  C   UNL     1     -11.730   7.056  70.820  1.00  0.00    -0.394 C  
HETATM   22  H1  UNL     1      -8.294   7.914  72.762  1.00  0.00     0.000 HD 
HETATM   23  H2  UNL     1      -9.097   9.387  73.043  1.00  0.00     0.000 HD 
HETATM   24  C   UNL     1     -11.000   6.170  69.816  1.00  0.00    -0.459 C  
HETATM   25  C   UNL     1      -9.759   6.840  69.232  1.00  0.00    -0.153 C  
HETATM   26  C   UNL     1      -8.854   7.436  70.311  1.00  0.00    -0.147 C  
ENDBRANCH  16  18
ENDBRANCH  13  14
TORSDOF 2
ENDMDL
MODEL       28
REMARK 921   NORMALIZED FREE ENERGY PREDICTED BY IDOCK:   -5.74 KCAL/MOL
REMARK 922        TOTAL FREE ENERGY PREDICTED BY IDOCK:   -6.71 KCAL/MOL
REMARK 923 INTER-LIGAND FREE ENERGY PREDICTED BY IDOCK:   -6.36 KCAL/MOL
REMARK 924 INTRA-LIGAND FREE ENERGY PREDICTED BY IDOCK:   -0.35 KCAL/MOL
REMARK 927      BINDING AFFINITY PREDICTED BY RF-SCORE:    0.00 PKD
ROOT
HETATM    1  C   UNL     1      -9.031  11.190  66.453  1.00  0.00    -0.182 C  
HETATM    2  S   UNL     1      -8.546  11.208  68.227  1.00  0.00    -0.152 SA 
HETATM    3  C   UNL     1     -10.181  10.605  68.842  1.00  0.00    -0.201 C  
HETATM    4  C   UNL     1      -9.962   9.733  70.082  1.00  0.00    -0.315 C  
HETATM    5  C   UNL     1     -10.984  11.841  69.300  1.00  0.00    -0.231 C  
HETATM    6  CA  UNL     1     -10.841   9.905  67.629  1.00  0.00    -0.257 C  
HETATM    7  N   UNL     1     -10.398  10.619  66.418  1.00  0.00    -0.237 N  
HETATM    8  C   UNL     1     -10.499   8.415  67.445  1.00  0.00    -0.283 C  
HETATM    9  C   UNL     1     -10.984  11.811  66.079  1.00  0.00    -0.306 C  
HETATM   10  O   UNL     1     -10.118   8.095  66.179  1.00  0.00    -0.117 OA 
HETATM   11  OXT UNL     1     -10.632   7.559  68.308  1.00  0.00    -0.193 OA 
HETATM   12  O   UNL     1     -12.139  12.158  66.144  1.00  0.00    -0.621 OA 
HETATM   13  CA  UNL     1      -9.620  12.495  65.861  1.00  0.00    -0.168 C  
ENDROOT
BRANCH  13  14
HETATM   14  N   UNL     1      -9.360  13.744  66.626  1.00  0.00    -0.318 N  
HETATM   15  H   UNL     1      -8.816  13.716  67.488  1.00  0.00     0.000 HD 
HETATM   16  C   UNL     1      -9.860  14.935  66.159  1.00  0.00    -0.308 C  
HETATM   17  O   UNL     1     -10.497  14.964  65.102  1.00  0.00    -0.372 OA 
BRANCH  16  18
HETATM   18  C   UNL     1      -9.479  16.236  66.939  1.00  0.00    -0.230 C  
HETATM   19  C   UNL     1     -10.780  16.863  67.481  1.00  0.00    -0.270 C  
HETATM   20  N   UNL     1      -8.861  17.166  65.964  1.00  0.00    -0.524 NA 
HETATM   21  C   UNL     1     -11.403  15.973  68.563  1.00  0.00    -0.382 C  
HETATM   22  H1  UNL     1      -8.612  18.014  66.473  1.00  0.00     0.000 HD 
HETATM   23  H2  UNL     1      -9.453  17.345  65.152  1.00  0.00     0.000 HD 
HETATM   24  C   UNL     1     -10.434  15.732  69.715  1.00  0.00    -0.318 C  
HETATM   25  C   UNL     1      -9.078  15.212  69.247  1.00  0.00    -0.201 C  
HETATM   26  C   UNL     1      -8.493  16.048  68.108  1.00  0.00    -0.169 C  
ENDBRANCH  16  18
ENDBRANCH  13  14
TORSDOF 2
ENDMDL
MODEL       29
REMARK 921   NORMALIZED FREE ENERGY PREDICTED BY IDOCK:   -5.71 KCAL/MOL
REMARK 922        TOTAL FREE ENERGY PREDICTED BY IDOCK:   -6.69 KCAL/MOL
REMARK 923 INTER-LIGAND FREE ENERGY PREDICTED BY IDOCK:   -6.43 KCAL/MOL
REMARK 924 INTRA-LIGAND FREE ENERGY PREDICTED BY IDOCK:   -0.26 KCAL/MOL
REMARK 927      BINDING AFFINITY PREDICTED BY RF-SCORE:    0.00 PKD
ROOT
HETATM    1  C   UNL     1      -9.233  12.091  66.423  1.00  0.00    -0.216 C  
HETATM    2  S   UNL     1      -9.048  11.670  68.204  1.00  0.00    -0.187 SA 
HETATM    3  C   UNL     1     -10.436  10.449  68.221  1.00  0.00    -0.191 C  
HETATM    4  C   UNL     1     -10.106   9.325  69.207  1.00  0.00    -0.201 C  
HETATM    5  C   UNL     1     -11.681  11.177  68.772  1.00  0.00    -0.394 C  
HETATM    6  CA  UNL     1     -10.623  10.023  66.744  1.00  0.00    -0.159 C  
HETATM    7  N   UNL     1     -10.290  11.190  65.907  1.00  0.00    -0.253 N  
HETATM    8  C   UNL     1      -9.755   8.843  66.271  1.00  0.00    -0.275 C  
HETATM    9  C   UNL     1     -11.203  12.201  65.755  1.00  0.00    -0.339 C  
HETATM   10  O   UNL     1      -9.105   9.080  65.098  1.00  0.00    -0.207 OA 
HETATM   11  OXT UNL     1      -9.700   7.753  66.821  1.00  0.00    -0.193 OA 
HETATM   12  O   UNL     1     -12.403  12.154  65.623  1.00  0.00    -0.560 OA 
HETATM   13  CA  UNL     1     -10.152  13.285  66.064  1.00  0.00    -0.299 C  
ENDROOT
BRANCH  13  14
HETATM   14  N   UNL     1     -10.464  14.234  67.167  1.00  0.00    -0.265 N  
HETATM   15  H   UNL     1     -10.775  13.886  68.074  1.00  0.00     0.000 HD 
HETATM   16  C   UNL     1     -10.327  15.584  66.950  1.00  0.00    -0.290 C  
HETATM   17  O   UNL     1      -9.927  15.995  65.857  1.00  0.00    -0.308 OA 
BRANCH  16  18
HETATM   18  C   UNL     1     -10.568  16.539  68.164  1.00  0.00    -0.329 C  
HETATM   19  C   UNL     1      -9.482  16.250  69.221  1.00  0.00    -0.202 C  
HETATM   20  N   UNL     1     -11.897  16.201  68.729  1.00  0.00    -0.327 NA 
HETATM   21  C   UNL     1      -8.101  16.672  68.709  1.00  0.00    -0.247 C  
HETATM   22  H1  UNL     1     -12.054  16.825  69.521  1.00  0.00     0.000 HD 
HETATM   23  H2  UNL     1     -11.989  15.215  68.972  1.00  0.00     0.000 HD 
HETATM   24  C   UNL     1      -8.069  18.151  68.338  1.00  0.00    -0.313 C  
HETATM   25  C   UNL     1      -9.188  18.541  67.376  1.00  0.00    -0.286 C  
HETATM   26  C   UNL     1     -10.558  18.045  67.841  1.00  0.00    -0.387 C  
ENDBRANCH  16  18
ENDBRANCH  13  14
TORSDOF 2
ENDMDL
MODEL       30
REMARK 921   NORMALIZED FREE ENERGY PREDICTED BY IDOCK:   -5.59 KCAL/MOL
REMARK 922        TOTAL FREE ENERGY PREDICTED BY IDOCK:   -6.55 KCAL/MOL
REMARK 923 INTER-LIGAND FREE ENERGY PREDICTED BY IDOCK:   -6.34 KCAL/MOL
REMARK 924 INTRA-LIGAND FREE ENERGY PREDICTED BY IDOCK:   -0.21 KCAL/MOL
REMARK 927      BINDING AFFINITY PREDICTED BY RF-SCORE:    0.00 PKD
ROOT
HETATM    1  C   UNL     1     -10.098  14.892  69.102  1.00  0.00    -0.226 C  
HETATM    2  S   UNL     1     -11.535  15.465  68.107  1.00  0.00    -0.316 SA 
HETATM    3  C   UNL     1     -11.186  14.352  66.673  1.00  0.00    -0.339 C  
HETATM    4  C   UNL     1     -12.510  13.920  66.036  1.00  0.00    -0.501 C  
HETATM    5  C   UNL     1     -10.431  15.187  65.617  1.00  0.00    -0.378 C  
HETATM    6  CA  UNL     1     -10.306  13.213  67.245  1.00  0.00    -0.243 C  
HETATM    7  N   UNL     1      -9.482  13.795  68.320  1.00  0.00    -0.212 N  
HETATM    8  C   UNL     1     -11.064  12.010  67.836  1.00  0.00    -0.236 C  
HETATM    9  C   UNL     1      -8.368  14.528  68.001  1.00  0.00    -0.153 C  
HETATM   10  O   UNL     1     -10.627  11.643  69.071  1.00  0.00    -0.207 OA 
HETATM   11  OXT UNL     1     -11.919  11.368  67.244  1.00  0.00    -0.580 OA 
HETATM   12  O   UNL     1      -7.538  14.351  67.141  1.00  0.00    -0.157 OA 
HETATM   13  CA  UNL     1      -8.769  15.674  68.950  1.00  0.00    -0.215 C  
ENDROOT
BRANCH  13  14
HETATM   14  N   UNL     1      -8.867  17.037  68.362  1.00  0.00    -0.239 N  
HETATM   15  H   UNL     1      -9.681  17.301  67.808  1.00  0.00     0.000 HD 
HETATM   16  C   UNL     1      -7.850  17.935  68.574  1.00  0.00    -0.298 C  
HETATM   17  O   UNL     1      -6.879  17.615  69.266  1.00  0.00    -0.252 OA 
BRANCH  16  18
HETATM   18  C   UNL     1      -8.039  19.386  68.023  1.00  0.00    -0.310 C  
HETATM   19  C   UNL     1      -6.782  20.202  68.390  1.00  0.00    -0.337 C  
HETATM   20  N   UNL     1      -9.214  19.967  68.716  1.00  0.00    -0.181 NA 
HETATM   21  C   UNL     1      -5.559  19.690  67.622  1.00  0.00    -0.196 C  
HETATM   22  H1  UNL     1      -9.338  20.913  68.356  1.00  0.00     0.000 HD 
HETATM   23  H2  UNL     1      -9.137  19.932  69.732  1.00  0.00     0.000 HD 
HETATM   24  C   UNL     1      -5.781  19.746  66.114  1.00  0.00    -0.180 C  
HETATM   25  C   UNL     1      -7.069  19.052  65.682  1.00  0.00    -0.250 C  
HETATM   26  C   UNL     1      -8.278  19.497  66.506  1.00  0.00    -0.334 C  
ENDBRANCH  16  18
ENDBRANCH  13  14
TORSDOF 2
ENDMDL
MODEL       31
REMARK 921   NORMALIZED FREE ENERGY PREDICTED BY IDOCK:   -5.59 KCAL/MOL
REMARK 922        TOTAL FREE ENERGY PREDICTED BY IDOCK:   -6.55 KCAL/MOL
REMARK 923 INTER-LIGAND FREE ENERGY PREDICTED BY IDOCK:   -6.47 KCAL/MOL
REMARK 924 INTRA-LIGAND FREE ENERGY PREDICTED BY IDOCK:   -0.08 KCAL/MOL
REMARK 927      BINDING AFFINITY PREDICTED BY RF-SCORE:    0.00 PKD
ROOT
HETATM    1  C   UNL     1     -10.602  16.077  66.065  1.00  0.00    -0.316 C  
HETATM    2  S   UNL     1      -9.295  14.833  65.708  1.00  0.00     0.102 SA 
HETATM    3  C   UNL     1     -10.036  13.517  66.773  1.00  0.00    -0.268 C  
HETATM    4  C   UNL     1      -9.760  12.147  66.148  1.00  0.00    -0.254 C  
HETATM    5  C   UNL     1      -9.295  13.550  68.127  1.00  0.00    -0.213 C  
HETATM    6  CA  UNL     1     -11.528  13.905  66.922  1.00  0.00    -0.351 C  
HETATM    7  N   UNL     1     -11.600  15.378  66.906  1.00  0.00    -0.081 N  
HETATM    8  C   UNL     1     -12.472  13.378  65.827  1.00  0.00    -0.439 C  
HETATM    9  C   UNL     1     -11.279  16.087  68.034  1.00  0.00    -0.303 C  
HETATM   10  O   UNL     1     -13.288  14.333  65.303  1.00  0.00    -0.660 OA 
HETATM   11  OXT UNL     1     -12.570  12.205  65.497  1.00  0.00    -0.444 OA 
HETATM   12  O   UNL     1     -11.518  15.855  69.196  1.00  0.00    -0.338 OA 
HETATM   13  CA  UNL     1     -10.361  17.045  67.250  1.00  0.00    -0.311 C  
ENDROOT
BRANCH  13  14
HETATM   14  N   UNL     1      -8.956  17.174  67.723  1.00  0.00    -0.223 N  
HETATM   15  H   UNL     1      -8.617  16.597  68.493  1.00  0.00     0.000 HD 
HETATM   16  C   UNL     1      -8.121  18.077  67.112  1.00  0.00    -0.213 C  
HETATM   17  O   UNL     1      -8.533  18.754  66.165  1.00  0.00    -0.425 OA 
BRANCH  16  18
HETATM   18  C   UNL     1      -6.628  18.110  67.573  1.00  0.00    -0.189 C  
HETATM   19  C   UNL     1      -5.851  19.026  66.606  1.00  0.00    -0.174 C  
HETATM   20  N   UNL     1      -6.105  16.727  67.458  1.00  0.00    -0.140 NA 
HETATM   21  C   UNL     1      -6.299  20.484  66.760  1.00  0.00    -0.272 C  
HETATM   22  H1  UNL     1      -5.130  16.748  67.760  1.00  0.00     0.000 HD 
HETATM   23  H2  UNL     1      -6.226  16.330  66.527  1.00  0.00     0.000 HD 
HETATM   24  C   UNL     1      -6.113  20.978  68.191  1.00  0.00    -0.385 C  
HETATM   25  C   UNL     1      -6.763  20.059  69.221  1.00  0.00    -0.325 C  
HETATM   26  C   UNL     1      -6.385  18.591  69.016  1.00  0.00    -0.248 C  
ENDBRANCH  16  18
ENDBRANCH  13  14
TORSDOF 2
ENDMDL
MODEL       32
REMARK 921   NORMALIZED FREE ENERGY PREDICTED BY IDOCK:   -5.49 KCAL/MOL
REMARK 922        TOTAL FREE ENERGY PREDICTED BY IDOCK:   -6.44 KCAL/MOL
REMARK 923 INTER-LIGAND FREE ENERGY PREDICTED BY IDOCK:   -6.19 KCAL/MOL
REMARK 924 INTRA-LIGAND FREE ENERGY PREDICTED BY IDOCK:   -0.24 KCAL/MOL
REMARK 927      BINDING AFFINITY PREDICTED BY RF-SCORE:    0.00 PKD
ROOT
HETATM    1  C   UNL     1     -10.306  16.757  68.610  1.00  0.00    -0.318 C  
HETATM    2  S   UNL     1      -8.712  15.852  68.772  1.00  0.00    -0.228 SA 
HETATM    3  C   UNL     1      -7.753  17.038  67.728  1.00  0.00    -0.172 C  
HETATM    4  C   UNL     1      -6.319  17.128  68.257  1.00  0.00    -0.149 C  
HETATM    5  C   UNL     1      -7.671  16.438  66.308  1.00  0.00    -0.144 C  
HETATM    6  CA  UNL     1      -8.568  18.355  67.752  1.00  0.00    -0.267 C  
HETATM    7  N   UNL     1      -9.992  17.986  67.844  1.00  0.00    -0.315 N  
HETATM    8  C   UNL     1      -8.256  19.316  68.913  1.00  0.00    -0.309 C  
HETATM    9  C   UNL     1     -10.660  17.565  66.723  1.00  0.00    -0.201 C  
HETATM   10  O   UNL     1      -9.365  19.765  69.562  1.00  0.00    -0.085 OA 
HETATM   11  OXT UNL     1      -7.141  19.729  69.195  1.00  0.00    -0.349 OA 
HETATM   12  O   UNL     1     -10.595  17.960  65.583  1.00  0.00    -0.587 OA 
HETATM   13  CA  UNL     1     -11.248  16.342  67.452  1.00  0.00    -0.000 C  
ENDROOT
BRANCH  13  14
HETATM   14  N   UNL     1     -10.999  15.007  66.844  1.00  0.00    -0.320 N  
HETATM   15  H   UNL     1     -10.402  14.919  66.021  1.00  0.00     0.000 HD 
HETATM   16  C   UNL     1     -11.580  13.895  67.401  1.00  0.00    -0.368 C  
HETATM   17  O   UNL     1     -12.282  14.007  68.411  1.00  0.00    -0.332 OA 
BRANCH  16  18
HETATM   18  C   UNL     1     -11.212  12.503  66.791  1.00  0.00    -0.296 C  
HETATM   19  C   UNL     1      -9.763  12.580  66.270  1.00  0.00    -0.259 C  
HETATM   20  N   UNL     1     -12.128  12.271  65.648  1.00  0.00    -0.578 NA 
HETATM   21  C   UNL     1      -8.774  12.728  67.432  1.00  0.00    -0.196 C  
HETATM   22  H1  UNL     1     -11.888  11.363  65.251  1.00  0.00     0.000 HD 
HETATM   23  H2  UNL     1     -12.110  13.025  64.962  1.00  0.00     0.000 HD 
HETATM   24  C   UNL     1      -8.899  11.575  68.422  1.00  0.00    -0.163 C  
HETATM   25  C   UNL     1     -10.332  11.363  68.903  1.00  0.00    -0.203 C  
HETATM   26  C   UNL     1     -11.333  11.302  67.748  1.00  0.00    -0.354 C  
ENDBRANCH  16  18
ENDBRANCH  13  14
TORSDOF 2
ENDMDL
MODEL       33
REMARK 921   NORMALIZED FREE ENERGY PREDICTED BY IDOCK:   -5.48 KCAL/MOL
REMARK 922        TOTAL FREE ENERGY PREDICTED BY IDOCK:   -6.43 KCAL/MOL
REMARK 923 INTER-LIGAND FREE ENERGY PREDICTED BY IDOCK:   -6.09 KCAL/MOL
REMARK 924 INTRA-LIGAND FREE ENERGY PREDICTED BY IDOCK:   -0.34 KCAL/MOL
REMARK 927      BINDING AFFINITY PREDICTED BY RF-SCORE:    0.00 PKD
ROOT
HETATM    1  C   UNL     1     -10.565   8.058  67.423  1.00  0.00    -0.267 C  
HETATM    2  S   UNL     1      -9.080   7.747  66.383  1.00  0.00    -0.173 SA 
HETATM    3  C   UNL     1      -7.923   7.564  67.813  1.00  0.00    -0.118 C  
HETATM    4  C   UNL     1      -6.844   6.537  67.459  1.00  0.00    -0.076 C  
HETATM    5  C   UNL     1      -7.208   8.918  68.002  1.00  0.00    -0.083 C  
HETATM    6  CA  UNL     1      -8.823   7.212  69.023  1.00  0.00    -0.131 C  
HETATM    7  N   UNL     1     -10.111   7.900  68.825  1.00  0.00    -0.189 N  
HETATM    8  C   UNL     1      -9.118   5.715  69.229  1.00  0.00    -0.113 C  
HETATM    9  C   UNL     1     -10.218   9.237  69.105  1.00  0.00    -0.206 C  
HETATM   10  O   UNL     1     -10.437   5.439  69.415  1.00  0.00    -0.266 OA 
HETATM   11  OXT UNL     1      -8.265   4.842  69.312  1.00  0.00    -0.081 OA 
HETATM   12  O   UNL     1      -9.745   9.886  70.008  1.00  0.00    -0.236 OA 
HETATM   13  CA  UNL     1     -10.907   9.531  67.758  1.00  0.00    -0.195 C  
ENDROOT
BRANCH  13  14
HETATM   14  N   UNL     1     -10.283  10.567  66.890  1.00  0.00    -0.220 N  
HETATM   15  H   UNL     1      -9.413  10.369  66.395  1.00  0.00     0.000 HD 
HETATM   16  C   UNL     1     -10.891  11.792  66.764  1.00  0.00    -0.270 C  
HETATM   17  O   UNL     1     -11.955  12.016  67.348  1.00  0.00    -0.583 OA 
BRANCH  16  18
HETATM   18  C   UNL     1     -10.256  12.815  65.766  1.00  0.00    -0.289 C  
HETATM   19  C   UNL     1     -10.073  12.105  64.409  1.00  0.00    -0.300 C  
HETATM   20  N   UNL     1      -8.924  13.183  66.305  1.00  0.00    -0.450 NA 
HETATM   21  C   UNL     1     -11.431  11.789  63.773  1.00  0.00    -0.510 C  
HETATM   22  H1  UNL     1      -8.511  13.850  65.654  1.00  0.00     0.000 HD 
HETATM   23  H2  UNL     1      -8.328  12.375  66.483  1.00  0.00     0.000 HD 
HETATM   24  C   UNL     1     -12.265  13.051  63.579  1.00  0.00    -0.580 C  
HETATM   25  C   UNL     1     -12.400  13.871  64.860  1.00  0.00    -0.445 C  
HETATM   26  C   UNL     1     -11.054  14.114  65.543  1.00  0.00    -0.310 C  
ENDBRANCH  16  18
ENDBRANCH  13  14
TORSDOF 2
ENDMDL
MODEL       34
REMARK 921   NORMALIZED FREE ENERGY PREDICTED BY IDOCK:   -5.45 KCAL/MOL
REMARK 922        TOTAL FREE ENERGY PREDICTED BY IDOCK:   -6.39 KCAL/MOL
REMARK 923 INTER-LIGAND FREE ENERGY PREDICTED BY IDOCK:   -5.96 KCAL/MOL
REMARK 924 INTRA-LIGAND FREE ENERGY PREDICTED BY IDOCK:   -0.43 KCAL/MOL
REMARK 927      BINDING AFFINITY PREDICTED BY RF-SCORE:    0.00 PKD
ROOT
HETATM    1  C   UNL     1     -10.747  10.794  66.960  1.00  0.00    -0.265 C  
HETATM    2  S   UNL     1     -11.834  11.969  67.867  1.00  0.00    -0.147 SA 
HETATM    3  C   UNL     1     -10.737  13.433  67.604  1.00  0.00    -0.247 C  
HETATM    4  C   UNL     1     -11.600  14.690  67.466  1.00  0.00    -0.396 C  
HETATM    5  C   UNL     1      -9.890  13.608  68.882  1.00  0.00     0.019 C  
HETATM    6  CA  UNL     1      -9.863  13.073  66.377  1.00  0.00    -0.270 C  
HETATM    7  N   UNL     1      -9.643  11.615  66.410  1.00  0.00    -0.211 N  
HETATM    8  C   UNL     1     -10.458  13.425  65.001  1.00  0.00    -0.365 C  
HETATM    9  C   UNL     1      -8.707  11.088  67.261  1.00  0.00    -0.129 C  
HETATM   10  O   UNL     1     -10.409  12.401  64.107  1.00  0.00    -0.341 OA 
HETATM   11  OXT UNL     1     -10.862  14.534  64.681  1.00  0.00    -0.391 OA 
HETATM   12  O   UNL     1      -7.610  11.496  67.564  1.00  0.00    -0.107 OA 
HETATM   13  CA  UNL     1      -9.688  10.021  67.784  1.00  0.00    -0.150 C  
ENDROOT
BRANCH  13  14
HETATM   14  N   UNL     1      -9.906   9.966  69.255  1.00  0.00    -0.195 N  
HETATM   15  H   UNL     1      -9.655  10.761  69.843  1.00  0.00     0.000 HD 
HETATM   16  C   UNL     1     -10.448   8.833  69.812  1.00  0.00    -0.219 C  
HETATM   17  O   UNL     1     -10.769   7.885  69.091  1.00  0.00    -0.204 OA 
BRANCH  16  18
HETATM   18  C   UNL     1     -10.752   8.856  71.346  1.00  0.00    -0.312 C  
HETATM   19  C   UNL     1     -11.687  10.050  71.628  1.00  0.00    -0.246 C  
HETATM   20  N   UNL     1      -9.462   9.074  72.044  1.00  0.00    -0.336 NA 
HETATM   21  C   UNL     1     -13.066   9.820  70.999  1.00  0.00    -0.363 C  
HETATM   22  H1  UNL     1      -9.661   9.088  73.044  1.00  0.00     0.000 HD 
HETATM   23  H2  UNL     1      -8.969   9.906  71.722  1.00  0.00     0.000 HD 
HETATM   24  C   UNL     1     -13.709   8.536  71.512  1.00  0.00    -0.360 C  
HETATM   25  C   UNL     1     -12.796   7.322  71.369  1.00  0.00    -0.425 C  
HETATM   26  C   UNL     1     -11.392   7.577  71.918  1.00  0.00    -0.298 C  
ENDBRANCH  16  18
ENDBRANCH  13  14
TORSDOF 2
ENDMDL
MODEL       35
REMARK 921   NORMALIZED FREE ENERGY PREDICTED BY IDOCK:   -5.44 KCAL/MOL
REMARK 922        TOTAL FREE ENERGY PREDICTED BY IDOCK:   -6.38 KCAL/MOL
REMARK 923 INTER-LIGAND FREE ENERGY PREDICTED BY IDOCK:   -5.92 KCAL/MOL
REMARK 924 INTRA-LIGAND FREE ENERGY PREDICTED BY IDOCK:   -0.47 KCAL/MOL
REMARK 927      BINDING AFFINITY PREDICTED BY RF-SCORE:    0.00 PKD
ROOT
HETATM    1  C   UNL     1     -10.408  10.639  65.794  1.00  0.00    -0.219 C  
HETATM    2  S   UNL     1      -8.578  10.814  65.842  1.00  0.00    -0.179 SA 
HETATM    3  C   UNL     1      -8.419  10.314  67.614  1.00  0.00    -0.118 C  
HETATM    4  C   UNL     1      -7.100   9.559  67.807  1.00  0.00    -0.081 C  
HETATM    5  C   UNL     1      -8.322  11.608  68.450  1.00  0.00    -0.157 C  
HETATM    6  CA  UNL     1      -9.708   9.517  67.931  1.00  0.00    -0.147 C  
HETATM    7  N   UNL     1     -10.793  10.101  67.121  1.00  0.00    -0.229 N  
HETATM    8  C   UNL     1      -9.657   8.009  67.628  1.00  0.00    -0.151 C  
HETATM    9  C   UNL     1     -11.388  11.269  67.521  1.00  0.00    -0.288 C  
HETATM   10  O   UNL     1     -10.725   7.559  66.914  1.00  0.00    -0.352 OA 
HETATM   11  OXT UNL     1      -8.802   7.242  68.048  1.00  0.00    -0.130 OA 
HETATM   12  O   UNL     1     -11.692  11.649  68.627  1.00  0.00    -0.284 OA 
HETATM   13  CA  UNL     1     -11.254  11.895  66.120  1.00  0.00    -0.333 C  
ENDROOT
BRANCH  13  14
HETATM   14  N   UNL     1     -10.555  13.205  66.027  1.00  0.00    -0.277 N  
HETATM   15  H   UNL     1      -9.546  13.241  65.882  1.00  0.00     0.000 HD 
HETATM   16  C   UNL     1     -11.282  14.364  66.140  1.00  0.00    -0.336 C  
HETATM   17  O   UNL     1     -12.506  14.312  66.293  1.00  0.00    -0.445 OA 
BRANCH  16  18
HETATM   18  C   UNL     1     -10.524  15.717  65.938  1.00  0.00    -0.344 C  
HETATM   19  C   UNL     1     -11.013  16.703  67.019  1.00  0.00     0.015 C  
HETATM   20  N   UNL     1     -10.903  16.235  64.601  1.00  0.00    -0.860 NA 
HETATM   21  C   UNL     1     -10.561  16.250  68.411  1.00  0.00    -0.301 C  
HETATM   22  H1  UNL     1     -10.407  17.116  64.469  1.00  0.00     0.000 HD 
HETATM   23  H2  UNL     1     -11.911  16.320  64.476  1.00  0.00     0.000 HD 
HETATM   24  C   UNL     1      -9.044  16.117  68.491  1.00  0.00    -0.208 C  
HETATM   25  C   UNL     1      -8.469  15.241  67.382  1.00  0.00    -0.197 C  
HETATM   26  C   UNL     1      -8.987  15.636  65.998  1.00  0.00    -0.297 C  
ENDBRANCH  16  18
ENDBRANCH  13  14
TORSDOF 2
ENDMDL
MODEL       36
REMARK 921   NORMALIZED FREE ENERGY PREDICTED BY IDOCK:   -5.43 KCAL/MOL
REMARK 922        TOTAL FREE ENERGY PREDICTED BY IDOCK:   -6.37 KCAL/MOL
REMARK 923 INTER-LIGAND FREE ENERGY PREDICTED BY IDOCK:   -5.99 KCAL/MOL
REMARK 924 INTRA-LIGAND FREE ENERGY PREDICTED BY IDOCK:   -0.38 KCAL/MOL
REMARK 927      BINDING AFFINITY PREDICTED BY RF-SCORE:    0.00 PKD
ROOT
HETATM    1  C   UNL     1     -10.460  12.508  67.653  1.00  0.00    -0.217 C  
HETATM    2  S   UNL     1      -9.006  13.498  67.116  1.00  0.00    -0.227 SA 
HETATM    3  C   UNL     1     -10.009  14.860  66.371  1.00  0.00    -0.275 C  
HETATM    4  C   UNL     1      -9.271  16.189  66.556  1.00  0.00    -0.303 C  
HETATM    5  C   UNL     1     -10.086  14.597  64.853  1.00  0.00    -0.231 C  
HETATM    6  CA  UNL     1     -11.400  14.758  67.046  1.00  0.00    -0.353 C  
HETATM    7  N   UNL     1     -11.647  13.331  67.323  1.00  0.00    -0.338 N  
HETATM    8  C   UNL     1     -11.562  15.528  68.369  1.00  0.00    -0.357 C  
HETATM    9  C   UNL     1     -12.052  12.502  66.310  1.00  0.00    -0.243 C  
HETATM   10  O   UNL     1     -12.108  14.784  69.370  1.00  0.00    -0.303 OA 
HETATM   11  OXT UNL     1     -11.319  16.717  68.518  1.00  0.00    -0.317 OA 
HETATM   12  O   UNL     1     -12.824  12.700  65.401  1.00  0.00    -0.582 OA 
HETATM   13  CA  UNL     1     -10.997  11.438  66.671  1.00  0.00    -0.285 C  
ENDROOT
BRANCH  13  14
HETATM   14  N   UNL     1     -10.070  11.010  65.588  1.00  0.00    -0.245 N  
HETATM   15  H   UNL     1      -9.668  11.698  64.953  1.00  0.00     0.000 HD 
HETATM   16  C   UNL     1      -9.763   9.678  65.455  1.00  0.00    -0.295 C  
HETATM   17  O   UNL     1     -10.236   8.854  66.243  1.00  0.00    -0.284 OA 
BRANCH  16  18
HETATM   18  C   UNL     1      -8.708   9.284  64.369  1.00  0.00    -0.181 C  
HETATM   19  C   UNL     1      -7.549  10.300  64.441  1.00  0.00    -0.094 C  
HETATM   20  N   UNL     1      -9.375   9.402  63.050  1.00  0.00    -0.511 NA 
HETATM   21  C   UNL     1      -6.775  10.148  65.755  1.00  0.00    -0.110 C  
HETATM   22  H1  UNL     1      -8.688   9.144  62.342  1.00  0.00     0.000 HD 
HETATM   23  H2  UNL     1      -9.789  10.320  62.891  1.00  0.00     0.000 HD 
HETATM   24  C   UNL     1      -6.226   8.735  65.921  1.00  0.00    -0.056 C  
HETATM   25  C   UNL     1      -7.299   7.662  65.753  1.00  0.00    -0.070 C  
HETATM   26  C   UNL     1      -8.131   7.861  64.485  1.00  0.00    -0.114 C  
ENDBRANCH  16  18
ENDBRANCH  13  14
TORSDOF 2
ENDMDL
MODEL       37
REMARK 921   NORMALIZED FREE ENERGY PREDICTED BY IDOCK:   -5.34 KCAL/MOL
REMARK 922        TOTAL FREE ENERGY PREDICTED BY IDOCK:   -6.27 KCAL/MOL
REMARK 923 INTER-LIGAND FREE ENERGY PREDICTED BY IDOCK:   -5.88 KCAL/MOL
REMARK 924 INTRA-LIGAND FREE ENERGY PREDICTED BY IDOCK:   -0.39 KCAL/MOL
REMARK 927      BINDING AFFINITY PREDICTED BY RF-SCORE:    0.00 PKD
ROOT
HETATM    1  C   UNL     1     -10.748   8.356  69.346  1.00  0.00    -0.152 C  
HETATM    2  S   UNL     1      -9.681   8.320  67.848  1.00  0.00    -0.168 SA 
HETATM    3  C   UNL     1      -8.215   7.606  68.717  1.00  0.00    -0.128 C  
HETATM    4  C   UNL     1      -7.454   6.692  67.753  1.00  0.00    -0.098 C  
HETATM    5  C   UNL     1      -7.271   8.776  69.064  1.00  0.00    -0.072 C  
HETATM    6  CA  UNL     1      -8.784   6.926  69.987  1.00  0.00    -0.142 C  
HETATM    7  N   UNL     1      -9.951   7.716  70.419  1.00  0.00    -0.188 N  
HETATM    8  C   UNL     1      -9.242   5.466  69.821  1.00  0.00    -0.132 C  
HETATM    9  C   UNL     1      -9.763   8.890  71.103  1.00  0.00    -0.274 C  
HETATM   10  O   UNL     1     -10.483   5.223  70.323  1.00  0.00    -0.279 OA 
HETATM   11  OXT UNL     1      -8.549   4.567  69.367  1.00  0.00    -0.080 OA 
HETATM   12  O   UNL     1      -8.960   9.173  71.960  1.00  0.00    -0.337 OA 
HETATM   13  CA  UNL     1     -10.746   9.653  70.193  1.00  0.00    -0.275 C  
ENDROOT
BRANCH  13  14
HETATM   14  N   UNL     1     -10.234  10.879  69.523  1.00  0.00    -0.429 N  
HETATM   15  H   UNL     1      -9.251  11.138  69.604  1.00  0.00     0.000 HD 
HETATM   16  C   UNL     1     -11.099  11.657  68.793  1.00  0.00    -0.230 C  
HETATM   17  O   UNL     1     -12.282  11.323  68.680  1.00  0.00    -0.562 OA 
BRANCH  16  18
HETATM   18  C   UNL     1     -10.500  12.880  68.025  1.00  0.00    -0.230 C  
HETATM   19  C   UNL     1      -9.353  12.364  67.131  1.00  0.00    -0.199 C  
HETATM   20  N   UNL     1      -9.945  13.806  69.041  1.00  0.00    -0.427 NA 
HETATM   21  C   UNL     1      -9.897  11.474  66.008  1.00  0.00    -0.255 C  
HETATM   22  H1  UNL     1      -9.555  14.604  68.539  1.00  0.00     0.000 HD 
HETATM   23  H2  UNL     1      -9.274  13.359  69.666  1.00  0.00     0.000 HD 
HETATM   24  C   UNL     1     -10.917  12.215  65.151  1.00  0.00    -0.355 C  
HETATM   25  C   UNL     1     -12.030  12.852  65.977  1.00  0.00    -0.505 C  
HETATM   26  C   UNL     1     -11.492  13.671  67.152  1.00  0.00    -0.367 C  
ENDBRANCH  16  18
ENDBRANCH  13  14
TORSDOF 2
ENDMDL
MODEL       38
REMARK 921   NORMALIZED FREE ENERGY PREDICTED BY IDOCK:   -5.32 KCAL/MOL
REMARK 922        TOTAL FREE ENERGY PREDICTED BY IDOCK:   -6.25 KCAL/MOL
REMARK 923 INTER-LIGAND FREE ENERGY PREDICTED BY IDOCK:   -6.26 KCAL/MOL
REMARK 924 INTRA-LIGAND FREE ENERGY PREDICTED BY IDOCK:    0.01 KCAL/MOL
REMARK 927      BINDING AFFINITY PREDICTED BY RF-SCORE:    0.00 PKD
ROOT
HETATM    1  C   UNL     1      -9.004  17.151  68.082  1.00  0.00    -0.240 C  
HETATM    2  S   UNL     1      -8.284  15.938  69.263  1.00  0.00    -0.181 SA 
HETATM    3  C   UNL     1      -6.531  16.422  68.936  1.00  0.00    -0.152 C  
HETATM    4  C   UNL     1      -5.718  16.271  70.226  1.00  0.00    -0.151 C  
HETATM    5  C   UNL     1      -5.956  15.411  67.923  1.00  0.00    -0.165 C  
HETATM    6  CA  UNL     1      -6.606  17.852  68.346  1.00  0.00    -0.205 C  
HETATM    7  N   UNL     1      -7.858  17.941  67.574  1.00  0.00    -0.211 N  
HETATM    8  C   UNL     1      -6.604  19.002  69.369  1.00  0.00    -0.288 C  
HETATM    9  C   UNL     1      -7.923  17.394  66.318  1.00  0.00    -0.279 C  
HETATM   10  O   UNL     1      -7.586  19.921  69.160  1.00  0.00    -0.253 OA 
HETATM   11  OXT UNL     1      -5.762  19.156  70.243  1.00  0.00    -0.234 OA 
HETATM   12  O   UNL     1      -7.102  17.378  65.431  1.00  0.00    -0.046 OA 
HETATM   13  CA  UNL     1      -9.249  16.674  66.629  1.00  0.00    -0.253 C  
ENDROOT
BRANCH  13  14
HETATM   14  N   UNL     1      -9.286  15.202  66.415  1.00  0.00    -0.281 N  
HETATM   15  H   UNL     1      -8.677  14.587  66.954  1.00  0.00     0.000 HD 
HETATM   16  C   UNL     1     -10.149  14.680  65.483  1.00  0.00    -0.377 C  
HETATM   17  O   UNL     1     -10.900  15.429  64.851  1.00  0.00    -0.421 OA 
BRANCH  16  18
HETATM   18  C   UNL     1     -10.227  13.123  65.360  1.00  0.00    -0.290 C  
HETATM   19  C   UNL     1     -11.369  12.631  66.274  1.00  0.00    -0.376 C  
HETATM   20  N   UNL     1      -8.940  12.581  65.857  1.00  0.00    -0.411 NA 
HETATM   21  C   UNL     1     -12.729  13.094  65.742  1.00  0.00    -0.202 C  
HETATM   22  H1  UNL     1      -8.990  11.565  65.776  1.00  0.00     0.000 HD 
HETATM   23  H2  UNL     1      -8.709  12.897  66.799  1.00  0.00     0.000 HD 
HETATM   24  C   UNL     1     -12.969  12.605  64.317  1.00  0.00    -0.204 C  
HETATM   25  C   UNL     1     -11.825  12.959  63.372  1.00  0.00    -0.576 C  
HETATM   26  C   UNL     1     -10.457  12.576  63.939  1.00  0.00    -0.464 C  
ENDBRANCH  16  18
ENDBRANCH  13  14
TORSDOF 2
ENDMDL
MODEL       39
REMARK 921   NORMALIZED FREE ENERGY PREDICTED BY IDOCK:   -5.30 KCAL/MOL
REMARK 922        TOTAL FREE ENERGY PREDICTED BY IDOCK:   -6.22 KCAL/MOL
REMARK 923 INTER-LIGAND FREE ENERGY PREDICTED BY IDOCK:   -5.84 KCAL/MOL
REMARK 924 INTRA-LIGAND FREE ENERGY PREDICTED BY IDOCK:   -0.38 KCAL/MOL
REMARK 927      BINDING AFFINITY PREDICTED BY RF-SCORE:    0.00 PKD
ROOT
HETATM    1  C   UNL     1     -11.852   7.213  70.751  1.00  0.00    -0.325 C  
HETATM    2  S   UNL     1     -11.153   6.225  69.365  1.00  0.00    -0.407 SA 
HETATM    3  C   UNL     1      -9.566   5.842  70.231  1.00  0.00    -0.163 C  
HETATM    4  C   UNL     1      -9.088   4.449  69.813  1.00  0.00    -0.174 C  
HETATM    5  C   UNL     1      -8.512   6.849  69.724  1.00  0.00    -0.133 C  
HETATM    6  CA  UNL     1      -9.867   6.031  71.738  1.00  0.00    -0.165 C  
HETATM    7  N   UNL     1     -10.867   7.108  71.853  1.00  0.00    -0.224 N  
HETATM    8  C   UNL     1     -10.422   4.797  72.472  1.00  0.00    -0.203 C  
HETATM    9  C   UNL     1     -10.472   8.416  71.744  1.00  0.00    -0.283 C  
HETATM   10  O   UNL     1     -11.529   5.059  73.220  1.00  0.00    -0.332 OA 
HETATM   11  OXT UNL     1      -9.895   3.694  72.478  1.00  0.00    -0.138 OA 
HETATM   12  O   UNL     1      -9.484   8.970  72.163  1.00  0.00    -0.340 OA 
HETATM   13  CA  UNL     1     -11.595   8.740  70.739  1.00  0.00    -0.251 C  
ENDROOT
BRANCH  13  14
HETATM   14  N   UNL     1     -11.188   9.332  69.436  1.00  0.00    -0.436 N  
HETATM   15  H   UNL     1     -10.856   8.733  68.680  1.00  0.00     0.000 HD 
HETATM   16  C   UNL     1     -11.262  10.692  69.263  1.00  0.00    -0.273 C  
HETATM   17  O   UNL     1     -11.687  11.407  70.175  1.00  0.00    -0.314 OA 
BRANCH  16  18
HETATM   18  C   UNL     1     -10.920  11.261  67.847  1.00  0.00    -0.248 C  
HETATM   19  C   UNL     1      -9.777  12.284  68.010  1.00  0.00    -0.205 C  
HETATM   20  N   UNL     1     -12.130  11.960  67.353  1.00  0.00    -0.523 NA 
HETATM   21  C   UNL     1      -8.479  11.586  68.432  1.00  0.00    -0.159 C  
HETATM   22  H1  UNL     1     -11.907  12.331  66.429  1.00  0.00     0.000 HD 
HETATM   23  H2  UNL     1     -12.472  12.673  67.997  1.00  0.00     0.000 HD 
HETATM   24  C   UNL     1      -8.067  10.516  67.428  1.00  0.00    -0.111 C  
HETATM   25  C   UNL     1      -9.188   9.525  67.129  1.00  0.00    -0.158 C  
HETATM   26  C   UNL     1     -10.508  10.219  66.791  1.00  0.00    -0.279 C  
ENDBRANCH  16  18
ENDBRANCH  13  14
TORSDOF 2
ENDMDL
MODEL       40
REMARK 921   NORMALIZED FREE ENERGY PREDICTED BY IDOCK:   -5.28 KCAL/MOL
REMARK 922        TOTAL FREE ENERGY PREDICTED BY IDOCK:   -6.20 KCAL/MOL
REMARK 923 INTER-LIGAND FREE ENERGY PREDICTED BY IDOCK:   -7.13 KCAL/MOL
REMARK 924 INTRA-LIGAND FREE ENERGY PREDICTED BY IDOCK:    0.93 KCAL/MOL
REMARK 927      BINDING AFFINITY PREDICTED BY RF-SCORE:    0.00 PKD
ROOT
HETATM    1  C   UNL     1      -9.769  14.097  66.801  1.00  0.00    -0.277 C  
HETATM    2  S   UNL     1      -9.911  14.500  68.590  1.00  0.00    -0.234 SA 
HETATM    3  C   UNL     1     -11.706  14.076  68.704  1.00  0.00    -0.354 C  
HETATM    4  C   UNL     1     -11.999  13.497  70.092  1.00  0.00    -0.399 C  
HETATM    5  C   UNL     1     -12.499  15.395  68.593  1.00  0.00     0.363 C  
HETATM    6  CA  UNL     1     -11.980  13.134  67.506  1.00  0.00    -0.317 C  
HETATM    7  N   UNL     1     -11.091  13.555  66.408  1.00  0.00    -0.300 N  
HETATM    8  C   UNL     1     -11.735  11.635  67.759  1.00  0.00    -0.245 C  
HETATM    9  C   UNL     1     -11.416  14.650  65.651  1.00  0.00    -0.340 C  
HETATM   10  O   UNL     1     -10.981  11.036  66.798  1.00  0.00    -0.267 OA 
HETATM   11  OXT UNL     1     -12.230  10.994  68.675  1.00  0.00    -0.571 OA 
HETATM   12  O   UNL     1     -12.489  15.022  65.238  1.00  0.00    -0.026 OA 
HETATM   13  CA  UNL     1     -10.002  15.247  65.790  1.00  0.00    -0.360 C  
ENDROOT
BRANCH  13  14
HETATM   14  N   UNL     1      -9.901  16.631  66.328  1.00  0.00    -0.293 N  
HETATM   15  H   UNL     1      -9.425  16.806  67.213  1.00  0.00     0.000 HD 
HETATM   16  C   UNL     1     -10.454  17.670  65.620  1.00  0.00    -0.144 C  
HETATM   17  O   UNL     1     -11.007  17.452  64.537  1.00  0.00    -0.850 OA 
BRANCH  16  18
HETATM   18  C   UNL     1     -10.238  19.117  66.171  1.00  0.00    -0.463 C  
HETATM   19  C   UNL     1     -10.760  19.156  67.622  1.00  0.00    -0.514 C  
HETATM   20  N   UNL     1     -11.056  20.029  65.335  1.00  0.00    -0.149 NA 
HETATM   21  C   UNL     1      -9.883  18.296  68.538  1.00  0.00    -0.400 C  
HETATM   22  H1  UNL     1     -10.915  20.973  65.695  1.00  0.00     0.000 HD 
HETATM   23  H2  UNL     1     -12.039  19.760  65.294  1.00  0.00     0.000 HD 
HETATM   24  C   UNL     1      -8.428  18.750  68.507  1.00  0.00    -0.379 C  
HETATM   25  C   UNL     1      -7.869  18.844  67.091  1.00  0.00    -0.252 C  
HETATM   26  C   UNL     1      -8.786  19.629  66.151  1.00  0.00    -0.361 C  
ENDBRANCH  16  18
ENDBRANCH  13  14
TORSDOF 2
ENDMDL
MODEL       41
REMARK 921   NORMALIZED FREE ENERGY PREDICTED BY IDOCK:   -5.26 KCAL/MOL
REMARK 922        TOTAL FREE ENERGY PREDICTED BY IDOCK:   -6.18 KCAL/MOL
REMARK 923 INTER-LIGAND FREE ENERGY PREDICTED BY IDOCK:   -5.73 KCAL/MOL
REMARK 924 INTRA-LIGAND FREE ENERGY PREDICTED BY IDOCK:   -0.45 KCAL/MOL
REMARK 927      BINDING AFFINITY PREDICTED BY RF-SCORE:    0.00 PKD
ROOT
HETATM    1  C   UNL     1     -10.806  10.125  67.889  1.00  0.00    -0.284 C  
HETATM    2  S   UNL     1      -9.056  10.438  67.416  1.00  0.00    -0.134 SA 
HETATM    3  C   UNL     1      -8.349   9.224  68.616  1.00  0.00    -0.118 C  
HETATM    4  C   UNL     1      -7.090   8.594  68.013  1.00  0.00    -0.082 C  
HETATM    5  C   UNL     1      -7.900  10.017  69.862  1.00  0.00    -0.185 C  
HETATM    6  CA  UNL     1      -9.507   8.248  68.939  1.00  0.00    -0.151 C  
HETATM    7  N   UNL     1     -10.761   9.021  68.877  1.00  0.00    -0.172 N  
HETATM    8  C   UNL     1      -9.653   7.042  67.994  1.00  0.00    -0.128 C  
HETATM    9  C   UNL     1     -11.116   9.827  69.927  1.00  0.00    -0.254 C  
HETATM   10  O   UNL     1     -10.923   6.853  67.543  1.00  0.00    -0.281 OA 
HETATM   11  OXT UNL     1      -8.756   6.256  67.724  1.00  0.00    -0.115 OA 
HETATM   12  O   UNL     1     -11.012   9.648  71.118  1.00  0.00    -0.336 OA 
HETATM   13  CA  UNL     1     -11.416  11.018  68.997  1.00  0.00    -0.299 C  
ENDROOT
BRANCH  13  14
HETATM   14  N   UNL     1     -10.708  12.295  69.281  1.00  0.00    -0.442 N  
HETATM   15  H   UNL     1      -9.900  12.308  69.904  1.00  0.00     0.000 HD 
HETATM   16  C   UNL     1     -11.153  13.456  68.697  1.00  0.00    -0.263 C  
HETATM   17  O   UNL     1     -12.117  13.427  67.926  1.00  0.00    -0.338 OA 
BRANCH  16  18
HETATM   18  C   UNL     1     -10.320  14.756  68.944  1.00  0.00    -0.243 C  
HETATM   19  C   UNL     1      -8.854  14.461  68.565  1.00  0.00    -0.182 C  
HETATM   20  N   UNL     1     -10.396  15.054  70.394  1.00  0.00    -0.506 NA 
HETATM   21  C   UNL     1      -8.718  14.237  67.055  1.00  0.00    -0.231 C  
HETATM   22  H1  UNL     1      -9.853  15.903  70.555  1.00  0.00     0.000 HD 
HETATM   23  H2  UNL     1     -10.100  14.273  70.979  1.00  0.00     0.000 HD 
HETATM   24  C   UNL     1      -9.217  15.441  66.263  1.00  0.00    -0.354 C  
HETATM   25  C   UNL     1     -10.627  15.865  66.662  1.00  0.00    -0.305 C  
HETATM   26  C   UNL     1     -10.790  16.005  68.176  1.00  0.00    -0.322 C  
ENDBRANCH  16  18
ENDBRANCH  13  14
TORSDOF 2
ENDMDL
MODEL       42
REMARK 921   NORMALIZED FREE ENERGY PREDICTED BY IDOCK:   -5.26 KCAL/MOL
REMARK 922        TOTAL FREE ENERGY PREDICTED BY IDOCK:   -6.17 KCAL/MOL
REMARK 923 INTER-LIGAND FREE ENERGY PREDICTED BY IDOCK:   -5.83 KCAL/MOL
REMARK 924 INTRA-LIGAND FREE ENERGY PREDICTED BY IDOCK:   -0.35 KCAL/MOL
REMARK 927      BINDING AFFINITY PREDICTED BY RF-SCORE:    0.00 PKD
ROOT
HETATM    1  C   UNL     1      -8.761  17.273  69.093  1.00  0.00     0.035 C  
HETATM    2  S   UNL     1      -7.219  16.402  68.595  1.00  0.00    -0.190 SA 
HETATM    3  C   UNL     1      -6.689  17.699  67.390  1.00  0.00    -0.160 C  
HETATM    4  C   UNL     1      -5.160  17.783  67.380  1.00  0.00    -0.142 C  
HETATM    5  C   UNL     1      -7.121  17.227  65.986  1.00  0.00    -0.200 C  
HETATM    6  CA  UNL     1      -7.435  18.986  67.821  1.00  0.00    -0.246 C  
HETATM    7  N   UNL     1      -8.735  18.571  68.380  1.00  0.00    -0.320 N  
HETATM    8  C   UNL     1      -6.726  19.852  68.878  1.00  0.00    -0.322 C  
HETATM    9  C   UNL     1      -9.760  18.231  67.536  1.00  0.00    -0.300 C  
HETATM   10  O   UNL     1      -7.528  20.212  69.916  1.00  0.00     0.066 OA 
HETATM   11  OXT UNL     1      -5.581  20.270  68.782  1.00  0.00    -0.233 OA 
HETATM   12  O   UNL     1     -10.104  18.724  66.488  1.00  0.00    -0.348 OA 
HETATM   13  CA  UNL     1     -10.056  16.933  68.312  1.00  0.00    -0.302 C  
ENDROOT
BRANCH  13  14
HETATM   14  N   UNL     1     -10.046  15.663  67.537  1.00  0.00    -0.249 N  
HETATM   15  H   UNL     1      -9.386  15.533  66.770  1.00  0.00     0.000 HD 
HETATM   16  C   UNL     1     -10.936  14.669  67.864  1.00  0.00    -0.277 C  
HETATM   17  O   UNL     1     -11.716  14.826  68.808  1.00  0.00    -0.302 OA 
BRANCH  16  18
HETATM   18  C   UNL     1     -10.825  13.316  67.089  1.00  0.00    -0.258 C  
HETATM   19  C   UNL     1     -12.247  12.888  66.672  1.00  0.00    -0.229 C  
HETATM   20  N   UNL     1     -10.275  12.315  68.035  1.00  0.00    -0.201 NA 
HETATM   21  C   UNL     1     -12.818  13.849  65.623  1.00  0.00    -0.467 C  
HETATM   22  H1  UNL     1     -10.202  11.432  67.529  1.00  0.00     0.000 HD 
HETATM   23  H2  UNL     1     -10.815  12.239  68.896  1.00  0.00     0.000 HD 
HETATM   24  C   UNL     1     -11.925  13.923  64.389  1.00  0.00    -0.480 C  
HETATM   25  C   UNL     1     -10.471  14.234  64.730  1.00  0.00    -0.421 C  
HETATM   26  C   UNL     1      -9.925  13.334  65.839  1.00  0.00    -0.280 C  
ENDBRANCH  16  18
ENDBRANCH  13  14
TORSDOF 2
ENDMDL
MODEL       43
REMARK 921   NORMALIZED FREE ENERGY PREDICTED BY IDOCK:   -5.24 KCAL/MOL
REMARK 922        TOTAL FREE ENERGY PREDICTED BY IDOCK:   -6.16 KCAL/MOL
REMARK 923 INTER-LIGAND FREE ENERGY PREDICTED BY IDOCK:   -5.77 KCAL/MOL
REMARK 924 INTRA-LIGAND FREE ENERGY PREDICTED BY IDOCK:   -0.39 KCAL/MOL
REMARK 927      BINDING AFFINITY PREDICTED BY RF-SCORE:    0.00 PKD
ROOT
HETATM    1  C   UNL     1     -10.910   6.131  67.966  1.00  0.00    -0.313 C  
HETATM    2  S   UNL     1     -10.222   7.810  67.666  1.00  0.00    -0.238 SA 
HETATM    3  C   UNL     1      -8.507   7.217  67.317  1.00  0.00    -0.122 C  
HETATM    4  C   UNL     1      -7.862   8.129  66.270  1.00  0.00    -0.095 C  
HETATM    5  C   UNL     1      -7.691   7.379  68.617  1.00  0.00    -0.120 C  
HETATM    6  CA  UNL     1      -8.664   5.729  66.916  1.00  0.00    -0.110 C  
HETATM    7  N   UNL     1      -9.804   5.188  67.678  1.00  0.00    -0.152 N  
HETATM    8  C   UNL     1      -8.928   5.460  65.423  1.00  0.00    -0.124 C  
HETATM    9  C   UNL     1      -9.638   4.840  68.994  1.00  0.00    -0.165 C  
HETATM   10  O   UNL     1      -9.972   4.616  65.198  1.00  0.00    -0.149 OA 
HETATM   11  OXT UNL     1      -8.234   5.875  64.507  1.00  0.00    -0.133 OA 
HETATM   12  O   UNL     1      -8.710   4.298  69.546  1.00  0.00    -0.078 OA 
HETATM   13  CA  UNL     1     -10.904   5.607  69.424  1.00  0.00    -0.264 C  
ENDROOT
BRANCH  13  14
HETATM   14  N   UNL     1     -10.745   6.630  70.493  1.00  0.00    -0.235 N  
HETATM   15  H   UNL     1      -9.820   6.988  70.730  1.00  0.00     0.000 HD 
HETATM   16  C   UNL     1     -11.857   7.086  71.157  1.00  0.00    -0.338 C  
HETATM   17  O   UNL     1     -12.976   6.665  70.848  1.00  0.00    -0.118 OA 
BRANCH  16  18
HETATM   18  C   UNL     1     -11.657   8.231  72.203  1.00  0.00    -0.364 C  
HETATM   19  C   UNL     1     -10.600   9.206  71.643  1.00  0.00    -0.427 C  
HETATM   20  N   UNL     1     -11.133   7.606  73.441  1.00  0.00    -0.538 NA 
HETATM   21  C   UNL     1     -11.139   9.943  70.412  1.00  0.00    -0.382 C  
HETATM   22  H1  UNL     1     -11.003   8.353  74.123  1.00  0.00     0.000 HD 
HETATM   23  H2  UNL     1     -10.289   7.055  73.285  1.00  0.00     0.000 HD 
HETATM   24  C   UNL     1     -12.418  10.708  70.733  1.00  0.00    -0.480 C  
HETATM   25  C   UNL     1     -13.478   9.832  71.394  1.00  0.00    -0.397 C  
HETATM   26  C   UNL     1     -12.922   9.028  72.571  1.00  0.00    -0.429 C  
ENDBRANCH  16  18
ENDBRANCH  13  14
TORSDOF 2
ENDMDL
MODEL       44
REMARK 921   NORMALIZED FREE ENERGY PREDICTED BY IDOCK:   -5.22 KCAL/MOL
REMARK 922        TOTAL FREE ENERGY PREDICTED BY IDOCK:   -6.13 KCAL/MOL
REMARK 923 INTER-LIGAND FREE ENERGY PREDICTED BY IDOCK:   -5.73 KCAL/MOL
REMARK 924 INTRA-LIGAND FREE ENERGY PREDICTED BY IDOCK:   -0.40 KCAL/MOL
REMARK 927      BINDING AFFINITY PREDICTED BY RF-SCORE:    0.00 PKD
ROOT
HETATM    1  C   UNL     1     -11.593  10.728  67.671  1.00  0.00     0.000 C  
HETATM    2  S   UNL     1     -11.311  11.858  69.095  1.00  0.00    -0.289 SA 
HETATM    3  C   UNL     1     -10.240  13.033  68.153  1.00  0.00    -0.239 C  
HETATM    4  C   UNL     1     -10.466  14.453  68.680  1.00  0.00    -0.247 C  
HETATM    5  C   UNL     1      -8.773  12.668  68.463  1.00  0.00    -0.048 C  
HETATM    6  CA  UNL     1     -10.590  12.799  66.662  1.00  0.00    -0.256 C  
HETATM    7  N   UNL     1     -10.932  11.373  66.512  1.00  0.00    -0.286 N  
HETATM    8  C   UNL     1     -11.768  13.624  66.112  1.00  0.00    -0.364 C  
HETATM    9  C   UNL     1      -9.932  10.438  66.448  1.00  0.00    -0.221 C  
HETATM   10  O   UNL     1     -12.682  12.881  65.430  1.00  0.00    -0.583 OA 
HETATM   11  OXT UNL     1     -11.860  14.841  66.183  1.00  0.00    -0.311 OA 
HETATM   12  O   UNL     1      -8.858  10.480  65.895  1.00  0.00    -0.154 OA 
HETATM   13  CA  UNL     1     -10.615   9.540  67.498  1.00  0.00    -0.275 C  
ENDROOT
BRANCH  13  14
HETATM   14  N   UNL     1      -9.813   9.165  68.693  1.00  0.00    -0.160 N  
HETATM   15  H   UNL     1      -9.161   9.832  69.106  1.00  0.00     0.000 HD 
HETATM   16  C   UNL     1      -9.959   7.911  69.235  1.00  0.00    -0.190 C  
HETATM   17  O   UNL     1     -10.767   7.118  68.743  1.00  0.00    -0.212 OA 
BRANCH  16  18
HETATM   18  C   UNL     1      -9.171   7.594  70.548  1.00  0.00    -0.159 C  
HETATM   19  C   UNL     1      -9.305   8.810  71.488  1.00  0.00    -0.337 C  
HETATM   20  N   UNL     1      -7.747   7.423  70.173  1.00  0.00    -0.089 NA 
HETATM   21  C   UNL     1     -10.750   8.966  71.973  1.00  0.00    -0.389 C  
HETATM   22  H1  UNL     1      -7.234   7.216  71.030  1.00  0.00     0.000 HD 
HETATM   23  H2  UNL     1      -7.369   8.222  69.664  1.00  0.00     0.000 HD 
HETATM   24  C   UNL     1     -11.238   7.712  72.690  1.00  0.00    -0.419 C  
HETATM   25  C   UNL     1     -11.037   6.444  71.864  1.00  0.00    -0.311 C  
HETATM   26  C   UNL     1      -9.618   6.329  71.305  1.00  0.00    -0.189 C  
ENDBRANCH  16  18
ENDBRANCH  13  14
TORSDOF 2
ENDMDL
MODEL       45
REMARK 921   NORMALIZED FREE ENERGY PREDICTED BY IDOCK:   -5.18 KCAL/MOL
REMARK 922        TOTAL FREE ENERGY PREDICTED BY IDOCK:   -6.09 KCAL/MOL
REMARK 923 INTER-LIGAND FREE ENERGY PREDICTED BY IDOCK:   -5.80 KCAL/MOL
REMARK 924 INTRA-LIGAND FREE ENERGY PREDICTED BY IDOCK:   -0.29 KCAL/MOL
REMARK 927      BINDING AFFINITY PREDICTED BY RF-SCORE:    0.00 PKD
ROOT
HETATM    1  C   UNL     1      -9.430  17.089  68.215  1.00  0.00    -0.265 C  
HETATM    2  S   UNL     1      -8.017  16.410  69.177  1.00  0.00    -0.143 SA 
HETATM    3  C   UNL     1      -7.350  15.397  67.783  1.00  0.00    -0.161 C  
HETATM    4  C   UNL     1      -5.823  15.345  67.883  1.00  0.00    -0.162 C  
HETATM    5  C   UNL     1      -7.861  13.954  67.978  1.00  0.00    -0.154 C  
HETATM    6  CA  UNL     1      -7.923  16.044  66.497  1.00  0.00    -0.236 C  
HETATM    7  N   UNL     1      -9.255  16.580  66.834  1.00  0.00    -0.217 N  
HETATM    8  C   UNL     1      -7.094  17.192  65.896  1.00  0.00     0.092 C  
HETATM    9  C   UNL     1     -10.329  15.732  66.915  1.00  0.00    -0.295 C  
HETATM   10  O   UNL     1      -7.828  18.302  65.607  1.00  0.00    -0.515 OA 
HETATM   11  OXT UNL     1      -5.908  17.119  65.609  1.00  0.00     0.027 OA 
HETATM   12  O   UNL     1     -10.626  14.783  66.228  1.00  0.00    -0.291 OA 
HETATM   13  CA  UNL     1     -10.770  16.314  68.272  1.00  0.00    -0.322 C  
ENDROOT
BRANCH  13  14
HETATM   14  N   UNL     1     -10.931  15.356  69.399  1.00  0.00    -0.257 N  
HETATM   15  H   UNL     1     -10.121  14.867  69.780  1.00  0.00     0.000 HD 
HETATM   16  C   UNL     1     -12.183  15.136  69.920  1.00  0.00    -0.314 C  
HETATM   17  O   UNL     1     -13.155  15.748  69.468  1.00  0.00     0.295 OA 
BRANCH  16  18
HETATM   18  C   UNL     1     -12.293  14.198  71.167  1.00  0.00    -0.372 C  
HETATM   19  C   UNL     1     -11.460  14.822  72.306  1.00  0.00     0.031 C  
HETATM   20  N   UNL     1     -11.698  12.895  70.787  1.00  0.00    -0.333 NA 
HETATM   21  C   UNL     1     -12.095  16.129  72.791  1.00  0.00    -0.653 C  
HETATM   22  H1  UNL     1     -11.770  12.283  71.600  1.00  0.00     0.000 HD 
HETATM   23  H2  UNL     1     -10.745  12.978  70.433  1.00  0.00     0.000 HD 
HETATM   24  C   UNL     1     -13.528  15.912  73.267  1.00  0.00    -0.599 C  
HETATM   25  C   UNL     1     -14.391  15.197  72.232  1.00  0.00    -0.559 C  
HETATM   26  C   UNL     1     -13.721  13.937  71.681  1.00  0.00    -0.396 C  
ENDBRANCH  16  18
ENDBRANCH  13  14
TORSDOF 2
ENDMDL
MODEL       46
REMARK 921   NORMALIZED FREE ENERGY PREDICTED BY IDOCK:   -5.17 KCAL/MOL
REMARK 922        TOTAL FREE ENERGY PREDICTED BY IDOCK:   -6.08 KCAL/MOL
REMARK 923 INTER-LIGAND FREE ENERGY PREDICTED BY IDOCK:   -5.71 KCAL/MOL
REMARK 924 INTRA-LIGAND FREE ENERGY PREDICTED BY IDOCK:   -0.37 KCAL/MOL
REMARK 927      BINDING AFFINITY PREDICTED BY RF-SCORE:    0.00 PKD
ROOT
HETATM    1  C   UNL     1     -10.633   8.964  67.628  1.00  0.00    -0.224 C  
HETATM    2  S   UNL     1      -8.815   8.915  67.357  1.00  0.00    -0.129 SA 
HETATM    3  C   UNL     1      -8.397   8.684  69.143  1.00  0.00    -0.119 C  
HETATM    4  C   UNL     1      -7.145   7.810  69.259  1.00  0.00    -0.076 C  
HETATM    5  C   UNL     1      -8.031  10.071  69.712  1.00  0.00    -0.190 C  
HETATM    6  CA  UNL     1      -9.683   8.114  69.792  1.00  0.00    -0.173 C  
HETATM    7  N   UNL     1     -10.830   8.694  69.071  1.00  0.00    -0.093 N  
HETATM    8  C   UNL     1      -9.832   6.583  69.756  1.00  0.00    -0.165 C  
HETATM    9  C   UNL     1     -11.230   9.976  69.348  1.00  0.00    -0.188 C  
HETATM   10  O   UNL     1     -11.047   6.164  69.308  1.00  0.00    -0.352 OA 
HETATM   11  OXT UNL     1      -8.995   5.792  70.167  1.00  0.00    -0.137 OA 
HETATM   12  O   UNL     1     -11.298  10.561  70.403  1.00  0.00    -0.303 OA 
HETATM   13  CA  UNL     1     -11.284  10.352  67.854  1.00  0.00    -0.263 C  
ENDROOT
BRANCH  13  14
HETATM   14  N   UNL     1     -10.488  11.533  67.424  1.00  0.00    -0.202 N  
HETATM   15  H   UNL     1      -9.516  11.634  67.719  1.00  0.00     0.000 HD 
HETATM   16  C   UNL     1     -11.074  12.484  66.626  1.00  0.00    -0.283 C  
HETATM   17  O   UNL     1     -12.242  12.342  66.254  1.00  0.00    -0.628 OA 
BRANCH  16  18
HETATM   18  C   UNL     1     -10.173  13.656  66.117  1.00  0.00    -0.304 C  
HETATM   19  C   UNL     1     -10.997  14.958  66.197  1.00  0.00    -0.334 C  
HETATM   20  N   UNL     1      -9.849  13.373  64.698  1.00  0.00    -0.611 NA 
HETATM   21  C   UNL     1     -11.275  15.337  67.655  1.00  0.00    -0.320 C  
HETATM   22  H1  UNL     1      -9.261  14.138  64.366  1.00  0.00     0.000 HD 
HETATM   23  H2  UNL     1     -10.676  13.225  64.120  1.00  0.00     0.000 HD 
HETATM   24  C   UNL     1      -9.982  15.501  68.447  1.00  0.00    -0.214 C  
HETATM   25  C   UNL     1      -9.059  14.292  68.327  1.00  0.00    -0.188 C  
HETATM   26  C   UNL     1      -8.848  13.859  66.876  1.00  0.00    -0.210 C  
ENDBRANCH  16  18
ENDBRANCH  13  14
TORSDOF 2
ENDMDL
MODEL       47
REMARK 921   NORMALIZED FREE ENERGY PREDICTED BY IDOCK:   -5.15 KCAL/MOL
REMARK 922        TOTAL FREE ENERGY PREDICTED BY IDOCK:   -6.05 KCAL/MOL
REMARK 923 INTER-LIGAND FREE ENERGY PREDICTED BY IDOCK:   -5.60 KCAL/MOL
REMARK 924 INTRA-LIGAND FREE ENERGY PREDICTED BY IDOCK:   -0.45 KCAL/MOL
REMARK 927      BINDING AFFINITY PREDICTED BY RF-SCORE:    0.00 PKD
ROOT
HETATM    1  C   UNL     1     -10.600  15.057  68.591  1.00  0.00    -0.237 C  
HETATM    2  S   UNL     1      -8.801  15.056  68.974  1.00  0.00    -0.187 SA 
HETATM    3  C   UNL     1      -8.264  15.099  67.207  1.00  0.00    -0.208 C  
HETATM    4  C   UNL     1      -6.967  15.905  67.094  1.00  0.00    -0.227 C  
HETATM    5  C   UNL     1      -7.929  13.650  66.792  1.00  0.00     0.375 C  
HETATM    6  CA  UNL     1      -9.479  15.657  66.424  1.00  0.00    -0.292 C  
HETATM    7  N   UNL     1     -10.695  15.196  67.118  1.00  0.00    -0.303 N  
HETATM    8  C   UNL     1      -9.557  17.190  66.309  1.00  0.00    -0.252 C  
HETATM    9  C   UNL     1     -11.137  13.912  66.935  1.00  0.00    -0.301 C  
HETATM   10  O   UNL     1     -10.776  17.700  66.636  1.00  0.00    -0.254 OA 
HETATM   11  OXT UNL     1      -8.660  17.903  65.884  1.00  0.00    -0.510 OA 
HETATM   12  O   UNL     1     -11.168  13.232  65.936  1.00  0.00    -0.287 OA 
HETATM   13  CA  UNL     1     -11.300  13.682  68.450  1.00  0.00    -0.295 C  
ENDROOT
BRANCH  13  14
HETATM   14  N   UNL     1     -10.589  12.515  69.038  1.00  0.00    -0.419 N  
HETATM   15  H   UNL     1      -9.683  12.638  69.490  1.00  0.00     0.000 HD 
HETATM   16  C   UNL     1     -11.166  11.270  68.967  1.00  0.00    -0.258 C  
HETATM   17  O   UNL     1     -12.274  11.134  68.440  1.00  0.00    -0.610 OA 
BRANCH  16  18
HETATM   18  C   UNL     1     -10.433  10.091  69.685  1.00  0.00    -0.248 C  
HETATM   19  C   UNL     1     -10.869   8.776  69.005  1.00  0.00    -0.052 C  
HETATM   20  N   UNL     1     -10.891  10.084  71.095  1.00  0.00    -0.267 NA 
HETATM   21  C   UNL     1     -10.334   8.703  67.571  1.00  0.00    -0.336 C  
HETATM   22  H1  UNL     1     -10.412   9.314  71.563  1.00  0.00     0.000 HD 
HETATM   23  H2  UNL     1     -11.906  10.037  71.185  1.00  0.00     0.000 HD 
HETATM   24  C   UNL     1      -8.814   8.816  67.533  1.00  0.00    -0.139 C  
HETATM   25  C   UNL     1      -8.296  10.040  68.283  1.00  0.00    -0.110 C  
HETATM   26  C   UNL     1      -8.894  10.163  69.685  1.00  0.00    -0.184 C  
ENDBRANCH  16  18
ENDBRANCH  13  14
TORSDOF 2
ENDMDL
MODEL       48
REMARK 921   NORMALIZED FREE ENERGY PREDICTED BY IDOCK:   -5.15 KCAL/MOL
REMARK 922        TOTAL FREE ENERGY PREDICTED BY IDOCK:   -6.05 KCAL/MOL
REMARK 923 INTER-LIGAND FREE ENERGY PREDICTED BY IDOCK:   -5.71 KCAL/MOL
REMARK 924 INTRA-LIGAND FREE ENERGY PREDICTED BY IDOCK:   -0.34 KCAL/MOL
REMARK 927      BINDING AFFINITY PREDICTED BY RF-SCORE:    0.00 PKD
ROOT
HETATM    1  C   UNL     1     -10.516  14.877  67.000  1.00  0.00    -0.272 C  
HETATM    2  S   UNL     1      -8.701  15.060  66.765  1.00  0.00    -0.241 SA 
HETATM    3  C   UNL     1      -8.252  13.745  67.984  1.00  0.00    -0.164 C  
HETATM    4  C   UNL     1      -6.980  13.035  67.512  1.00  0.00    -0.155 C  
HETATM    5  C   UNL     1      -7.906  14.449  69.313  1.00  0.00     0.030 C  
HETATM    6  CA  UNL     1      -9.515  12.858  68.112  1.00  0.00    -0.218 C  
HETATM    7  N   UNL     1     -10.686  13.736  67.931  1.00  0.00    -0.244 N  
HETATM    8  C   UNL     1      -9.633  11.706  67.098  1.00  0.00    -0.175 C  
HETATM    9  C   UNL     1     -11.108  14.528  68.967  1.00  0.00    -0.262 C  
HETATM   10  O   UNL     1     -10.845  11.642  66.483  1.00  0.00    -0.261 OA 
HETATM   11  OXT UNL     1      -8.773  10.858  66.904  1.00  0.00    -0.139 OA 
HETATM   12  O   UNL     1     -11.172  14.295  70.151  1.00  0.00    -0.176 OA 
HETATM   13  CA  UNL     1     -11.192  15.775  68.066  1.00  0.00    -0.338 C  
ENDROOT
BRANCH  13  14
HETATM   14  N   UNL     1     -10.428  16.976  68.498  1.00  0.00    -0.351 N  
HETATM   15  H   UNL     1      -9.818  16.932  69.315  1.00  0.00     0.000 HD 
HETATM   16  C   UNL     1     -10.552  18.145  67.787  1.00  0.00    -0.389 C  
HETATM   17  O   UNL     1     -11.274  18.183  66.787  1.00  0.00     0.216 OA 
BRANCH  16  18
HETATM   18  C   UNL     1      -9.656  19.352  68.217  1.00  0.00    -0.378 C  
HETATM   19  C   UNL     1      -8.215  18.833  68.400  1.00  0.00    -0.372 C  
HETATM   20  N   UNL     1     -10.168  19.833  69.522  1.00  0.00    -0.573 NA 
HETATM   21  C   UNL     1      -7.615  18.410  67.055  1.00  0.00    -0.233 C  
HETATM   22  H1  UNL     1      -9.584  20.621  69.802  1.00  0.00     0.000 HD 
HETATM   23  H2  UNL     1     -10.215  19.099  70.229  1.00  0.00     0.000 HD 
HETATM   24  C   UNL     1      -7.619  19.560  66.054  1.00  0.00    -0.326 C  
HETATM   25  C   UNL     1      -8.995  20.202  65.899  1.00  0.00    -0.110 C  
HETATM   26  C   UNL     1      -9.634  20.546  67.245  1.00  0.00    -0.580 C  
ENDBRANCH  16  18
ENDBRANCH  13  14
TORSDOF 2
ENDMDL
MODEL       49
REMARK 921   NORMALIZED FREE ENERGY PREDICTED BY IDOCK:   -5.14 KCAL/MOL
REMARK 922        TOTAL FREE ENERGY PREDICTED BY IDOCK:   -6.05 KCAL/MOL
REMARK 923 INTER-LIGAND FREE ENERGY PREDICTED BY IDOCK:   -5.86 KCAL/MOL
REMARK 924 INTRA-LIGAND FREE ENERGY PREDICTED BY IDOCK:   -0.19 KCAL/MOL
REMARK 927      BINDING AFFINITY PREDICTED BY RF-SCORE:    0.00 PKD
ROOT
HETATM    1  C   UNL     1     -10.503  17.991  67.586  1.00  0.00    -0.409 C  
HETATM    2  S   UNL     1      -9.616  18.505  69.113  1.00  0.00    -0.006 SA 
HETATM    3  C   UNL     1      -7.928  18.235  68.412  1.00  0.00    -0.306 C  
HETATM    4  C   UNL     1      -6.965  19.268  69.005  1.00  0.00    -0.381 C  
HETATM    5  C   UNL     1      -7.448  16.849  68.892  1.00  0.00    -0.238 C  
HETATM    6  CA  UNL     1      -8.111  18.283  66.875  1.00  0.00    -0.245 C  
HETATM    7  N   UNL     1      -9.448  17.737  66.578  1.00  0.00    -0.286 N  
HETATM    8  C   UNL     1      -8.021  19.678  66.231  1.00  0.00    -0.328 C  
HETATM    9  C   UNL     1      -9.645  16.380  66.582  1.00  0.00    -0.256 C  
HETATM   10  O   UNL     1      -9.047  19.953  65.380  1.00  0.00    -0.116 OA 
HETATM   11  OXT UNL     1      -7.087  20.454  66.377  1.00  0.00    -0.260 OA 
HETATM   12  O   UNL     1      -8.934  15.488  66.184  1.00  0.00    -0.316 OA 
HETATM   13  CA  UNL     1     -10.904  16.500  67.462  1.00  0.00    -0.237 C  
ENDROOT
BRANCH  13  14
HETATM   14  N   UNL     1     -10.925  15.714  68.725  1.00  0.00    -0.264 N  
HETATM   15  H   UNL     1     -10.251  15.909  69.464  1.00  0.00     0.000 HD 
HETATM   16  C   UNL     1     -11.862  14.722  68.884  1.00  0.00    -0.296 C  
HETATM   17  O   UNL     1     -12.690  14.507  67.993  1.00  0.00     0.328 OA 
BRANCH  16  18
HETATM   18  C   UNL     1     -11.912  13.989  70.264  1.00  0.00    -0.339 C  
HETATM   19  C   UNL     1     -11.056  14.795  71.262  1.00  0.00     0.065 C  
HETATM   20  N   UNL     1     -11.303  12.651  70.070  1.00  0.00    -0.501 NA 
HETATM   21  C   UNL     1     -11.703  16.152  71.560  1.00  0.00    -0.533 C  
HETATM   22  H1  UNL     1     -11.336  12.173  70.970  1.00  0.00     0.000 HD 
HETATM   23  H2  UNL     1     -10.364  12.693  69.674  1.00  0.00     0.000 HD 
HETATM   24  C   UNL     1     -13.114  15.990  72.114  1.00  0.00    -0.305 C  
HETATM   25  C   UNL     1     -13.995  15.108  71.234  1.00  0.00    -0.548 C  
HETATM   26  C   UNL     1     -13.317  13.789  70.862  1.00  0.00    -0.080 C  
ENDBRANCH  16  18
ENDBRANCH  13  14
TORSDOF 2
ENDMDL
MODEL       50
REMARK 921   NORMALIZED FREE ENERGY PREDICTED BY IDOCK:   -5.14 KCAL/MOL
REMARK 922        TOTAL FREE ENERGY PREDICTED BY IDOCK:   -6.05 KCAL/MOL
REMARK 923 INTER-LIGAND FREE ENERGY PREDICTED BY IDOCK:   -5.71 KCAL/MOL
REMARK 924 INTRA-LIGAND FREE ENERGY PREDICTED BY IDOCK:   -0.34 KCAL/MOL
REMARK 927      BINDING AFFINITY PREDICTED BY RF-SCORE:    0.00 PKD
ROOT
HETATM    1  C   UNL     1      -9.119  10.256  69.394  1.00  0.00    -0.187 C  
HETATM    2  S   UNL     1      -8.477   8.669  68.721  1.00  0.00    -0.130 SA 
HETATM    3  C   UNL     1      -8.713   9.142  66.951  1.00  0.00    -0.123 C  
HETATM    4  C   UNL     1      -7.605   8.505  66.107  1.00  0.00    -0.089 C  
HETATM    5  C   UNL     1     -10.046   8.521  66.483  1.00  0.00    -0.328 C  
HETATM    6  CA  UNL     1      -8.763  10.690  66.945  1.00  0.00    -0.132 C  
HETATM    7  N   UNL     1      -9.385  11.111  68.214  1.00  0.00    -0.169 N  
HETATM    8  C   UNL     1      -7.406  11.406  66.828  1.00  0.00    -0.135 C  
HETATM    9  C   UNL     1     -10.746  11.044  68.360  1.00  0.00    -0.203 C  
HETATM   10  O   UNL     1      -7.227  12.391  67.751  1.00  0.00    -0.096 OA 
HETATM   11  OXT UNL     1      -6.583  11.198  65.948  1.00  0.00    -0.045 OA 
HETATM   12  O   UNL     1     -11.628  11.297  67.574  1.00  0.00    -0.508 OA 
HETATM   13  CA  UNL     1     -10.631  10.332  69.722  1.00  0.00    -0.271 C  
ENDROOT
BRANCH  13  14
HETATM   14  N   UNL     1     -11.342   9.033  69.869  1.00  0.00    -0.434 N  
HETATM   15  H   UNL     1     -11.750   8.575  69.055  1.00  0.00     0.000 HD 
HETATM   16  C   UNL     1     -11.442   8.459  71.113  1.00  0.00    -0.274 C  
HETATM   17  O   UNL     1     -10.925   9.010  72.089  1.00  0.00    -0.348 OA 
BRANCH  16  18
HETATM   18  C   UNL     1     -12.110   7.048  71.206  1.00  0.00    -0.361 C  
HETATM   19  C   UNL     1     -11.651   6.223  69.986  1.00  0.00    -0.378 C  
HETATM   20  N   UNL     1     -13.576   7.253  71.131  1.00  0.00    -0.574 NA 
HETATM   21  C   UNL     1     -10.153   5.911  70.073  1.00  0.00    -0.258 C  
HETATM   22  H1  UNL     1     -14.011   6.332  71.193  1.00  0.00     0.000 HD 
HETATM   23  H2  UNL     1     -13.865   7.777  70.306  1.00  0.00     0.000 HD 
HETATM   24  C   UNL     1      -9.812   5.158  71.355  1.00  0.00    -0.239 C  
HETATM   25  C   UNL     1     -10.332   5.859  72.606  1.00  0.00    -0.225 C  
HETATM   26  C   UNL     1     -11.806   6.250  72.488  1.00  0.00    -0.199 C  
ENDBRANCH  16  18
ENDBRANCH  13  14
TORSDOF 2
ENDMDL
MODEL       51
REMARK 921   NORMALIZED FREE ENERGY PREDICTED BY IDOCK:   -5.10 KCAL/MOL
REMARK 922        TOTAL FREE ENERGY PREDICTED BY IDOCK:   -6.00 KCAL/MOL
REMARK 923 INTER-LIGAND FREE ENERGY PREDICTED BY IDOCK:   -5.53 KCAL/MOL
REMARK 924 INTRA-LIGAND FREE ENERGY PREDICTED BY IDOCK:   -0.47 KCAL/MOL
REMARK 927      BINDING AFFINITY PREDICTED BY RF-SCORE:    0.00 PKD
ROOT
HETATM    1  C   UNL     1     -10.187   8.558  66.598  1.00  0.00    -0.275 C  
HETATM    2  S   UNL     1     -10.070  10.287  67.215  1.00  0.00    -0.214 SA 
HETATM    3  C   UNL     1      -8.233  10.258  67.415  1.00  0.00    -0.114 C  
HETATM    4  C   UNL     1      -7.672  11.652  67.117  1.00  0.00    -0.159 C  
HETATM    5  C   UNL     1      -7.937   9.965  68.901  1.00  0.00    -0.096 C  
HETATM    6  CA  UNL     1      -7.740   9.117  66.492  1.00  0.00    -0.096 C  
HETATM    7  N   UNL     1      -8.789   8.082  66.478  1.00  0.00    -0.143 N  
HETATM    8  C   UNL     1      -7.452   9.511  65.032  1.00  0.00    -0.110 C  
HETATM    9  C   UNL     1      -8.901   7.212  67.532  1.00  0.00    -0.119 C  
HETATM   10  O   UNL     1      -8.024   8.680  64.119  1.00  0.00    -0.134 OA 
HETATM   11  OXT UNL     1      -6.712  10.423  64.690  1.00  0.00    -0.109 OA 
HETATM   12  O   UNL     1      -8.044   6.667  68.187  1.00  0.00    -0.109 OA 
HETATM   13  CA  UNL     1     -10.420   7.441  67.645  1.00  0.00    -0.241 C  
ENDROOT
BRANCH  13  14
HETATM   14  N   UNL     1     -10.943   7.874  68.969  1.00  0.00    -0.428 N  
HETATM   15  H   UNL     1     -11.025   8.867  69.191  1.00  0.00     0.000 HD 
HETATM   16  C   UNL     1     -11.314   6.925  69.889  1.00  0.00    -0.271 C  
HETATM   17  O   UNL     1     -11.234   5.726  69.604  1.00  0.00    -0.353 OA 
BRANCH  16  18
HETATM   18  C   UNL     1     -11.950   7.423  71.228  1.00  0.00    -0.313 C  
HETATM   19  C   UNL     1     -11.723   6.334  72.297  1.00  0.00    -0.344 C  
HETATM   20  N   UNL     1     -13.406   7.575  70.990  1.00  0.00    -0.601 NA 
HETATM   21  C   UNL     1     -10.235   6.211  72.639  1.00  0.00    -0.202 C  
HETATM   22  H1  UNL     1     -13.820   7.901  71.863  1.00  0.00     0.000 HD 
HETATM   23  H2  UNL     1     -13.843   6.726  70.632  1.00  0.00     0.000 HD 
HETATM   24  C   UNL     1      -9.661   7.535  73.131  1.00  0.00    -0.301 C  
HETATM   25  C   UNL     1      -9.942   8.691  72.175  1.00  0.00    -0.386 C  
HETATM   26  C   UNL     1     -11.413   8.764  71.763  1.00  0.00    -0.413 C  
ENDBRANCH  16  18
ENDBRANCH  13  14
TORSDOF 2
ENDMDL
MODEL       52
REMARK 921   NORMALIZED FREE ENERGY PREDICTED BY IDOCK:   -5.09 KCAL/MOL
REMARK 922        TOTAL FREE ENERGY PREDICTED BY IDOCK:   -5.99 KCAL/MOL
REMARK 923 INTER-LIGAND FREE ENERGY PREDICTED BY IDOCK:   -6.05 KCAL/MOL
REMARK 924 INTRA-LIGAND FREE ENERGY PREDICTED BY IDOCK:    0.06 KCAL/MOL
REMARK 927      BINDING AFFINITY PREDICTED BY RF-SCORE:    0.00 PKD
ROOT
HETATM    1  C   UNL     1     -11.019  10.882  67.723  1.00  0.00    -0.283 C  
HETATM    2  S   UNL     1      -9.486  11.768  67.224  1.00  0.00    -0.172 SA 
HETATM    3  C   UNL     1      -8.341  10.586  68.064  1.00  0.00    -0.116 C  
HETATM    4  C   UNL     1      -7.047  10.474  67.252  1.00  0.00    -0.088 C  
HETATM    5  C   UNL     1      -7.962  11.202  69.427  1.00  0.00     0.103 C  
HETATM    6  CA  UNL     1      -9.153   9.277  68.227  1.00  0.00    -0.128 C  
HETATM    7  N   UNL     1     -10.563   9.660  68.425  1.00  0.00    -0.223 N  
HETATM    8  C   UNL     1      -9.095   8.298  67.040  1.00  0.00    -0.145 C  
HETATM    9  C   UNL     1     -10.981  10.100  69.654  1.00  0.00    -0.264 C  
HETATM   10  O   UNL     1     -10.318   7.854  66.640  1.00  0.00    -0.291 OA 
HETATM   11  OXT UNL     1      -8.065   7.871  66.539  1.00  0.00    -0.102 OA 
HETATM   12  O   UNL     1     -10.685   9.719  70.762  1.00  0.00    -0.303 OA 
HETATM   13  CA  UNL     1     -11.698  11.321  69.045  1.00  0.00    -0.342 C  
ENDROOT
BRANCH  13  14
HETATM   14  N   UNL     1     -11.318  12.660  69.570  1.00  0.00    -0.448 N  
HETATM   15  H   UNL     1     -10.508  13.151  69.192  1.00  0.00     0.000 HD 
HETATM   16  C   UNL     1     -12.070  13.228  70.569  1.00  0.00    -0.314 C  
HETATM   17  O   UNL     1     -13.063  12.638  71.005  1.00  0.00    -0.134 OA 
BRANCH  16  18
HETATM   18  C   UNL     1     -11.695  14.678  71.022  1.00  0.00    -0.277 C  
HETATM   19  C   UNL     1     -12.710  15.651  70.388  1.00  0.00    -0.325 C  
HETATM   20  N   UNL     1     -10.344  14.967  70.485  1.00  0.00    -0.498 NA 
HETATM   21  C   UNL     1     -14.106  15.445  70.985  1.00  0.00    -0.242 C  
HETATM   22  H1  UNL     1     -10.099  15.912  70.781  1.00  0.00     0.000 HD 
HETATM   23  H2  UNL     1     -10.277  14.834  69.477  1.00  0.00     0.000 HD 
HETATM   24  C   UNL     1     -14.101  15.630  72.499  1.00  0.00    -0.562 C  
HETATM   25  C   UNL     1     -13.042  14.777  73.192  1.00  0.00    -0.598 C  
HETATM   26  C   UNL     1     -11.664  14.914  72.543  1.00  0.00    -0.297 C  
ENDBRANCH  16  18
ENDBRANCH  13  14
TORSDOF 2
ENDMDL
MODEL       53
REMARK 921   NORMALIZED FREE ENERGY PREDICTED BY IDOCK:   -5.08 KCAL/MOL
REMARK 922        TOTAL FREE ENERGY PREDICTED BY IDOCK:   -5.97 KCAL/MOL
REMARK 923 INTER-LIGAND FREE ENERGY PREDICTED BY IDOCK:   -5.74 KCAL/MOL
REMARK 924 INTRA-LIGAND FREE ENERGY PREDICTED BY IDOCK:   -0.23 KCAL/MOL
REMARK 927      BINDING AFFINITY PREDICTED BY RF-SCORE:    0.00 PKD
ROOT
HETATM    1  C   UNL     1     -10.167  13.107  67.391  1.00  0.00    -0.232 C  
HETATM    2  S   UNL     1      -9.048  12.661  66.001  1.00  0.00     0.223 SA 
HETATM    3  C   UNL     1     -10.323  11.694  65.077  1.00  0.00    -0.281 C  
HETATM    4  C   UNL     1     -10.083  11.851  63.573  1.00  0.00    -0.464 C  
HETATM    5  C   UNL     1     -10.103  10.204  65.413  1.00  0.00    -0.342 C  
HETATM    6  CA  UNL     1     -11.686  12.209  65.602  1.00  0.00    -0.323 C  
HETATM    7  N   UNL     1     -11.498  12.574  67.018  1.00  0.00    -0.334 N  
HETATM    8  C   UNL     1     -12.267  13.435  64.875  1.00  0.00    -0.408 C  
HETATM    9  C   UNL     1     -11.473  11.594  67.976  1.00  0.00    -0.315 C  
HETATM   10  O   UNL     1     -12.676  14.424  65.715  1.00  0.00    -0.396 OA 
HETATM   11  OXT UNL     1     -12.441  13.511  63.667  1.00  0.00    -0.718 OA 
HETATM   12  O   UNL     1     -12.135  10.588  68.081  1.00  0.00    -0.279 OA 
HETATM   13  CA  UNL     1     -10.193  12.162  68.618  1.00  0.00    -0.174 C  
ENDROOT
BRANCH  13  14
HETATM   14  N   UNL     1      -9.038  11.234  68.762  1.00  0.00    -0.312 N  
HETATM   15  H   UNL     1      -8.194  11.372  68.206  1.00  0.00     0.000 HD 
HETATM   16  C   UNL     1      -9.121  10.191  69.651  1.00  0.00    -0.174 C  
HETATM   17  O   UNL     1     -10.137  10.045  70.337  1.00  0.00    -0.247 OA 
BRANCH  16  18
HETATM   18  C   UNL     1      -7.850   9.301  69.843  1.00  0.00    -0.109 C  
HETATM   19  C   UNL     1      -8.318   7.854  70.102  1.00  0.00    -0.127 C  
HETATM   20  N   UNL     1      -7.141   9.805  71.043  1.00  0.00    -0.335 NA 
HETATM   21  C   UNL     1      -8.976   7.263  68.850  1.00  0.00    -0.133 C  
HETATM   22  H1  UNL     1      -6.312   9.224  71.168  1.00  0.00     0.000 HD 
HETATM   23  H2  UNL     1      -7.733   9.839  71.873  1.00  0.00     0.000 HD 
HETATM   24  C   UNL     1      -8.028   7.286  67.656  1.00  0.00    -0.114 C  
HETATM   25  C   UNL     1      -7.435   8.669  67.401  1.00  0.00    -0.089 C  
HETATM   26  C   UNL     1      -6.854   9.298  68.668  1.00  0.00    -0.061 C  
ENDBRANCH  16  18
ENDBRANCH  13  14
TORSDOF 2
ENDMDL
MODEL       54
REMARK 921   NORMALIZED FREE ENERGY PREDICTED BY IDOCK:   -5.05 KCAL/MOL
REMARK 922        TOTAL FREE ENERGY PREDICTED BY IDOCK:   -5.94 KCAL/MOL
REMARK 923 INTER-LIGAND FREE ENERGY PREDICTED BY IDOCK:   -5.68 KCAL/MOL
REMARK 924 INTRA-LIGAND FREE ENERGY PREDICTED BY IDOCK:   -0.26 KCAL/MOL
REMARK 927      BINDING AFFINITY PREDICTED BY RF-SCORE:    0.00 PKD
ROOT
HETATM    1  C   UNL     1     -11.425   7.982  70.690  1.00  0.00    -0.232 C  
HETATM    2  S   UNL     1     -10.962   6.953  69.237  1.00  0.00    -0.193 SA 
HETATM    3  C   UNL     1      -9.478   6.203  70.042  1.00  0.00    -0.154 C  
HETATM    4  C   UNL     1      -9.304   4.767  69.538  1.00  0.00    -0.198 C  
HETATM    5  C   UNL     1      -8.245   6.998  69.566  1.00  0.00    -0.132 C  
HETATM    6  CA  UNL     1      -9.715   6.361  71.564  1.00  0.00    -0.168 C  
HETATM    7  N   UNL     1     -10.469   7.613  71.761  1.00  0.00    -0.203 N  
HETATM    8  C   UNL     1     -10.505   5.228  72.244  1.00  0.00    -0.218 C  
HETATM    9  C   UNL     1      -9.814   8.816  71.713  1.00  0.00    -0.321 C  
HETATM   10  O   UNL     1     -11.524   5.668  73.030  1.00  0.00    -0.273 OA 
HETATM   11  OXT UNL     1     -10.217   4.042  72.177  1.00  0.00    -0.182 OA 
HETATM   12  O   UNL     1      -8.727   9.130  72.139  1.00  0.00    -0.306 OA 
HETATM   13  CA  UNL     1     -10.857   9.422  70.755  1.00  0.00    -0.305 C  
ENDROOT
BRANCH  13  14
HETATM   14  N   UNL     1     -10.352   9.991  69.477  1.00  0.00    -0.219 N  
HETATM   15  H   UNL     1      -9.379   9.857  69.202  1.00  0.00     0.000 HD 
HETATM   16  C   UNL     1     -11.210  10.699  68.670  1.00  0.00    -0.278 C  
HETATM   17  O   UNL     1     -12.392  10.836  68.999  1.00  0.00    -0.422 OA 
BRANCH  16  18
HETATM   18  C   UNL     1     -10.664  11.194  67.291  1.00  0.00    -0.258 C  
HETATM   19  C   UNL     1     -11.732  12.110  66.659  1.00  0.00    -0.385 C  
HETATM   20  N   UNL     1     -10.485   9.995  66.437  1.00  0.00    -0.171 NA 
HETATM   21  C   UNL     1     -11.882  13.405  67.463  1.00  0.00    -0.408 C  
HETATM   22  H1  UNL     1     -10.129  10.318  65.537  1.00  0.00     0.000 HD 
HETATM   23  H2  UNL     1     -11.332   9.433  66.353  1.00  0.00     0.000 HD 
HETATM   24  C   UNL     1     -10.560  14.158  67.565  1.00  0.00    -0.257 C  
HETATM   25  C   UNL     1      -9.422  13.283  68.081  1.00  0.00    -0.222 C  
HETATM   26  C   UNL     1      -9.324  11.951  67.336  1.00  0.00    -0.176 C  
ENDBRANCH  16  18
ENDBRANCH  13  14
TORSDOF 2
ENDMDL
MODEL       55
REMARK 921   NORMALIZED FREE ENERGY PREDICTED BY IDOCK:   -5.04 KCAL/MOL
REMARK 922        TOTAL FREE ENERGY PREDICTED BY IDOCK:   -5.93 KCAL/MOL
REMARK 923 INTER-LIGAND FREE ENERGY PREDICTED BY IDOCK:   -5.55 KCAL/MOL
REMARK 924 INTRA-LIGAND FREE ENERGY PREDICTED BY IDOCK:   -0.38 KCAL/MOL
REMARK 927      BINDING AFFINITY PREDICTED BY RF-SCORE:    0.00 PKD
ROOT
HETATM    1  C   UNL     1     -10.518  14.775  66.299  1.00  0.00    -0.296 C  
HETATM    2  S   UNL     1     -11.538  14.769  67.830  1.00  0.00    -0.343 SA 
HETATM    3  C   UNL     1     -10.408  15.885  68.776  1.00  0.00    -0.228 C  
HETATM    4  C   UNL     1     -11.237  16.756  69.723  1.00  0.00     0.110 C  
HETATM    5  C   UNL     1      -9.512  14.991  69.659  1.00  0.00    -0.026 C  
HETATM    6  CA  UNL     1      -9.589  16.642  67.701  1.00  0.00    -0.239 C  
HETATM    7  N   UNL     1      -9.411  15.724  66.561  1.00  0.00    -0.259 N  
HETATM    8  C   UNL     1     -10.220  17.939  67.164  1.00  0.00    -0.353 C  
HETATM    9  C   UNL     1      -8.461  14.737  66.624  1.00  0.00    -0.058 C  
HETATM   10  O   UNL     1     -10.233  18.018  65.806  1.00  0.00    -0.574 OA 
HETATM   11  OXT UNL     1     -10.602  18.868  67.862  1.00  0.00    -0.395 OA 
HETATM   12  O   UNL     1      -7.343  14.759  67.082  1.00  0.00    -0.166 OA 
HETATM   13  CA  UNL     1      -9.454  13.660  66.146  1.00  0.00    -0.146 C  
ENDROOT
BRANCH  13  14
HETATM   14  N   UNL     1      -9.622  12.462  67.012  1.00  0.00    -0.205 N  
HETATM   15  H   UNL     1      -9.239  12.453  67.958  1.00  0.00     0.000 HD 
HETATM   16  C   UNL     1     -10.298  11.370  66.526  1.00  0.00    -0.236 C  
HETATM   17  O   UNL     1     -10.778  11.399  65.389  1.00  0.00    -0.277 OA 
BRANCH  16  18
HETATM   18  C   UNL     1     -10.538  10.173  67.503  1.00  0.00    -0.273 C  
HETATM   19  C   UNL     1     -10.530   8.873  66.672  1.00  0.00    -0.231 C  
HETATM   20  N   UNL     1     -11.881  10.360  68.101  1.00  0.00    -0.738 NA 
HETATM   21  C   UNL     1      -9.131   8.595  66.111  1.00  0.00    -0.250 C  
HETATM   22  H1  UNL     1     -12.037   9.579  68.738  1.00  0.00     0.000 HD 
HETATM   23  H2  UNL     1     -12.619  10.460  67.404  1.00  0.00     0.000 HD 
HETATM   24  C   UNL     1      -8.092   8.496  67.222  1.00  0.00    -0.105 C  
HETATM   25  C   UNL     1      -8.112   9.702  68.157  1.00  0.00    -0.105 C  
HETATM   26  C   UNL     1      -9.521  10.035  68.651  1.00  0.00    -0.156 C  
ENDBRANCH  16  18
ENDBRANCH  13  14
TORSDOF 2
ENDMDL
MODEL       56
REMARK 921   NORMALIZED FREE ENERGY PREDICTED BY IDOCK:   -5.02 KCAL/MOL
REMARK 922        TOTAL FREE ENERGY PREDICTED BY IDOCK:   -5.91 KCAL/MOL
REMARK 923 INTER-LIGAND FREE ENERGY PREDICTED BY IDOCK:   -5.48 KCAL/MOL
REMARK 924 INTRA-LIGAND FREE ENERGY PREDICTED BY IDOCK:   -0.43 KCAL/MOL
REMARK 927      BINDING AFFINITY PREDICTED BY RF-SCORE:    0.00 PKD
ROOT
HETATM    1  C   UNL     1     -11.824  12.625  66.240  1.00  0.00    -0.410 C  
HETATM    2  S   UNL     1     -11.779  13.240  67.972  1.00  0.00    -0.361 SA 
HETATM    3  C   UNL     1     -10.169  14.127  67.783  1.00  0.00    -0.242 C  
HETATM    4  C   UNL     1     -10.179  15.383  68.658  1.00  0.00    -0.217 C  
HETATM    5  C   UNL     1      -9.066  13.202  68.340  1.00  0.00    -0.134 C  
HETATM    6  CA  UNL     1     -10.010  14.363  66.260  1.00  0.00    -0.306 C  
HETATM    7  N   UNL     1     -10.643  13.223  65.573  1.00  0.00    -0.281 N  
HETATM    8  C   UNL     1     -10.644  15.653  65.711  1.00  0.00    -0.361 C  
HETATM    9  C   UNL     1      -9.977  12.029  65.481  1.00  0.00    -0.241 C  
HETATM   10  O   UNL     1     -11.416  15.455  64.608  1.00  0.00    -0.408 OA 
HETATM   11  OXT UNL     1     -10.426  16.776  66.144  1.00  0.00    -0.319 OA 
HETATM   12  O   UNL     1      -8.808  11.801  65.279  1.00  0.00     0.105 OA 
HETATM   13  CA  UNL     1     -11.206  11.232  65.961  1.00  0.00    -0.041 C  
ENDROOT
BRANCH  13  14
HETATM   14  N   UNL     1     -11.018  10.344  67.141  1.00  0.00    -0.241 N  
HETATM   15  H   UNL     1     -11.328  10.644  68.065  1.00  0.00     0.000 HD 
HETATM   16  C   UNL     1     -10.423   9.118  66.971  1.00  0.00    -0.240 C  
HETATM   17  O   UNL     1     -10.072   8.754  65.845  1.00  0.00    -0.152 OA 
BRANCH  16  18
HETATM   18  C   UNL     1     -10.336   8.178  68.218  1.00  0.00    -0.197 C  
HETATM   19  C   UNL     1      -8.885   7.664  68.325  1.00  0.00    -0.125 C  
HETATM   20  N   UNL     1     -11.240   7.031  67.964  1.00  0.00    -0.527 NA 
HETATM   21  C   UNL     1      -7.929   8.808  68.679  1.00  0.00    -0.107 C  
HETATM   22  H1  UNL     1     -11.183   6.418  68.777  1.00  0.00     0.000 HD 
HETATM   23  H2  UNL     1     -11.040   6.551  67.086  1.00  0.00     0.000 HD 
HETATM   24  C   UNL     1      -8.327   9.487  69.985  1.00  0.00    -0.192 C  
HETATM   25  C   UNL     1      -9.788   9.928  69.999  1.00  0.00    -0.291 C  
HETATM   26  C   UNL     1     -10.739   8.813  69.562  1.00  0.00    -0.196 C  
ENDBRANCH  16  18
ENDBRANCH  13  14
TORSDOF 2
ENDMDL
MODEL       57
REMARK 921   NORMALIZED FREE ENERGY PREDICTED BY IDOCK:   -4.99 KCAL/MOL
REMARK 922        TOTAL FREE ENERGY PREDICTED BY IDOCK:   -5.88 KCAL/MOL
REMARK 923 INTER-LIGAND FREE ENERGY PREDICTED BY IDOCK:   -5.49 KCAL/MOL
REMARK 924 INTRA-LIGAND FREE ENERGY PREDICTED BY IDOCK:   -0.38 KCAL/MOL
REMARK 927      BINDING AFFINITY PREDICTED BY RF-SCORE:    0.00 PKD
ROOT
HETATM    1  C   UNL     1      -8.974  10.570  69.125  1.00  0.00    -0.161 C  
HETATM    2  S   UNL     1     -10.531   9.752  68.586  1.00  0.00    -0.215 SA 
HETATM    3  C   UNL     1      -9.726   8.737  67.268  1.00  0.00    -0.183 C  
HETATM    4  C   UNL     1     -10.452   7.393  67.155  1.00  0.00    -0.403 C  
HETATM    5  C   UNL     1      -9.935   9.474  65.928  1.00  0.00    -0.342 C  
HETATM    6  CA  UNL     1      -8.230   8.667  67.663  1.00  0.00    -0.110 C  
HETATM    7  N   UNL     1      -7.895   9.939  68.330  1.00  0.00    -0.085 N  
HETATM    8  C   UNL     1      -7.838   7.522  68.613  1.00  0.00    -0.121 C  
HETATM    9  C   UNL     1      -7.669  11.062  67.578  1.00  0.00    -0.114 C  
HETATM   10  O   UNL     1      -7.091   7.927  69.676  1.00  0.00    -0.059 OA 
HETATM   11  OXT UNL     1      -8.081   6.340  68.417  1.00  0.00    -0.110 OA 
HETATM   12  O   UNL     1      -7.091  11.193  66.524  1.00  0.00    -0.138 OA 
HETATM   13  CA  UNL     1      -8.605  11.917  68.454  1.00  0.00    -0.152 C  
ENDROOT
BRANCH  13  14
HETATM   14  N   UNL     1      -9.710  12.635  67.763  1.00  0.00    -0.200 N  
HETATM   15  H   UNL     1     -10.647  12.231  67.732  1.00  0.00     0.000 HD 
HETATM   16  C   UNL     1      -9.456  13.846  67.167  1.00  0.00    -0.246 C  
HETATM   17  O   UNL     1      -8.326  14.338  67.229  1.00  0.00    -0.191 OA 
BRANCH  16  18
HETATM   18  C   UNL     1     -10.666  14.612  66.539  1.00  0.00    -0.312 C  
HETATM   19  C   UNL     1     -10.377  14.807  65.037  1.00  0.00    -0.420 C  
HETATM   20  N   UNL     1     -10.733  15.939  67.198  1.00  0.00    -0.316 NA 
HETATM   21  C   UNL     1     -10.392  13.463  64.301  1.00  0.00    -0.249 C  
HETATM   22  H1  UNL     1     -11.522  16.438  66.789  1.00  0.00     0.000 HD 
HETATM   23  H2  UNL     1      -9.857  16.458  67.140  1.00  0.00     0.000 HD 
HETATM   24  C   UNL     1     -11.725  12.744  64.475  1.00  0.00    -0.420 C  
HETATM   25  C   UNL     1     -12.136  12.609  65.938  1.00  0.00    -0.459 C  
HETATM   26  C   UNL     1     -12.040  13.933  66.697  1.00  0.00    -0.485 C  
ENDBRANCH  16  18
ENDBRANCH  13  14
TORSDOF 2
ENDMDL
MODEL       58
REMARK 921   NORMALIZED FREE ENERGY PREDICTED BY IDOCK:   -4.98 KCAL/MOL
REMARK 922        TOTAL FREE ENERGY PREDICTED BY IDOCK:   -5.87 KCAL/MOL
REMARK 923 INTER-LIGAND FREE ENERGY PREDICTED BY IDOCK:   -5.63 KCAL/MOL
REMARK 924 INTRA-LIGAND FREE ENERGY PREDICTED BY IDOCK:   -0.24 KCAL/MOL
REMARK 927      BINDING AFFINITY PREDICTED BY RF-SCORE:    0.00 PKD
ROOT
HETATM    1  C   UNL     1      -8.792   9.478  68.790  1.00  0.00    -0.132 C  
HETATM    2  S   UNL     1      -8.654   7.667  68.502  1.00  0.00    -0.128 SA 
HETATM    3  C   UNL     1      -9.403   7.720  66.813  1.00  0.00    -0.180 C  
HETATM    4  C   UNL     1      -8.751   6.645  65.939  1.00  0.00    -0.147 C  
HETATM    5  C   UNL     1     -10.892   7.337  66.959  1.00  0.00    -0.350 C  
HETATM    6  CA  UNL     1      -9.227   9.182  66.334  1.00  0.00    -0.183 C  
HETATM    7  N   UNL     1      -9.314  10.046  67.525  1.00  0.00    -0.143 N  
HETATM    8  C   UNL     1      -7.900   9.499  65.621  1.00  0.00    -0.101 C  
HETATM    9  C   UNL     1     -10.540  10.344  68.060  1.00  0.00    -0.221 C  
HETATM   10  O   UNL     1      -7.278  10.613  66.096  1.00  0.00    -0.129 OA 
HETATM   11  OXT UNL     1      -7.463   8.886  64.658  1.00  0.00    -0.099 OA 
HETATM   12  O   UNL     1     -11.590  10.593  67.515  1.00  0.00    -0.482 OA 
HETATM   13  CA  UNL     1     -10.076   9.993  69.487  1.00  0.00    -0.227 C  
ENDROOT
BRANCH  13  14
HETATM   14  N   UNL     1     -10.876   8.983  70.230  1.00  0.00    -0.232 N  
HETATM   15  H   UNL     1     -11.683   8.540  69.790  1.00  0.00     0.000 HD 
HETATM   16  C   UNL     1     -10.517   8.652  71.514  1.00  0.00    -0.274 C  
HETATM   17  O   UNL     1      -9.525   9.175  72.030  1.00  0.00    -0.323 OA 
BRANCH  16  18
HETATM   18  C   UNL     1     -11.324   7.515  72.221  1.00  0.00    -0.292 C  
HETATM   19  C   UNL     1     -11.614   6.417  71.176  1.00  0.00    -0.378 C  
HETATM   20  N   UNL     1     -12.606   8.105  72.674  1.00  0.00    -0.602 NA 
HETATM   21  C   UNL     1     -10.319   5.718  70.749  1.00  0.00    -0.301 C  
HETATM   22  H1  UNL     1     -13.132   7.363  73.135  1.00  0.00     0.000 HD 
HETATM   23  H2  UNL     1     -13.127   8.556  71.922  1.00  0.00     0.000 HD 
HETATM   24  C   UNL     1      -9.594   5.106  71.943  1.00  0.00    -0.193 C  
HETATM   25  C   UNL     1      -9.367   6.108  73.071  1.00  0.00    -0.139 C  
HETATM   26  C   UNL     1     -10.640   6.870  73.441  1.00  0.00    -0.372 C  
ENDBRANCH  16  18
ENDBRANCH  13  14
TORSDOF 2
ENDMDL
MODEL       59
REMARK 921   NORMALIZED FREE ENERGY PREDICTED BY IDOCK:   -4.92 KCAL/MOL
REMARK 922        TOTAL FREE ENERGY PREDICTED BY IDOCK:   -5.80 KCAL/MOL
REMARK 923 INTER-LIGAND FREE ENERGY PREDICTED BY IDOCK:   -5.35 KCAL/MOL
REMARK 924 INTRA-LIGAND FREE ENERGY PREDICTED BY IDOCK:   -0.45 KCAL/MOL
REMARK 927      BINDING AFFINITY PREDICTED BY RF-SCORE:    0.00 PKD
ROOT
HETATM    1  C   UNL     1      -9.468  12.557  68.334  1.00  0.00    -0.167 C  
HETATM    2  S   UNL     1      -9.371  13.136  66.591  1.00  0.00    -0.210 SA 
HETATM    3  C   UNL     1     -11.095  13.802  66.551  1.00  0.00    -0.306 C  
HETATM    4  C   UNL     1     -11.137  15.036  65.645  1.00  0.00    -0.349 C  
HETATM    5  C   UNL     1     -11.987  12.730  65.890  1.00  0.00    -0.506 C  
HETATM    6  CA  UNL     1     -11.476  14.037  68.034  1.00  0.00    -0.311 C  
HETATM    7  N   UNL     1     -10.792  13.002  68.830  1.00  0.00    -0.254 N  
HETATM    8  C   UNL     1     -11.091  15.408  68.618  1.00  0.00    -0.289 C  
HETATM    9  C   UNL     1     -11.302  11.731  68.876  1.00  0.00    -0.267 C  
HETATM   10  O   UNL     1     -10.446  15.331  69.814  1.00  0.00    -0.260 OA 
HETATM   11  OXT UNL     1     -11.397  16.485  68.126  1.00  0.00    -0.308 OA 
HETATM   12  O   UNL     1     -12.448  11.352  68.937  1.00  0.00    -0.386 OA 
HETATM   13  CA  UNL     1      -9.929  11.098  68.577  1.00  0.00    -0.199 C  
ENDROOT
BRANCH  13  14
HETATM   14  N   UNL     1      -9.848  10.177  67.411  1.00  0.00    -0.180 N  
HETATM   15  H   UNL     1     -10.555  10.212  66.677  1.00  0.00     0.000 HD 
HETATM   16  C   UNL     1      -8.811   9.279  67.335  1.00  0.00    -0.117 C  
HETATM   17  O   UNL     1      -7.948   9.259  68.217  1.00  0.00    -0.101 OA 
BRANCH  16  18
HETATM   18  C   UNL     1      -8.709   8.399  66.047  1.00  0.00    -0.157 C  
HETATM   19  C   UNL     1      -8.869   9.326  64.824  1.00  0.00    -0.225 C  
HETATM   20  N   UNL     1      -9.840   7.441  66.081  1.00  0.00    -0.435 NA 
HETATM   21  C   UNL     1      -7.671  10.274  64.700  1.00  0.00    -0.114 C  
HETATM   22  H1  UNL     1      -9.773   6.867  65.241  1.00  0.00     0.000 HD 
HETATM   23  H2  UNL     1     -10.747   7.896  66.183  1.00  0.00     0.000 HD 
HETATM   24  C   UNL     1      -6.359   9.505  64.588  1.00  0.00    -0.084 C  
HETATM   25  C   UNL     1      -6.177   8.483  65.707  1.00  0.00    -0.052 C  
HETATM   26  C   UNL     1      -7.406   7.592  65.891  1.00  0.00    -0.074 C  
ENDBRANCH  16  18
ENDBRANCH  13  14
TORSDOF 2
ENDMDL
MODEL       60
REMARK 921   NORMALIZED FREE ENERGY PREDICTED BY IDOCK:   -4.92 KCAL/MOL
REMARK 922        TOTAL FREE ENERGY PREDICTED BY IDOCK:   -5.80 KCAL/MOL
REMARK 923 INTER-LIGAND FREE ENERGY PREDICTED BY IDOCK:   -5.65 KCAL/MOL
REMARK 924 INTRA-LIGAND FREE ENERGY PREDICTED BY IDOCK:   -0.15 KCAL/MOL
REMARK 927      BINDING AFFINITY PREDICTED BY RF-SCORE:    0.00 PKD
ROOT
HETATM    1  C   UNL     1     -10.884  14.045  66.430  1.00  0.00    -0.299 C  
HETATM    2  S   UNL     1      -9.058  13.841  66.346  1.00  0.00     0.029 SA 
HETATM    3  C   UNL     1      -8.942  12.831  67.889  1.00  0.00    -0.186 C  
HETATM    4  C   UNL     1      -7.808  11.812  67.740  1.00  0.00    -0.135 C  
HETATM    5  C   UNL     1      -8.539  13.785  69.034  1.00  0.00     0.261 C  
HETATM    6  CA  UNL     1     -10.359  12.242  68.099  1.00  0.00    -0.216 C  
HETATM    7  N   UNL     1     -11.323  13.233  67.589  1.00  0.00    -0.280 N  
HETATM    8  C   UNL     1     -10.642  10.905  67.392  1.00  0.00    -0.243 C  
HETATM    9  C   UNL     1     -11.640  14.329  68.350  1.00  0.00    -0.320 C  
HETATM   10  O   UNL     1     -11.808  10.896  66.689  1.00  0.00     0.048 OA 
HETATM   11  OXT UNL     1      -9.955   9.900  67.501  1.00  0.00    -0.168 OA 
HETATM   12  O   UNL     1     -11.814  14.426  69.542  1.00  0.00    -0.289 OA 
HETATM   13  CA  UNL     1     -11.429  15.294  67.167  1.00  0.00    -0.200 C  
ENDROOT
BRANCH  13  14
HETATM   14  N   UNL     1     -10.471  16.413  67.369  1.00  0.00    -0.306 N  
HETATM   15  H   UNL     1     -10.034  16.559  68.280  1.00  0.00     0.000 HD 
HETATM   16  C   UNL     1     -10.180  17.248  66.318  1.00  0.00    -0.342 C  
HETATM   17  O   UNL     1     -10.695  17.050  65.214  1.00  0.00    -0.616 OA 
BRANCH  16  18
HETATM   18  C   UNL     1      -9.094  18.349  66.547  1.00  0.00    -0.290 C  
HETATM   19  C   UNL     1      -9.662  19.690  66.039  1.00  0.00    -0.421 C  
HETATM   20  N   UNL     1      -7.916  17.978  65.725  1.00  0.00    -0.529 NA 
HETATM   21  C   UNL     1     -10.826  20.156  66.920  1.00  0.00    -0.084 C  
HETATM   22  H1  UNL     1      -7.207  18.696  65.875  1.00  0.00     0.000 HD 
HETATM   23  H2  UNL     1      -8.143  17.839  64.741  1.00  0.00     0.000 HD 
HETATM   24  C   UNL     1     -10.401  20.301  68.377  1.00  0.00    -0.305 C  
HETATM   25  C   UNL     1      -9.727  19.045  68.923  1.00  0.00    -0.442 C  
HETATM   26  C   UNL     1      -8.621  18.528  68.001  1.00  0.00    -0.310 C  
ENDBRANCH  16  18
ENDBRANCH  13  14
TORSDOF 2
ENDMDL
MODEL       61
REMARK 921   NORMALIZED FREE ENERGY PREDICTED BY IDOCK:   -4.91 KCAL/MOL
REMARK 922        TOTAL FREE ENERGY PREDICTED BY IDOCK:   -5.79 KCAL/MOL
REMARK 923 INTER-LIGAND FREE ENERGY PREDICTED BY IDOCK:   -5.31 KCAL/MOL
REMARK 924 INTRA-LIGAND FREE ENERGY PREDICTED BY IDOCK:   -0.48 KCAL/MOL
REMARK 927      BINDING AFFINITY PREDICTED BY RF-SCORE:    0.00 PKD
ROOT
HETATM    1  C   UNL     1     -12.468  15.999  70.028  1.00  0.00     0.178 C  
HETATM    2  S   UNL     1     -13.600  14.572  70.290  1.00  0.00     0.966 SA 
HETATM    3  C   UNL     1     -12.438  13.651  71.392  1.00  0.00    -0.285 C  
HETATM    4  C   UNL     1     -13.244  12.877  72.440  1.00  0.00    -0.447 C  
HETATM    5  C   UNL     1     -11.711  12.603  70.522  1.00  0.00     0.036 C  
HETATM    6  CA  UNL     1     -11.463  14.721  71.943  1.00  0.00    -0.009 C  
HETATM    7  N   UNL     1     -11.292  15.739  70.890  1.00  0.00    -0.362 N  
HETATM    8  C   UNL     1     -11.912  15.443  73.225  1.00  0.00    -0.454 C  
HETATM    9  C   UNL     1     -10.458  15.490  69.831  1.00  0.00    -0.313 C  
HETATM   10  O   UNL     1     -11.810  16.799  73.153  1.00  0.00    -0.434 OA 
HETATM   11  OXT UNL     1     -12.248  14.883  74.259  1.00  0.00    -0.568 OA 
HETATM   12  O   UNL     1      -9.383  14.938  69.798  1.00  0.00    -0.002 OA 
HETATM   13  CA  UNL     1     -11.517  15.940  68.806  1.00  0.00    -0.393 C  
ENDROOT
BRANCH  13  14
HETATM   14  N   UNL     1     -11.876  14.972  67.735  1.00  0.00    -0.454 N  
HETATM   15  H   UNL     1     -12.659  14.330  67.862  1.00  0.00     0.000 HD 
HETATM   16  C   UNL     1     -11.144  14.953  66.573  1.00  0.00    -0.341 C  
HETATM   17  O   UNL     1     -10.213  15.750  66.418  1.00  0.00    -0.269 OA 
BRANCH  16  18
HETATM   18  C   UNL     1     -11.616  13.991  65.435  1.00  0.00    -0.328 C  
HETATM   19  C   UNL     1     -10.376  13.573  64.619  1.00  0.00    -0.406 C  
HETATM   20  N   UNL     1     -12.534  14.763  64.563  1.00  0.00    -0.560 NA 
HETATM   21  C   UNL     1      -9.444  12.694  65.459  1.00  0.00     0.068 C  
HETATM   22  H1  UNL     1     -12.843  14.135  63.821  1.00  0.00     0.000 HD 
HETATM   23  H2  UNL     1     -12.119  15.625  64.211  1.00  0.00     0.000 HD 
HETATM   24  C   UNL     1     -10.160  11.449  65.971  1.00  0.00    -0.275 C  
HETATM   25  C   UNL     1     -11.461  11.774  66.698  1.00  0.00    -0.337 C  
HETATM   26  C   UNL     1     -12.356  12.722  65.899  1.00  0.00    -0.319 C  
ENDBRANCH  16  18
ENDBRANCH  13  14
TORSDOF 2
ENDMDL
MODEL       62
REMARK 921   NORMALIZED FREE ENERGY PREDICTED BY IDOCK:   -4.89 KCAL/MOL
REMARK 922        TOTAL FREE ENERGY PREDICTED BY IDOCK:   -5.77 KCAL/MOL
REMARK 923 INTER-LIGAND FREE ENERGY PREDICTED BY IDOCK:   -5.77 KCAL/MOL
REMARK 924 INTRA-LIGAND FREE ENERGY PREDICTED BY IDOCK:    0.00 KCAL/MOL
REMARK 927      BINDING AFFINITY PREDICTED BY RF-SCORE:    0.00 PKD
ROOT
HETATM    1  C   UNL     1      -9.055   8.716  71.758  1.00  0.00    -0.247 C  
HETATM    2  S   UNL     1     -10.751   8.281  72.324  1.00  0.00    -0.347 SA 
HETATM    3  C   UNL     1     -10.751   6.605  71.545  1.00  0.00    -0.230 C  
HETATM    4  C   UNL     1     -11.564   5.644  72.417  1.00  0.00    -0.281 C  
HETATM    5  C   UNL     1     -11.493   6.725  70.197  1.00  0.00    -0.404 C  
HETATM    6  CA  UNL     1      -9.257   6.245  71.351  1.00  0.00    -0.149 C  
HETATM    7  N   UNL     1      -8.535   7.502  71.085  1.00  0.00    -0.116 N  
HETATM    8  C   UNL     1      -8.572   5.555  72.544  1.00  0.00    -0.121 C  
HETATM    9  C   UNL     1      -8.586   8.064  69.836  1.00  0.00    -0.135 C  
HETATM   10  O   UNL     1      -7.381   6.116  72.889  1.00  0.00    -0.091 OA 
HETATM   11  OXT UNL     1      -8.985   4.544  73.095  1.00  0.00    -0.115 OA 
HETATM   12  O   UNL     1      -8.559   7.545  68.745  1.00  0.00    -0.129 OA 
HETATM   13  CA  UNL     1      -8.923   9.457  70.404  1.00  0.00    -0.250 C  
ENDROOT
BRANCH  13  14
HETATM   14  N   UNL     1     -10.152  10.118  69.890  1.00  0.00    -0.334 N  
HETATM   15  H   UNL     1     -11.067   9.871  70.269  1.00  0.00     0.000 HD 
HETATM   16  C   UNL     1     -10.043  11.065  68.901  1.00  0.00    -0.199 C  
HETATM   17  O   UNL     1      -8.930  11.374  68.465  1.00  0.00    -0.164 OA 
BRANCH  16  18
HETATM   18  C   UNL     1     -11.348  11.805  68.460  1.00  0.00    -0.273 C  
HETATM   19  C   UNL     1     -11.437  13.125  69.256  1.00  0.00    -0.348 C  
HETATM   20  N   UNL     1     -12.490  10.936  68.832  1.00  0.00    -0.705 NA 
HETATM   21  C   UNL     1     -10.324  14.090  68.833  1.00  0.00    -0.183 C  
HETATM   22  H1  UNL     1     -13.341  11.419  68.544  1.00  0.00     0.000 HD 
HETATM   23  H2  UNL     1     -12.491  10.677  69.818  1.00  0.00     0.000 HD 
HETATM   24  C   UNL     1     -10.381  14.390  67.339  1.00  0.00    -0.252 C  
HETATM   25  C   UNL     1     -10.408  13.126  66.484  1.00  0.00    -0.284 C  
HETATM   26  C   UNL     1     -11.460  12.123  66.958  1.00  0.00    -0.415 C  
ENDBRANCH  16  18
ENDBRANCH  13  14
TORSDOF 2
ENDMDL
MODEL       63
REMARK 921   NORMALIZED FREE ENERGY PREDICTED BY IDOCK:   -4.89 KCAL/MOL
REMARK 922        TOTAL FREE ENERGY PREDICTED BY IDOCK:   -5.77 KCAL/MOL
REMARK 923 INTER-LIGAND FREE ENERGY PREDICTED BY IDOCK:   -5.45 KCAL/MOL
REMARK 924 INTRA-LIGAND FREE ENERGY PREDICTED BY IDOCK:   -0.31 KCAL/MOL
REMARK 927      BINDING AFFINITY PREDICTED BY RF-SCORE:    0.00 PKD
ROOT
HETATM    1  C   UNL     1     -11.769  11.791  67.538  1.00  0.00    -0.240 C  
HETATM    2  S   UNL     1     -10.888  13.221  68.288  1.00  0.00    -0.266 SA 
HETATM    3  C   UNL     1      -9.963  13.659  66.749  1.00  0.00    -0.270 C  
HETATM    4  C   UNL     1      -9.779  15.179  66.688  1.00  0.00    -0.274 C  
HETATM    5  C   UNL     1      -8.554  13.041  66.868  1.00  0.00    -0.126 C  
HETATM    6  CA  UNL     1     -10.775  13.029  65.591  1.00  0.00    -0.275 C  
HETATM    7  N   UNL     1     -11.382  11.789  66.108  1.00  0.00    -0.318 N  
HETATM    8  C   UNL     1     -11.906  13.898  65.011  1.00  0.00    -0.373 C  
HETATM    9  C   UNL     1     -10.620  10.655  66.223  1.00  0.00    -0.161 C  
HETATM   10  O   UNL     1     -13.093  13.243  64.897  1.00  0.00    -0.737 OA 
HETATM   11  OXT UNL     1     -11.764  15.040  64.600  1.00  0.00    -0.414 OA 
HETATM   12  O   UNL     1      -9.769  10.209  65.490  1.00  0.00    -0.238 OA 
HETATM   13  CA  UNL     1     -11.102  10.398  67.664  1.00  0.00    -0.293 C  
ENDROOT
BRANCH  13  14
HETATM   14  N   UNL     1     -10.057  10.257  68.713  1.00  0.00    -0.178 N  
HETATM   15  H   UNL     1      -9.613  11.085  69.112  1.00  0.00     0.000 HD 
HETATM   16  C   UNL     1      -9.694   9.003  69.137  1.00  0.00    -0.167 C  
HETATM   17  O   UNL     1     -10.252   8.007  68.665  1.00  0.00    -0.198 OA 
BRANCH  16  18
HETATM   18  C   UNL     1      -8.665   8.904  70.310  1.00  0.00    -0.169 C  
HETATM   19  C   UNL     1      -8.273   7.422  70.476  1.00  0.00    -0.127 C  
HETATM   20  N   UNL     1      -9.357   9.364  71.538  1.00  0.00    -0.289 NA 
HETATM   21  C   UNL     1      -7.473   6.933  69.263  1.00  0.00    -0.094 C  
HETATM   22  H1  UNL     1      -8.685   9.300  72.303  1.00  0.00     0.000 HD 
HETATM   23  H2  UNL     1     -10.222   8.857  71.723  1.00  0.00     0.000 HD 
HETATM   24  C   UNL     1      -6.218   7.771  69.046  1.00  0.00    -0.036 C  
HETATM   25  C   UNL     1      -6.512   9.267  68.981  1.00  0.00    -0.047 C  
HETATM   26  C   UNL     1      -7.383   9.742  70.145  1.00  0.00    -0.159 C  
ENDBRANCH  16  18
ENDBRANCH  13  14
TORSDOF 2
ENDMDL
MODEL       64
REMARK 921   NORMALIZED FREE ENERGY PREDICTED BY IDOCK:   -4.87 KCAL/MOL
REMARK 922        TOTAL FREE ENERGY PREDICTED BY IDOCK:   -5.74 KCAL/MOL
REMARK 923 INTER-LIGAND FREE ENERGY PREDICTED BY IDOCK:   -5.47 KCAL/MOL
REMARK 924 INTRA-LIGAND FREE ENERGY PREDICTED BY IDOCK:   -0.27 KCAL/MOL
REMARK 927      BINDING AFFINITY PREDICTED BY RF-SCORE:    0.00 PKD
ROOT
HETATM    1  C   UNL     1      -9.233   8.547  72.115  1.00  0.00    -0.266 C  
HETATM    2  S   UNL     1     -10.918   8.048  72.660  1.00  0.00    -0.373 SA 
HETATM    3  C   UNL     1     -10.798   6.331  71.987  1.00  0.00    -0.245 C  
HETATM    4  C   UNL     1     -11.582   5.379  72.895  1.00  0.00    -0.296 C  
HETATM    5  C   UNL     1     -11.504   6.325  70.615  1.00  0.00    -0.397 C  
HETATM    6  CA  UNL     1      -9.281   6.048  71.858  1.00  0.00    -0.150 C  
HETATM    7  N   UNL     1      -8.624   7.328  71.534  1.00  0.00    -0.118 N  
HETATM    8  C   UNL     1      -8.595   5.474  73.110  1.00  0.00    -0.117 C  
HETATM    9  C   UNL     1      -8.667   7.809  70.251  1.00  0.00    -0.143 C  
HETATM   10  O   UNL     1      -7.450   6.124  73.452  1.00  0.00    -0.091 OA 
HETATM   11  OXT UNL     1      -8.967   4.476  73.712  1.00  0.00    -0.104 OA 
HETATM   12  O   UNL     1      -8.577   7.226  69.196  1.00  0.00    -0.132 OA 
HETATM   13  CA  UNL     1      -9.101   9.211  70.721  1.00  0.00    -0.255 C  
ENDROOT
BRANCH  13  14
HETATM   14  N   UNL     1     -10.349   9.766  70.133  1.00  0.00    -0.265 N  
HETATM   15  H   UNL     1     -11.253   9.344  70.348  1.00  0.00     0.000 HD 
HETATM   16  C   UNL     1     -10.273  10.853  69.297  1.00  0.00    -0.166 C  
HETATM   17  O   UNL     1      -9.178  11.373  69.061  1.00  0.00    -0.079 OA 
BRANCH  16  18
HETATM   18  C   UNL     1     -11.616  11.466  68.781  1.00  0.00    -0.313 C  
HETATM   19  C   UNL     1     -12.729  11.079  69.778  1.00  0.00    -0.024 C  
HETATM   20  N   UNL     1     -11.904  10.842  67.467  1.00  0.00    -0.541 NA 
HETATM   21  C   UNL     1     -12.518  11.778  71.125  1.00  0.00    -0.390 C  
HETATM   22  H1  UNL     1     -12.780  11.242  67.130  1.00  0.00     0.000 HD 
HETATM   23  H2  UNL     1     -11.916   9.823  67.502  1.00  0.00     0.000 HD 
HETATM   24  C   UNL     1     -12.477  13.295  70.969  1.00  0.00    -0.422 C  
HETATM   25  C   UNL     1     -11.473  13.752  69.915  1.00  0.00    -0.230 C  
HETATM   26  C   UNL     1     -11.625  12.994  68.595  1.00  0.00    -0.354 C  
ENDBRANCH  16  18
ENDBRANCH  13  14
TORSDOF 2
ENDMDL
MODEL       65
REMARK 921   NORMALIZED FREE ENERGY PREDICTED BY IDOCK:   -4.87 KCAL/MOL
REMARK 922        TOTAL FREE ENERGY PREDICTED BY IDOCK:   -5.74 KCAL/MOL
REMARK 923 INTER-LIGAND FREE ENERGY PREDICTED BY IDOCK:   -5.42 KCAL/MOL
REMARK 924 INTRA-LIGAND FREE ENERGY PREDICTED BY IDOCK:   -0.32 KCAL/MOL
REMARK 927      BINDING AFFINITY PREDICTED BY RF-SCORE:    0.00 PKD
ROOT
HETATM    1  C   UNL     1      -9.004   9.722  69.735  1.00  0.00    -0.221 C  
HETATM    2  S   UNL     1     -10.663   8.929  69.796  1.00  0.00    -0.200 SA 
HETATM    3  C   UNL     1     -10.249   7.605  68.576  1.00  0.00    -0.199 C  
HETATM    4  C   UNL     1     -11.005   6.325  68.946  1.00  0.00    -0.435 C  
HETATM    5  C   UNL     1     -10.785   8.061  67.202  1.00  0.00    -0.285 C  
HETATM    6  CA  UNL     1      -8.704   7.506  68.589  1.00  0.00    -0.128 C  
HETATM    7  N   UNL     1      -8.182   8.859  68.854  1.00  0.00    -0.116 N  
HETATM    8  C   UNL     1      -8.100   6.557  69.639  1.00  0.00    -0.125 C  
HETATM    9  C   UNL     1      -8.138   9.782  67.842  1.00  0.00    -0.112 C  
HETATM   10  O   UNL     1      -7.093   7.116  70.365  1.00  0.00    -0.063 OA 
HETATM   11  OXT UNL     1      -8.408   5.381  69.774  1.00  0.00    -0.097 OA 
HETATM   12  O   UNL     1      -7.853   9.647  66.675  1.00  0.00    -0.104 OA 
HETATM   13  CA  UNL     1      -8.798  10.868  68.714  1.00  0.00    -0.161 C  
ENDROOT
BRANCH  13  14
HETATM   14  N   UNL     1     -10.031  11.508  68.180  1.00  0.00    -0.186 N  
HETATM   15  H   UNL     1     -10.951  11.161  68.453  1.00  0.00     0.000 HD 
HETATM   16  C   UNL     1      -9.917  12.570  67.318  1.00  0.00    -0.211 C  
HETATM   17  O   UNL     1      -8.801  12.999  67.011  1.00  0.00    -0.213 OA 
BRANCH  16  18
HETATM   18  C   UNL     1     -11.236  13.275  66.860  1.00  0.00    -0.305 C  
HETATM   19  C   UNL     1     -12.004  13.714  68.125  1.00  0.00    -0.390 C  
HETATM   20  N   UNL     1     -12.040  12.266  66.130  1.00  0.00    -0.627 NA 
HETATM   21  C   UNL     1     -11.248  14.825  68.861  1.00  0.00    -0.282 C  
HETATM   22  H1  UNL     1     -12.900  12.726  65.831  1.00  0.00     0.000 HD 
HETATM   23  H2  UNL     1     -12.207  11.419  66.672  1.00  0.00     0.000 HD 
HETATM   24  C   UNL     1     -11.014  16.034  67.962  1.00  0.00    -0.341 C  
HETATM   25  C   UNL     1     -10.354  15.664  66.636  1.00  0.00    -0.290 C  
HETATM   26  C   UNL     1     -11.056  14.497  65.940  1.00  0.00    -0.327 C  
ENDBRANCH  16  18
ENDBRANCH  13  14
TORSDOF 2
ENDMDL
MODEL       66
REMARK 921   NORMALIZED FREE ENERGY PREDICTED BY IDOCK:   -4.84 KCAL/MOL
REMARK 922        TOTAL FREE ENERGY PREDICTED BY IDOCK:   -5.71 KCAL/MOL
REMARK 923 INTER-LIGAND FREE ENERGY PREDICTED BY IDOCK:   -5.52 KCAL/MOL
REMARK 924 INTRA-LIGAND FREE ENERGY PREDICTED BY IDOCK:   -0.19 KCAL/MOL
REMARK 927      BINDING AFFINITY PREDICTED BY RF-SCORE:    0.00 PKD
ROOT
HETATM    1  C   UNL     1     -10.580   8.461  69.320  1.00  0.00    -0.182 C  
HETATM    2  S   UNL     1     -10.225   8.258  67.527  1.00  0.00    -0.263 SA 
HETATM    3  C   UNL     1      -8.473   7.724  67.773  1.00  0.00    -0.121 C  
HETATM    4  C   UNL     1      -8.096   6.714  66.686  1.00  0.00    -0.110 C  
HETATM    5  C   UNL     1      -7.580   8.965  67.561  1.00  0.00    -0.093 C  
HETATM    6  CA  UNL     1      -8.405   7.206  69.231  1.00  0.00    -0.133 C  
HETATM    7  N   UNL     1      -9.358   8.005  70.023  1.00  0.00    -0.156 N  
HETATM    8  C   UNL     1      -8.756   5.722  69.434  1.00  0.00    -0.111 C  
HETATM    9  C   UNL     1      -9.013   9.268  70.431  1.00  0.00    -0.239 C  
HETATM   10  O   UNL     1      -9.653   5.505  70.434  1.00  0.00    -0.159 OA 
HETATM   11  OXT UNL     1      -8.232   4.794  68.834  1.00  0.00    -0.082 OA 
HETATM   12  O   UNL     1      -7.957   9.696  70.835  1.00  0.00    -0.307 OA 
HETATM   13  CA  UNL     1     -10.347   9.862  69.939  1.00  0.00    -0.258 C  
ENDROOT
BRANCH  13  14
HETATM   14  N   UNL     1     -10.270  11.001  68.986  1.00  0.00    -0.262 N  
HETATM   15  H   UNL     1      -9.364  11.342  68.662  1.00  0.00     0.000 HD 
HETATM   16  C   UNL     1     -11.430  11.589  68.545  1.00  0.00    -0.292 C  
HETATM   17  O   UNL     1     -12.523  11.155  68.923  1.00  0.00    -0.460 OA 
BRANCH  16  18
HETATM   18  C   UNL     1     -11.307  12.716  67.468  1.00  0.00    -0.308 C  
HETATM   19  C   UNL     1     -12.014  13.974  68.015  1.00  0.00    -0.386 C  
HETATM   20  N   UNL     1     -12.022  12.245  66.258  1.00  0.00    -0.626 NA 
HETATM   21  C   UNL     1     -11.251  14.548  69.214  1.00  0.00    -0.309 C  
HETATM   22  H1  UNL     1     -11.942  12.980  65.556  1.00  0.00     0.000 HD 
HETATM   23  H2  UNL     1     -12.988  11.973  66.444  1.00  0.00     0.000 HD 
HETATM   24  C   UNL     1      -9.811  14.890  68.850  1.00  0.00    -0.230 C  
HETATM   25  C   UNL     1      -9.074  13.722  68.199  1.00  0.00    -0.194 C  
HETATM   26  C   UNL     1      -9.872  13.092  67.057  1.00  0.00    -0.238 C  
ENDBRANCH  16  18
ENDBRANCH  13  14
TORSDOF 2
ENDMDL
MODEL       67
REMARK 921   NORMALIZED FREE ENERGY PREDICTED BY IDOCK:   -4.84 KCAL/MOL
REMARK 922        TOTAL FREE ENERGY PREDICTED BY IDOCK:   -5.71 KCAL/MOL
REMARK 923 INTER-LIGAND FREE ENERGY PREDICTED BY IDOCK:   -5.39 KCAL/MOL
REMARK 924 INTRA-LIGAND FREE ENERGY PREDICTED BY IDOCK:   -0.32 KCAL/MOL
REMARK 927      BINDING AFFINITY PREDICTED BY RF-SCORE:    0.00 PKD
ROOT
HETATM    1  C   UNL     1     -10.724   9.627  68.431  1.00  0.00    -0.209 C  
HETATM    2  S   UNL     1     -10.440   8.692  66.873  1.00  0.00    -0.199 SA 
HETATM    3  C   UNL     1      -8.610   8.947  66.868  1.00  0.00    -0.115 C  
HETATM    4  C   UNL     1      -7.931   7.716  66.261  1.00  0.00    -0.105 C  
HETATM    5  C   UNL     1      -8.313  10.133  65.926  1.00  0.00    -0.137 C  
HETATM    6  CA  UNL     1      -8.238   9.270  68.337  1.00  0.00    -0.115 C  
HETATM    7  N   UNL     1      -9.377   9.999  68.925  1.00  0.00    -0.164 N  
HETATM    8  C   UNL     1      -7.943   8.057  69.237  1.00  0.00    -0.116 C  
HETATM    9  C   UNL     1      -9.546  11.331  68.650  1.00  0.00    -0.190 C  
HETATM   10  O   UNL     1      -8.605   8.086  70.426  1.00  0.00    -0.128 OA 
HETATM   11  OXT UNL     1      -7.131   7.180  68.980  1.00  0.00    -0.078 OA 
HETATM   12  O   UNL     1      -8.730  12.217  68.548  1.00  0.00    -0.157 OA 
HETATM   13  CA  UNL     1     -11.037  11.139  68.310  1.00  0.00    -0.251 C  
ENDROOT
BRANCH  13  14
HETATM   14  N   UNL     1     -11.494  11.614  66.975  1.00  0.00    -0.303 N  
HETATM   15  H   UNL     1     -11.655  10.948  66.219  1.00  0.00     0.000 HD 
HETATM   16  C   UNL     1     -11.695  12.957  66.773  1.00  0.00    -0.383 C  
HETATM   17  O   UNL     1     -11.520  13.753  67.700  1.00  0.00    -0.289 OA 
BRANCH  16  18
HETATM   18  C   UNL     1     -12.270  13.402  65.388  1.00  0.00    -0.452 C  
HETATM   19  C   UNL     1     -11.230  14.322  64.715  1.00  0.00    -0.387 C  
HETATM   20  N   UNL     1     -13.504  14.178  65.657  1.00  0.00    -0.600 NA 
HETATM   21  C   UNL     1      -9.971  13.533  64.338  1.00  0.00     0.134 C  
HETATM   22  H1  UNL     1     -13.879  14.468  64.753  1.00  0.00     0.000 HD 
HETATM   23  H2  UNL     1     -13.355  14.958  66.296  1.00  0.00     0.000 HD 
HETATM   24  C   UNL     1     -10.298  12.368  63.409  1.00  0.00    -0.319 C  
HETATM   25  C   UNL     1     -11.402  11.469  63.958  1.00  0.00    -0.380 C  
HETATM   26  C   UNL     1     -12.627  12.261  64.417  1.00  0.00    -0.447 C  
ENDBRANCH  16  18
ENDBRANCH  13  14
TORSDOF 2
ENDMDL
MODEL       68
REMARK 921   NORMALIZED FREE ENERGY PREDICTED BY IDOCK:   -4.84 KCAL/MOL
REMARK 922        TOTAL FREE ENERGY PREDICTED BY IDOCK:   -5.71 KCAL/MOL
REMARK 923 INTER-LIGAND FREE ENERGY PREDICTED BY IDOCK:   -5.24 KCAL/MOL
REMARK 924 INTRA-LIGAND FREE ENERGY PREDICTED BY IDOCK:   -0.47 KCAL/MOL
REMARK 927      BINDING AFFINITY PREDICTED BY RF-SCORE:    0.00 PKD
ROOT
HETATM    1  C   UNL     1      -8.210   8.498  68.982  1.00  0.00    -0.116 C  
HETATM    2  S   UNL     1      -8.568   9.255  70.619  1.00  0.00    -0.204 SA 
HETATM    3  C   UNL     1     -10.263   8.533  70.758  1.00  0.00    -0.198 C  
HETATM    4  C   UNL     1     -10.564   8.233  72.230  1.00  0.00    -0.393 C  
HETATM    5  C   UNL     1     -11.264   9.618  70.308  1.00  0.00    -0.324 C  
HETATM    6  CA  UNL     1     -10.267   7.313  69.804  1.00  0.00    -0.210 C  
HETATM    7  N   UNL     1      -9.378   7.639  68.674  1.00  0.00    -0.147 N  
HETATM    8  C   UNL     1      -9.784   5.983  70.411  1.00  0.00    -0.169 C  
HETATM    9  C   UNL     1      -9.827   8.456  67.670  1.00  0.00    -0.173 C  
HETATM   10  O   UNL     1      -8.859   5.340  69.649  1.00  0.00    -0.105 OA 
HETATM   11  OXT UNL     1     -10.232   5.481  71.432  1.00  0.00    -0.199 OA 
HETATM   12  O   UNL     1     -10.911   8.515  67.138  1.00  0.00    -0.216 OA 
HETATM   13  CA  UNL     1      -8.557   9.327  67.720  1.00  0.00    -0.117 C  
ENDROOT
BRANCH  13  14
HETATM   14  N   UNL     1      -8.745  10.789  67.922  1.00  0.00    -0.127 N  
HETATM   15  H   UNL     1      -8.687  11.192  68.857  1.00  0.00     0.000 HD 
HETATM   16  C   UNL     1      -8.999  11.590  66.836  1.00  0.00    -0.179 C  
HETATM   17  O   UNL     1      -9.045  11.098  65.704  1.00  0.00    -0.205 OA 
BRANCH  16  18
HETATM   18  C   UNL     1      -9.092  13.132  67.080  1.00  0.00    -0.231 C  
HETATM   19  C   UNL     1      -9.972  13.737  65.967  1.00  0.00    -0.319 C  
HETATM   20  N   UNL     1      -7.718  13.676  66.962  1.00  0.00    -0.358 NA 
HETATM   21  C   UNL     1     -11.425  13.270  66.109  1.00  0.00    -0.359 C  
HETATM   22  H1  UNL     1      -7.779  14.682  67.121  1.00  0.00     0.000 HD 
HETATM   23  H2  UNL     1      -7.267  13.438  66.079  1.00  0.00     0.000 HD 
HETATM   24  C   UNL     1     -12.001  13.639  67.472  1.00  0.00    -0.393 C  
HETATM   25  C   UNL     1     -11.124  13.168  68.629  1.00  0.00    -0.304 C  
HETATM   26  C   UNL     1      -9.657  13.558  68.447  1.00  0.00    -0.196 C  
ENDBRANCH  16  18
ENDBRANCH  13  14
TORSDOF 2
ENDMDL
MODEL       69
REMARK 921   NORMALIZED FREE ENERGY PREDICTED BY IDOCK:   -4.82 KCAL/MOL
REMARK 922        TOTAL FREE ENERGY PREDICTED BY IDOCK:   -5.69 KCAL/MOL
REMARK 923 INTER-LIGAND FREE ENERGY PREDICTED BY IDOCK:   -5.59 KCAL/MOL
REMARK 924 INTRA-LIGAND FREE ENERGY PREDICTED BY IDOCK:   -0.10 KCAL/MOL
REMARK 927      BINDING AFFINITY PREDICTED BY RF-SCORE:    0.00 PKD
ROOT
HETATM    1  C   UNL     1      -7.921   9.008  68.009  1.00  0.00    -0.101 C  
HETATM    2  S   UNL     1      -8.125   9.989  69.552  1.00  0.00    -0.171 SA 
HETATM    3  C   UNL     1      -9.571   9.015  70.166  1.00  0.00    -0.193 C  
HETATM    4  C   UNL     1      -9.524   8.954  71.696  1.00  0.00    -0.351 C  
HETATM    5  C   UNL     1     -10.846   9.798  69.788  1.00  0.00    -0.285 C  
HETATM    6  CA  UNL     1      -9.489   7.655  69.431  1.00  0.00    -0.152 C  
HETATM    7  N   UNL     1      -8.914   7.912  68.098  1.00  0.00    -0.132 N  
HETATM    8  C   UNL     1      -8.629   6.574  70.111  1.00  0.00    -0.140 C  
HETATM    9  C   UNL     1      -9.705   8.428  67.105  1.00  0.00    -0.190 C  
HETATM   10  O   UNL     1      -7.744   5.972  69.271  1.00  0.00    -0.091 OA 
HETATM   11  OXT UNL     1      -8.763   6.204  71.269  1.00  0.00    -0.131 OA 
HETATM   12  O   UNL     1     -10.855   8.190  66.820  1.00  0.00    -0.197 OA 
HETATM   13  CA  UNL     1      -8.663   9.505  66.744  1.00  0.00    -0.127 C  
ENDROOT
BRANCH  13  14
HETATM   14  N   UNL     1      -9.120  10.921  66.760  1.00  0.00    -0.150 N  
HETATM   15  H   UNL     1      -8.927  11.516  67.566  1.00  0.00     0.000 HD 
HETATM   16  C   UNL     1      -9.805  11.418  65.678  1.00  0.00    -0.235 C  
HETATM   17  O   UNL     1     -10.015  10.698  64.698  1.00  0.00    -0.287 OA 
BRANCH  16  18
HETATM   18  C   UNL     1     -10.179  12.937  65.694  1.00  0.00    -0.285 C  
HETATM   19  C   UNL     1     -11.663  13.057  66.101  1.00  0.00    -0.445 C  
HETATM   20  N   UNL     1     -10.012  13.442  64.311  1.00  0.00    -0.746 NA 
HETATM   21  C   UNL     1     -11.863  12.630  67.559  1.00  0.00    -0.396 C  
HETATM   22  H1  UNL     1     -10.256  14.433  64.321  1.00  0.00     0.000 HD 
HETATM   23  H2  UNL     1     -10.542  12.907  63.623  1.00  0.00     0.000 HD 
HETATM   24  C   UNL     1     -11.005  13.459  68.508  1.00  0.00    -0.292 C  
HETATM   25  C   UNL     1      -9.533  13.481  68.107  1.00  0.00    -0.214 C  
HETATM   26  C   UNL     1      -9.335  13.822  66.629  1.00  0.00    -0.277 C  
ENDBRANCH  16  18
ENDBRANCH  13  14
TORSDOF 2
ENDMDL
MODEL       70
REMARK 921   NORMALIZED FREE ENERGY PREDICTED BY IDOCK:   -4.81 KCAL/MOL
REMARK 922        TOTAL FREE ENERGY PREDICTED BY IDOCK:   -5.68 KCAL/MOL
REMARK 923 INTER-LIGAND FREE ENERGY PREDICTED BY IDOCK:   -6.00 KCAL/MOL
REMARK 924 INTRA-LIGAND FREE ENERGY PREDICTED BY IDOCK:    0.33 KCAL/MOL
REMARK 927      BINDING AFFINITY PREDICTED BY RF-SCORE:    0.00 PKD
ROOT
HETATM    1  C   UNL     1      -7.954  11.146  66.932  1.00  0.00    -0.151 C  
HETATM    2  S   UNL     1      -8.748  11.603  68.528  1.00  0.00    -0.089 SA 
HETATM    3  C   UNL     1      -9.559   9.960  68.775  1.00  0.00    -0.160 C  
HETATM    4  C   UNL     1      -9.614   9.646  70.273  1.00  0.00    -0.307 C  
HETATM    5  C   UNL     1     -11.018  10.090  68.290  1.00  0.00    -0.278 C  
HETATM    6  CA  UNL     1      -8.747   8.969  67.905  1.00  0.00    -0.129 C  
HETATM    7  N   UNL     1      -8.270   9.713  66.725  1.00  0.00    -0.113 N  
HETATM    8  C   UNL     1      -7.522   8.328  68.581  1.00  0.00    -0.097 C  
HETATM    9  C   UNL     1      -9.128   9.961  65.684  1.00  0.00    -0.178 C  
HETATM   10  O   UNL     1      -6.388   8.393  67.830  1.00  0.00    -0.054 OA 
HETATM   11  OXT UNL     1      -7.548   7.732  69.648  1.00  0.00    -0.088 OA 
HETATM   12  O   UNL     1      -9.977   9.258  65.189  1.00  0.00    -0.005 OA 
HETATM   13  CA  UNL     1      -8.739  11.451  65.632  1.00  0.00    -0.016 C  
ENDROOT
BRANCH  13  14
HETATM   14  N   UNL     1      -9.842  12.443  65.743  1.00  0.00    -0.279 N  
HETATM   15  H   UNL     1     -10.184  12.732  66.659  1.00  0.00     0.000 HD 
HETATM   16  C   UNL     1     -10.393  12.966  64.599  1.00  0.00    -0.344 C  
HETATM   17  O   UNL     1      -9.957  12.629  63.494  1.00  0.00    -0.359 OA 
BRANCH  16  18
HETATM   18  C   UNL     1     -11.480  14.078  64.762  1.00  0.00    -0.369 C  
HETATM   19  C   UNL     1     -12.274  13.782  66.052  1.00  0.00    -0.495 C  
HETATM   20  N   UNL     1     -12.391  13.973  63.597  1.00  0.00    -1.059 NA 
HETATM   21  C   UNL     1     -11.389  13.970  67.289  1.00  0.00    -0.350 C  
HETATM   22  H1  UNL     1     -13.100  14.699  63.704  1.00  0.00     0.000 HD 
HETATM   23  H2  UNL     1     -12.788  13.041  63.482  1.00  0.00     0.000 HD 
HETATM   24  C   UNL     1     -10.814  15.380  67.357  1.00  0.00    -0.309 C  
HETATM   25  C   UNL     1     -10.105  15.791  66.070  1.00  0.00    -0.359 C  
HETATM   26  C   UNL     1     -10.952  15.524  64.825  1.00  0.00    -0.416 C  
ENDBRANCH  16  18
ENDBRANCH  13  14
TORSDOF 2
ENDMDL
MODEL       71
REMARK 921   NORMALIZED FREE ENERGY PREDICTED BY IDOCK:   -4.79 KCAL/MOL
REMARK 922        TOTAL FREE ENERGY PREDICTED BY IDOCK:   -5.66 KCAL/MOL
REMARK 923 INTER-LIGAND FREE ENERGY PREDICTED BY IDOCK:   -5.26 KCAL/MOL
REMARK 924 INTRA-LIGAND FREE ENERGY PREDICTED BY IDOCK:   -0.40 KCAL/MOL
REMARK 927      BINDING AFFINITY PREDICTED BY RF-SCORE:    0.00 PKD
ROOT
HETATM    1  C   UNL     1      -9.334   9.008  71.358  1.00  0.00    -0.240 C  
HETATM    2  S   UNL     1     -11.172   8.944  71.299  1.00  0.00    -0.327 SA 
HETATM    3  C   UNL     1     -11.262   7.100  71.216  1.00  0.00    -0.259 C  
HETATM    4  C   UNL     1     -12.516   6.623  71.955  1.00  0.00    -0.334 C  
HETATM    5  C   UNL     1     -11.442   6.714  69.732  1.00  0.00    -0.388 C  
HETATM    6  CA  UNL     1      -9.910   6.599  71.782  1.00  0.00    -0.161 C  
HETATM    7  N   UNL     1      -8.887   7.596  71.417  1.00  0.00    -0.130 N  
HETATM    8  C   UNL     1      -9.852   6.405  73.308  1.00  0.00    -0.170 C  
HETATM    9  C   UNL     1      -8.376   7.611  70.146  1.00  0.00    -0.130 C  
HETATM   10  O   UNL     1      -8.765   6.982  73.890  1.00  0.00    -0.138 OA 
HETATM   11  OXT UNL     1     -10.639   5.729  73.955  1.00  0.00    -0.264 OA 
HETATM   12  O   UNL     1      -8.082   6.697  69.412  1.00  0.00    -0.115 OA 
HETATM   13  CA  UNL     1      -8.580   9.132  70.011  1.00  0.00    -0.163 C  
ENDROOT
BRANCH  13  14
HETATM   14  N   UNL     1      -9.379   9.608  68.848  1.00  0.00    -0.147 N  
HETATM   15  H   UNL     1     -10.113   9.020  68.453  1.00  0.00     0.000 HD 
HETATM   16  C   UNL     1      -9.117  10.845  68.314  1.00  0.00    -0.158 C  
HETATM   17  O   UNL     1      -8.243  11.560  68.813  1.00  0.00    -0.145 OA 
BRANCH  16  18
HETATM   18  C   UNL     1     -10.044  11.346  67.159  1.00  0.00    -0.198 C  
HETATM   19  C   UNL     1     -11.506  11.236  67.641  1.00  0.00    -0.341 C  
HETATM   20  N   UNL     1      -9.842  10.431  66.009  1.00  0.00    -0.219 NA 
HETATM   21  C   UNL     1     -11.781  12.234  68.771  1.00  0.00    -0.390 C  
HETATM   22  H1  UNL     1     -10.447  10.758  65.256  1.00  0.00     0.000 HD 
HETATM   23  H2  UNL     1      -9.993   9.451  66.247  1.00  0.00     0.000 HD 
HETATM   24  C   UNL     1     -11.494  13.667  68.335  1.00  0.00    -0.346 C  
HETATM   25  C   UNL     1     -10.098  13.834  67.741  1.00  0.00    -0.245 C  
HETATM   26  C   UNL     1      -9.788  12.784  66.673  1.00  0.00    -0.250 C  
ENDBRANCH  16  18
ENDBRANCH  13  14
TORSDOF 2
ENDMDL
MODEL       72
REMARK 921   NORMALIZED FREE ENERGY PREDICTED BY IDOCK:   -4.78 KCAL/MOL
REMARK 922        TOTAL FREE ENERGY PREDICTED BY IDOCK:   -5.64 KCAL/MOL
REMARK 923 INTER-LIGAND FREE ENERGY PREDICTED BY IDOCK:   -5.57 KCAL/MOL
REMARK 924 INTRA-LIGAND FREE ENERGY PREDICTED BY IDOCK:   -0.07 KCAL/MOL
REMARK 927      BINDING AFFINITY PREDICTED BY RF-SCORE:    0.00 PKD
ROOT
HETATM    1  C   UNL     1      -9.616  14.737  66.263  1.00  0.00    -0.312 C  
HETATM    2  S   UNL     1      -9.369  13.099  65.463  1.00  0.00     0.477 SA 
HETATM    3  C   UNL     1     -11.156  12.631  65.509  1.00  0.00    -0.294 C  
HETATM    4  C   UNL     1     -11.487  11.785  64.276  1.00  0.00    -0.386 C  
HETATM    5  C   UNL     1     -11.363  11.726  66.742  1.00  0.00    -0.385 C  
HETATM    6  CA  UNL     1     -11.925  13.969  65.639  1.00  0.00    -0.397 C  
HETATM    7  N   UNL     1     -11.081  14.883  66.429  1.00  0.00    -0.341 N  
HETATM    8  C   UNL     1     -12.271  14.677  64.316  1.00  0.00    -0.408 C  
HETATM    9  C   UNL     1     -11.030  14.754  67.793  1.00  0.00    -0.291 C  
HETATM   10  O   UNL     1     -11.940  15.997  64.301  1.00  0.00    -0.527 OA 
HETATM   11  OXT UNL     1     -12.866  14.157  63.383  1.00  0.00    -0.570 OA 
HETATM   12  O   UNL     1     -11.906  14.501  68.586  1.00  0.00    -0.319 OA 
HETATM   13  CA  UNL     1      -9.490  14.804  67.806  1.00  0.00    -0.204 C  
ENDROOT
BRANCH  13  14
HETATM   14  N   UNL     1      -8.780  13.672  68.460  1.00  0.00    -0.302 N  
HETATM   15  H   UNL     1      -9.305  12.966  68.977  1.00  0.00     0.000 HD 
HETATM   16  C   UNL     1      -7.413  13.588  68.361  1.00  0.00    -0.124 C  
HETATM   17  O   UNL     1      -6.789  14.434  67.714  1.00  0.00    -0.150 OA 
BRANCH  16  18
HETATM   18  C   UNL     1      -6.719  12.331  68.979  1.00  0.00    -0.105 C  
HETATM   19  C   UNL     1      -7.708  11.150  68.891  1.00  0.00    -0.137 C  
HETATM   20  N   UNL     1      -6.452  12.635  70.405  1.00  0.00    -0.448 NA 
HETATM   21  C   UNL     1      -7.940  10.743  67.432  1.00  0.00    -0.112 C  
HETATM   22  H1  UNL     1      -5.999  11.815  70.808  1.00  0.00     0.000 HD 
HETATM   23  H2  UNL     1      -7.287  12.922  70.916  1.00  0.00     0.000 HD 
HETATM   24  C   UNL     1      -6.634  10.366  66.741  1.00  0.00    -0.078 C  
HETATM   25  C   UNL     1      -5.562  11.443  66.880  1.00  0.00    -0.118 C  
HETATM   26  C   UNL     1      -5.389  11.914  68.325  1.00  0.00    -0.043 C  
ENDBRANCH  16  18
ENDBRANCH  13  14
TORSDOF 2
ENDMDL
MODEL       73
REMARK 921   NORMALIZED FREE ENERGY PREDICTED BY IDOCK:   -4.77 KCAL/MOL
REMARK 922        TOTAL FREE ENERGY PREDICTED BY IDOCK:   -5.63 KCAL/MOL
REMARK 923 INTER-LIGAND FREE ENERGY PREDICTED BY IDOCK:   -5.36 KCAL/MOL
REMARK 924 INTRA-LIGAND FREE ENERGY PREDICTED BY IDOCK:   -0.27 KCAL/MOL
REMARK 927      BINDING AFFINITY PREDICTED BY RF-SCORE:    0.00 PKD
ROOT
HETATM    1  C   UNL     1      -9.356  12.081  68.268  1.00  0.00    -0.197 C  
HETATM    2  S   UNL     1      -9.103  12.188  66.449  1.00  0.00    -0.133 SA 
HETATM    3  C   UNL     1     -10.652  13.144  66.132  1.00  0.00    -0.279 C  
HETATM    4  C   UNL     1     -10.420  14.104  64.961  1.00  0.00    -0.447 C  
HETATM    5  C   UNL     1     -11.730  12.137  65.679  1.00  0.00    -0.385 C  
HETATM    6  CA  UNL     1     -11.010  13.803  67.487  1.00  0.00    -0.272 C  
HETATM    7  N   UNL     1     -10.571  12.881  68.550  1.00  0.00    -0.251 N  
HETATM    8  C   UNL     1     -10.366  15.174  67.759  1.00  0.00    -0.243 C  
HETATM    9  C   UNL     1     -11.332  11.783  68.856  1.00  0.00    -0.267 C  
HETATM   10  O   UNL     1      -9.778  15.267  68.983  1.00  0.00    -0.210 OA 
HETATM   11  OXT UNL     1     -10.434  16.137  67.009  1.00  0.00    -0.302 OA 
HETATM   12  O   UNL     1     -12.532  11.659  68.922  1.00  0.00    -0.266 OA 
HETATM   13  CA  UNL     1     -10.111  10.843  68.812  1.00  0.00    -0.194 C  
ENDROOT
BRANCH  13  14
HETATM   14  N   UNL     1     -10.194   9.667  67.904  1.00  0.00    -0.185 N  
HETATM   15  H   UNL     1     -10.297   9.800  66.897  1.00  0.00     0.000 HD 
HETATM   16  C   UNL     1     -10.131   8.402  68.434  1.00  0.00    -0.198 C  
HETATM   17  O   UNL     1      -9.983   8.250  69.650  1.00  0.00    -0.185 OA 
BRANCH  16  18
HETATM   18  C   UNL     1     -10.122   7.199  67.436  1.00  0.00    -0.202 C  
HETATM   19  C   UNL     1      -9.641   7.721  66.066  1.00  0.00    -0.006 C  
HETATM   20  N   UNL     1     -11.521   6.723  67.311  1.00  0.00    -0.729 NA 
HETATM   21  C   UNL     1      -8.168   8.137  66.129  1.00  0.00    -0.117 C  
HETATM   22  H1  UNL     1     -11.514   5.938  66.660  1.00  0.00     0.000 HD 
HETATM   23  H2  UNL     1     -12.171   7.461  67.041  1.00  0.00     0.000 HD 
HETATM   24  C   UNL     1      -7.278   6.982  66.575  1.00  0.00    -0.082 C  
HETATM   25  C   UNL     1      -7.755   6.337  67.873  1.00  0.00    -0.103 C  
HETATM   26  C   UNL     1      -9.246   5.999  67.845  1.00  0.00    -0.111 C  
ENDBRANCH  16  18
ENDBRANCH  13  14
TORSDOF 2
ENDMDL
MODEL       74
REMARK 921   NORMALIZED FREE ENERGY PREDICTED BY IDOCK:   -4.75 KCAL/MOL
REMARK 922        TOTAL FREE ENERGY PREDICTED BY IDOCK:   -5.61 KCAL/MOL
REMARK 923 INTER-LIGAND FREE ENERGY PREDICTED BY IDOCK:   -5.29 KCAL/MOL
REMARK 924 INTRA-LIGAND FREE ENERGY PREDICTED BY IDOCK:   -0.32 KCAL/MOL
REMARK 927      BINDING AFFINITY PREDICTED BY RF-SCORE:    0.00 PKD
ROOT
HETATM    1  C   UNL     1      -9.072  10.479  68.924  1.00  0.00    -0.177 C  
HETATM    2  S   UNL     1     -10.640   9.814  68.227  1.00  0.00    -0.225 SA 
HETATM    3  C   UNL     1      -9.813   8.565  67.145  1.00  0.00    -0.206 C  
HETATM    4  C   UNL     1     -10.701   7.321  67.042  1.00  0.00    -0.406 C  
HETATM    5  C   UNL     1      -9.724   9.171  65.729  1.00  0.00    -0.299 C  
HETATM    6  CA  UNL     1      -8.412   8.347  67.769  1.00  0.00    -0.131 C  
HETATM    7  N   UNL     1      -7.995   9.630  68.363  1.00  0.00    -0.095 N  
HETATM    8  C   UNL     1      -8.325   7.272  68.867  1.00  0.00    -0.126 C  
HETATM    9  C   UNL     1      -7.507  10.626  67.558  1.00  0.00    -0.093 C  
HETATM   10  O   UNL     1      -7.684   7.691  69.992  1.00  0.00    -0.089 OA 
HETATM   11  OXT UNL     1      -8.705   6.117  68.742  1.00  0.00    -0.119 OA 
HETATM   12  O   UNL     1      -6.775  10.565  66.598  1.00  0.00    -0.086 OA 
HETATM   13  CA  UNL     1      -8.424  11.685  68.199  1.00  0.00    -0.156 C  
ENDROOT
BRANCH  13  14
HETATM   14  N   UNL     1      -9.307  12.459  67.285  1.00  0.00    -0.179 N  
HETATM   15  H   UNL     1     -10.131  12.022  66.872  1.00  0.00     0.000 HD 
HETATM   16  C   UNL     1      -9.001  13.768  67.004  1.00  0.00    -0.238 C  
HETATM   17  O   UNL     1      -8.015  14.296  67.526  1.00  0.00    -0.162 OA 
BRANCH  16  18
HETATM   18  C   UNL     1     -10.009  14.573  66.119  1.00  0.00    -0.311 C  
HETATM   19  C   UNL     1     -11.388  14.529  66.810  1.00  0.00    -0.358 C  
HETATM   20  N   UNL     1     -10.097  13.875  64.814  1.00  0.00    -0.610 NA 
HETATM   21  C   UNL     1     -11.363  15.319  68.123  1.00  0.00    -0.346 C  
HETATM   22  H1  UNL     1     -10.754  14.401  64.237  1.00  0.00     0.000 HD 
HETATM   23  H2  UNL     1     -10.343  12.890  64.902  1.00  0.00     0.000 HD 
HETATM   24  C   UNL     1     -10.952  16.770  67.896  1.00  0.00    -0.260 C  
HETATM   25  C   UNL     1      -9.646  16.898  67.117  1.00  0.00    -0.245 C  
HETATM   26  C   UNL     1      -9.634  16.042  65.850  1.00  0.00    -0.370 C  
ENDBRANCH  16  18
ENDBRANCH  13  14
TORSDOF 2
ENDMDL
MODEL       75
REMARK 921   NORMALIZED FREE ENERGY PREDICTED BY IDOCK:   -4.74 KCAL/MOL
REMARK 922        TOTAL FREE ENERGY PREDICTED BY IDOCK:   -5.60 KCAL/MOL
REMARK 923 INTER-LIGAND FREE ENERGY PREDICTED BY IDOCK:   -5.28 KCAL/MOL
REMARK 924 INTRA-LIGAND FREE ENERGY PREDICTED BY IDOCK:   -0.32 KCAL/MOL
REMARK 927      BINDING AFFINITY PREDICTED BY RF-SCORE:    0.00 PKD
ROOT
HETATM    1  C   UNL     1      -9.918   8.511  67.005  1.00  0.00    -0.250 C  
HETATM    2  S   UNL     1      -9.003   8.569  65.410  1.00  0.00    -0.033 SA 
HETATM    3  C   UNL     1      -7.370   8.963  66.180  1.00  0.00    -0.090 C  
HETATM    4  C   UNL     1      -6.255   8.308  65.360  1.00  0.00    -0.045 C  
HETATM    5  C   UNL     1      -7.168  10.489  66.073  1.00  0.00    -0.137 C  
HETATM    6  CA  UNL     1      -7.491   8.498  67.653  1.00  0.00    -0.094 C  
HETATM    7  N   UNL     1      -8.894   8.695  68.059  1.00  0.00    -0.141 N  
HETATM    8  C   UNL     1      -7.126   7.028  67.925  1.00  0.00    -0.086 C  
HETATM    9  C   UNL     1      -9.335   9.949  68.394  1.00  0.00    -0.133 C  
HETATM   10  O   UNL     1      -8.055   6.363  68.665  1.00  0.00    -0.111 OA 
HETATM   11  OXT UNL     1      -6.071   6.501  67.601  1.00  0.00    -0.025 OA 
HETATM   12  O   UNL     1      -8.787  10.829  69.015  1.00  0.00    -0.162 OA 
HETATM   13  CA  UNL     1     -10.580   9.822  67.495  1.00  0.00    -0.275 C  
ENDROOT
BRANCH  13  14
HETATM   14  N   UNL     1     -10.787  10.882  66.471  1.00  0.00    -0.214 N  
HETATM   15  H   UNL     1     -10.351  10.802  65.552  1.00  0.00     0.000 HD 
HETATM   16  C   UNL     1     -11.569  11.969  66.776  1.00  0.00    -0.321 C  
HETATM   17  O   UNL     1     -12.111  12.046  67.883  1.00  0.00    -0.531 OA 
BRANCH  16  18
HETATM   18  C   UNL     1     -11.840  13.007  65.639  1.00  0.00    -0.399 C  
HETATM   19  C   UNL     1     -12.594  14.203  66.258  1.00  0.00    -0.297 C  
HETATM   20  N   UNL     1     -12.714  12.345  64.642  1.00  0.00    -0.702 NA 
HETATM   21  C   UNL     1     -11.691  14.971  67.229  1.00  0.00    -0.238 C  
HETATM   22  H1  UNL     1     -12.891  13.023  63.900  1.00  0.00     0.000 HD 
HETATM   23  H2  UNL     1     -13.569  11.966  65.048  1.00  0.00     0.000 HD 
HETATM   24  C   UNL     1     -10.424  15.468  66.541  1.00  0.00    -0.301 C  
HETATM   25  C   UNL     1      -9.676  14.357  65.809  1.00  0.00    -0.283 C  
HETATM   26  C   UNL     1     -10.593  13.533  64.904  1.00  0.00    -0.409 C  
ENDBRANCH  16  18
ENDBRANCH  13  14
TORSDOF 2
ENDMDL
MODEL       76
REMARK 921   NORMALIZED FREE ENERGY PREDICTED BY IDOCK:   -4.74 KCAL/MOL
REMARK 922        TOTAL FREE ENERGY PREDICTED BY IDOCK:   -5.59 KCAL/MOL
REMARK 923 INTER-LIGAND FREE ENERGY PREDICTED BY IDOCK:   -5.13 KCAL/MOL
REMARK 924 INTRA-LIGAND FREE ENERGY PREDICTED BY IDOCK:   -0.47 KCAL/MOL
REMARK 927      BINDING AFFINITY PREDICTED BY RF-SCORE:    0.00 PKD
ROOT
HETATM    1  C   UNL     1     -11.029   6.252  67.711  1.00  0.00    -0.332 C  
HETATM    2  S   UNL     1     -10.111   7.798  67.327  1.00  0.00    -0.266 SA 
HETATM    3  C   UNL     1      -8.475   6.962  67.121  1.00  0.00    -0.121 C  
HETATM    4  C   UNL     1      -7.666   7.696  66.048  1.00  0.00    -0.090 C  
HETATM    5  C   UNL     1      -7.707   7.123  68.450  1.00  0.00    -0.120 C  
HETATM    6  CA  UNL     1      -8.809   5.480  66.823  1.00  0.00    -0.114 C  
HETATM    7  N   UNL     1     -10.046   5.154  67.557  1.00  0.00    -0.174 N  
HETATM    8  C   UNL     1      -9.037   5.127  65.342  1.00  0.00    -0.140 C  
HETATM    9  C   UNL     1      -9.990   4.896  68.902  1.00  0.00    -0.149 C  
HETATM   10  O   UNL     1     -10.172   4.409  65.121  1.00  0.00    -0.214 OA 
HETATM   11  OXT UNL     1      -8.252   5.373  64.439  1.00  0.00    -0.124 OA 
HETATM   12  O   UNL     1      -9.169   4.285  69.546  1.00  0.00    -0.111 OA 
HETATM   13  CA  UNL     1     -11.161   5.851  69.202  1.00  0.00    -0.258 C  
ENDROOT
BRANCH  13  14
HETATM   14  N   UNL     1     -10.918   6.928  70.199  1.00  0.00    -0.265 N  
HETATM   15  H   UNL     1     -10.616   7.854  69.894  1.00  0.00     0.000 HD 
HETATM   16  C   UNL     1     -11.103   6.663  71.534  1.00  0.00    -0.256 C  
HETATM   17  O   UNL     1     -11.491   5.547  71.892  1.00  0.00    -0.154 OA 
BRANCH  16  18
HETATM   18  C   UNL     1     -10.933   7.850  72.538  1.00  0.00    -0.350 C  
HETATM   19  C   UNL     1     -10.184   7.319  73.778  1.00  0.00    -0.370 C  
HETATM   20  N   UNL     1     -12.294   8.280  72.940  1.00  0.00    -0.631 NA 
HETATM   21  C   UNL     1      -8.740   6.949  73.423  1.00  0.00    -0.148 C  
HETATM   22  H1  UNL     1     -12.183   9.054  73.595  1.00  0.00     0.000 HD 
HETATM   23  H2  UNL     1     -12.860   7.519  73.314  1.00  0.00     0.000 HD 
HETATM   24  C   UNL     1      -7.984   8.138  72.840  1.00  0.00    -0.211 C  
HETATM   25  C   UNL     1      -8.720   8.790  71.672  1.00  0.00    -0.255 C  
HETATM   26  C   UNL     1     -10.186   9.082  71.995  1.00  0.00    -0.270 C  
ENDBRANCH  16  18
ENDBRANCH  13  14
TORSDOF 2
ENDMDL
MODEL       77
REMARK 921   NORMALIZED FREE ENERGY PREDICTED BY IDOCK:   -4.72 KCAL/MOL
REMARK 922        TOTAL FREE ENERGY PREDICTED BY IDOCK:   -5.58 KCAL/MOL
REMARK 923 INTER-LIGAND FREE ENERGY PREDICTED BY IDOCK:   -5.22 KCAL/MOL
REMARK 924 INTRA-LIGAND FREE ENERGY PREDICTED BY IDOCK:   -0.36 KCAL/MOL
REMARK 927      BINDING AFFINITY PREDICTED BY RF-SCORE:    0.00 PKD
ROOT
HETATM    1  C   UNL     1      -7.748  15.888  67.823  1.00  0.00    -0.141 C  
HETATM    2  S   UNL     1      -8.586  16.171  66.210  1.00  0.00    -0.303 SA 
HETATM    3  C   UNL     1     -10.005  17.109  66.932  1.00  0.00    -0.288 C  
HETATM    4  C   UNL     1     -10.459  18.181  65.937  1.00  0.00    -0.292 C  
HETATM    5  C   UNL     1     -11.177  16.119  67.092  1.00  0.00     0.051 C  
HETATM    6  CA  UNL     1      -9.497  17.629  68.300  1.00  0.00    -0.295 C  
HETATM    7  N   UNL     1      -8.554  16.624  68.826  1.00  0.00    -0.256 N  
HETATM    8  C   UNL     1      -8.771  18.986  68.277  1.00  0.00    -0.331 C  
HETATM    9  C   UNL     1      -9.034  15.481  69.411  1.00  0.00    -0.275 C  
HETATM   10  O   UNL     1      -7.583  18.980  68.941  1.00  0.00    -0.333 OA 
HETATM   11  OXT UNL     1      -9.229  20.012  67.795  1.00  0.00    -0.329 OA 
HETATM   12  O   UNL     1      -9.980  15.319  70.145  1.00  0.00    -0.216 OA 
HETATM   13  CA  UNL     1      -8.091  14.584  68.586  1.00  0.00    -0.150 C  
ENDROOT
BRANCH  13  14
HETATM   14  N   UNL     1      -8.718  13.497  67.787  1.00  0.00    -0.176 N  
HETATM   15  H   UNL     1      -9.650  13.620  67.392  1.00  0.00     0.000 HD 
HETATM   16  C   UNL     1      -8.028  12.326  67.587  1.00  0.00    -0.161 C  
HETATM   17  O   UNL     1      -6.891  12.195  68.049  1.00  0.00    -0.069 OA 
BRANCH  16  18
HETATM   18  C   UNL     1      -8.682  11.250  66.660  1.00  0.00    -0.174 C  
HETATM   19  C   UNL     1      -8.494   9.871  67.326  1.00  0.00    -0.121 C  
HETATM   20  N   UNL     1      -7.943  11.274  65.375  1.00  0.00    -0.331 NA 
HETATM   21  C   UNL     1      -9.317   9.773  68.614  1.00  0.00    -0.147 C  
HETATM   22  H1  UNL     1      -8.370  10.572  64.770  1.00  0.00     0.000 HD 
HETATM   23  H2  UNL     1      -6.938  11.145  65.488  1.00  0.00     0.000 HD 
HETATM   24  C   UNL     1     -10.800  10.014  68.351  1.00  0.00    -0.277 C  
HETATM   25  C   UNL     1     -11.061  11.313  67.593  1.00  0.00    -0.336 C  
HETATM   26  C   UNL     1     -10.177  11.454  66.353  1.00  0.00    -0.270 C  
ENDBRANCH  16  18
ENDBRANCH  13  14
TORSDOF 2
ENDMDL
MODEL       78
REMARK 921   NORMALIZED FREE ENERGY PREDICTED BY IDOCK:   -4.70 KCAL/MOL
REMARK 922        TOTAL FREE ENERGY PREDICTED BY IDOCK:   -5.55 KCAL/MOL
REMARK 923 INTER-LIGAND FREE ENERGY PREDICTED BY IDOCK:   -5.17 KCAL/MOL
REMARK 924 INTRA-LIGAND FREE ENERGY PREDICTED BY IDOCK:   -0.38 KCAL/MOL
REMARK 927      BINDING AFFINITY PREDICTED BY RF-SCORE:    0.00 PKD
ROOT
HETATM    1  C   UNL     1      -9.262  13.127  68.236  1.00  0.00    -0.194 C  
HETATM    2  S   UNL     1      -8.438  14.296  67.079  1.00  0.00    -0.114 SA 
HETATM    3  C   UNL     1     -10.014  14.977  66.395  1.00  0.00    -0.279 C  
HETATM    4  C   UNL     1      -9.816  16.456  66.051  1.00  0.00    -0.362 C  
HETATM    5  C   UNL     1     -10.295  14.241  65.068  1.00  0.00    -0.448 C  
HETATM    6  CA  UNL     1     -11.090  14.669  67.466  1.00  0.00    -0.313 C  
HETATM    7  N   UNL     1     -10.713  13.397  68.110  1.00  0.00    -0.245 N  
HETATM    8  C   UNL     1     -11.258  15.724  68.573  1.00  0.00    -0.354 C  
HETATM    9  C   UNL     1     -10.971  12.210  67.476  1.00  0.00    -0.257 C  
HETATM   10  O   UNL     1     -11.261  15.201  69.830  1.00  0.00    -0.248 OA 
HETATM   11  OXT UNL     1     -11.461  16.914  68.377  1.00  0.00    -0.136 OA 
HETATM   12  O   UNL     1     -11.929  11.866  66.824  1.00  0.00    -0.613 OA 
HETATM   13  CA  UNL     1      -9.541  11.692  67.722  1.00  0.00    -0.178 C  
ENDROOT
BRANCH  13  14
HETATM   14  N   UNL     1      -8.764  11.254  66.531  1.00  0.00    -0.173 N  
HETATM   15  H   UNL     1      -9.061  11.527  65.594  1.00  0.00     0.000 HD 
HETATM   16  C   UNL     1      -7.645  10.478  66.706  1.00  0.00    -0.115 C  
HETATM   17  O   UNL     1      -7.279  10.172  67.845  1.00  0.00    -0.084 OA 
BRANCH  16  18
HETATM   18  C   UNL     1      -6.804  10.124  65.437  1.00  0.00    -0.128 C  
HETATM   19  C   UNL     1      -6.055   8.804  65.715  1.00  0.00    -0.052 C  
HETATM   20  N   UNL     1      -5.815  11.213  65.250  1.00  0.00    -0.458 NA 
HETATM   21  C   UNL     1      -7.040   7.634  65.823  1.00  0.00    -0.061 C  
HETATM   22  H1  UNL     1      -5.267  10.982  64.421  1.00  0.00     0.000 HD 
HETATM   23  H2  UNL     1      -5.240  11.378  66.076  1.00  0.00     0.000 HD 
HETATM   24  C   UNL     1      -7.877   7.488  64.558  1.00  0.00    -0.130 C  
HETATM   25  C   UNL     1      -8.565   8.789  64.152  1.00  0.00    -0.085 C  
HETATM   26  C   UNL     1      -7.602   9.976  64.127  1.00  0.00    -0.140 C  
ENDBRANCH  16  18
ENDBRANCH  13  14
TORSDOF 2
ENDMDL
MODEL       79
REMARK 921   NORMALIZED FREE ENERGY PREDICTED BY IDOCK:   -4.65 KCAL/MOL
REMARK 922        TOTAL FREE ENERGY PREDICTED BY IDOCK:   -5.50 KCAL/MOL
REMARK 923 INTER-LIGAND FREE ENERGY PREDICTED BY IDOCK:   -5.86 KCAL/MOL
REMARK 924 INTRA-LIGAND FREE ENERGY PREDICTED BY IDOCK:    0.37 KCAL/MOL
REMARK 927      BINDING AFFINITY PREDICTED BY RF-SCORE:    0.00 PKD
ROOT
HETATM    1  C   UNL     1      -8.532  14.740  66.972  1.00  0.00    -0.222 C  
HETATM    2  S   UNL     1      -9.479  13.861  65.662  1.00  0.00     0.220 SA 
HETATM    3  C   UNL     1     -11.047  14.794  65.949  1.00  0.00    -0.340 C  
HETATM    4  C   UNL     1     -11.782  14.966  64.617  1.00  0.00    -0.406 C  
HETATM    5  C   UNL     1     -11.946  13.919  66.847  1.00  0.00    -0.467 C  
HETATM    6  CA  UNL     1     -10.620  16.102  66.660  1.00  0.00    -0.274 C  
HETATM    7  N   UNL     1      -9.446  15.783  67.493  1.00  0.00    -0.217 N  
HETATM    8  C   UNL     1     -10.235  17.274  65.738  1.00  0.00    -0.198 C  
HETATM    9  C   UNL     1      -9.619  15.156  68.700  1.00  0.00    -0.213 C  
HETATM   10  O   UNL     1      -9.053  17.862  66.068  1.00  0.00    -0.504 OA 
HETATM   11  OXT UNL     1     -10.942  17.716  64.843  1.00  0.00    -0.886 OA 
HETATM   12  O   UNL     1     -10.469  15.311  69.544  1.00  0.00    -0.233 OA 
HETATM   13  CA  UNL     1      -8.526  14.115  68.389  1.00  0.00    -0.170 C  
ENDROOT
BRANCH  13  14
HETATM   14  N   UNL     1      -8.912  12.681  68.481  1.00  0.00    -0.365 N  
HETATM   15  H   UNL     1      -9.894  12.415  68.554  1.00  0.00     0.000 HD 
HETATM   16  C   UNL     1      -7.932  11.719  68.466  1.00  0.00    -0.145 C  
HETATM   17  O   UNL     1      -6.747  12.047  68.354  1.00  0.00    -0.057 OA 
BRANCH  16  18
HETATM   18  C   UNL     1      -8.386  10.223  68.464  1.00  0.00    -0.116 C  
HETATM   19  C   UNL     1      -9.268   9.992  69.709  1.00  0.00    -0.227 C  
HETATM   20  N   UNL     1      -7.162   9.394  68.576  1.00  0.00    -0.071 NA 
HETATM   21  C   UNL     1     -10.588  10.761  69.590  1.00  0.00    -0.222 C  
HETATM   22  H1  UNL     1      -7.459   8.418  68.574  1.00  0.00     0.000 HD 
HETATM   23  H2  UNL     1      -6.588   9.636  69.383  1.00  0.00     0.000 HD 
HETATM   24  C   UNL     1     -11.359  10.359  68.337  1.00  0.00    -0.292 C  
HETATM   25  C   UNL     1     -10.515  10.455  67.069  1.00  0.00    -0.309 C  
HETATM   26  C   UNL     1      -9.160   9.762  67.215  1.00  0.00    -0.150 C  
ENDBRANCH  16  18
ENDBRANCH  13  14
TORSDOF 2
ENDMDL
MODEL       80
REMARK 921   NORMALIZED FREE ENERGY PREDICTED BY IDOCK:   -4.64 KCAL/MOL
REMARK 922        TOTAL FREE ENERGY PREDICTED BY IDOCK:   -5.48 KCAL/MOL
REMARK 923 INTER-LIGAND FREE ENERGY PREDICTED BY IDOCK:   -5.07 KCAL/MOL
REMARK 924 INTRA-LIGAND FREE ENERGY PREDICTED BY IDOCK:   -0.41 KCAL/MOL
REMARK 927      BINDING AFFINITY PREDICTED BY RF-SCORE:    0.00 PKD
ROOT
HETATM    1  C   UNL     1     -10.048   5.588  68.422  1.00  0.00    -0.178 C  
HETATM    2  S   UNL     1      -9.161   7.190  68.244  1.00  0.00    -0.133 SA 
HETATM    3  C   UNL     1      -7.474   6.434  68.232  1.00  0.00    -0.091 C  
HETATM    4  C   UNL     1      -6.561   7.257  67.319  1.00  0.00    -0.063 C  
HETATM    5  C   UNL     1      -6.906   6.555  69.662  1.00  0.00    -0.065 C  
HETATM    6  CA  UNL     1      -7.692   4.957  67.820  1.00  0.00    -0.083 C  
HETATM    7  N   UNL     1      -9.001   4.542  68.357  1.00  0.00    -0.107 N  
HETATM    8  C   UNL     1      -7.695   4.675  66.307  1.00  0.00    -0.091 C  
HETATM    9  C   UNL     1      -9.119   4.214  69.682  1.00  0.00    -0.119 C  
HETATM   10  O   UNL     1      -8.751   3.923  65.894  1.00  0.00    -0.110 OA 
HETATM   11  OXT UNL     1      -6.804   5.002  65.536  1.00  0.00    -0.058 OA 
HETATM   12  O   UNL     1      -8.367   3.605  70.406  1.00  0.00    -0.056 OA 
HETATM   13  CA  UNL     1     -10.366   5.103  69.858  1.00  0.00    -0.277 C  
ENDROOT
BRANCH  13  14
HETATM   14  N   UNL     1     -10.316   6.135  70.930  1.00  0.00    -0.207 N  
HETATM   15  H   UNL     1      -9.428   6.379  71.369  1.00  0.00     0.000 HD 
HETATM   16  C   UNL     1     -11.477   6.754  71.321  1.00  0.00    -0.302 C  
HETATM   17  O   UNL     1     -12.544   6.470  70.768  1.00  0.00    -0.162 OA 
BRANCH  16  18
HETATM   18  C   UNL     1     -11.365   7.901  72.378  1.00  0.00    -0.369 C  
HETATM   19  C   UNL     1     -10.155   8.780  72.000  1.00  0.00    -0.397 C  
HETATM   20  N   UNL     1     -11.109   7.261  73.691  1.00  0.00    -0.554 NA 
HETATM   21  C   UNL     1     -10.419   9.533  70.691  1.00  0.00    -0.374 C  
HETATM   22  H1  UNL     1     -11.036   8.009  74.380  1.00  0.00     0.000 HD 
HETATM   23  H2  UNL     1     -10.297   6.644  73.683  1.00  0.00     0.000 HD 
HETATM   24  C   UNL     1     -11.670  10.400  70.786  1.00  0.00    -0.464 C  
HETATM   25  C   UNL     1     -12.892   9.621  71.264  1.00  0.00    -0.438 C  
HETATM   26  C   UNL     1     -12.607   8.800  72.522  1.00  0.00    -0.375 C  
ENDBRANCH  16  18
ENDBRANCH  13  14
TORSDOF 2
ENDMDL
MODEL       81
REMARK 921   NORMALIZED FREE ENERGY PREDICTED BY IDOCK:   -4.60 KCAL/MOL
REMARK 922        TOTAL FREE ENERGY PREDICTED BY IDOCK:   -5.44 KCAL/MOL
REMARK 923 INTER-LIGAND FREE ENERGY PREDICTED BY IDOCK:   -5.05 KCAL/MOL
REMARK 924 INTRA-LIGAND FREE ENERGY PREDICTED BY IDOCK:   -0.39 KCAL/MOL
REMARK 927      BINDING AFFINITY PREDICTED BY RF-SCORE:    0.00 PKD
ROOT
HETATM    1  C   UNL     1     -10.821  10.083  66.694  1.00  0.00     0.012 C  
HETATM    2  S   UNL     1      -9.810  10.130  65.158  1.00  0.00    -0.307 SA 
HETATM    3  C   UNL     1      -8.460   9.060  65.827  1.00  0.00    -0.141 C  
HETATM    4  C   UNL     1      -7.881   8.212  64.691  1.00  0.00    -0.136 C  
HETATM    5  C   UNL     1      -7.330   9.993  66.310  1.00  0.00    -0.106 C  
HETATM    6  CA  UNL     1      -9.102   8.276  66.998  1.00  0.00    -0.145 C  
HETATM    7  N   UNL     1     -10.115   9.157  67.609  1.00  0.00    -0.205 N  
HETATM    8  C   UNL     1      -9.796   6.955  66.621  1.00  0.00    -0.153 C  
HETATM    9  C   UNL     1      -9.722  10.155  68.462  1.00  0.00    -0.154 C  
HETATM   10  O   UNL     1     -11.048   6.829  67.139  1.00  0.00    -0.384 OA 
HETATM   11  OXT UNL     1      -9.270   6.046  65.995  1.00  0.00    -0.161 OA 
HETATM   12  O   UNL     1      -8.864  10.162  69.312  1.00  0.00    -0.161 OA 
HETATM   13  CA  UNL     1     -10.587  11.204  67.737  1.00  0.00    -0.209 C  
ENDROOT
BRANCH  13  14
HETATM   14  N   UNL     1      -9.899  12.429  67.248  1.00  0.00    -0.205 N  
HETATM   15  H   UNL     1      -8.881  12.458  67.188  1.00  0.00     0.000 HD 
HETATM   16  C   UNL     1     -10.647  13.519  66.877  1.00  0.00    -0.270 C  
HETATM   17  O   UNL     1     -11.880  13.467  66.930  1.00  0.00    -0.368 OA 
BRANCH  16  18
HETATM   18  C   UNL     1      -9.889  14.747  66.276  1.00  0.00    -0.296 C  
HETATM   19  C   UNL     1     -10.671  16.022  66.656  1.00  0.00    -0.247 C  
HETATM   20  N   UNL     1      -9.904  14.591  64.802  1.00  0.00    -0.516 NA 
HETATM   21  C   UNL     1     -10.602  16.270  68.167  1.00  0.00    -0.307 C  
HETATM   22  H1  UNL     1      -9.409  15.392  64.410  1.00  0.00     0.000 HD 
HETATM   23  H2  UNL     1     -10.843  14.475  64.421  1.00  0.00     0.000 HD 
HETATM   24  C   UNL     1      -9.161  16.394  68.649  1.00  0.00    -0.233 C  
HETATM   25  C   UNL     1      -8.291  15.217  68.215  1.00  0.00    -0.148 C  
HETATM   26  C   UNL     1      -8.424  14.911  66.722  1.00  0.00    -0.215 C  
ENDBRANCH  16  18
ENDBRANCH  13  14
TORSDOF 2
ENDMDL
MODEL       82
REMARK 921   NORMALIZED FREE ENERGY PREDICTED BY IDOCK:   -4.56 KCAL/MOL
REMARK 922        TOTAL FREE ENERGY PREDICTED BY IDOCK:   -5.40 KCAL/MOL
REMARK 923 INTER-LIGAND FREE ENERGY PREDICTED BY IDOCK:   -4.93 KCAL/MOL
REMARK 924 INTRA-LIGAND FREE ENERGY PREDICTED BY IDOCK:   -0.46 KCAL/MOL
REMARK 927      BINDING AFFINITY PREDICTED BY RF-SCORE:    0.00 PKD
ROOT
HETATM    1  C   UNL     1      -8.003  10.394  69.350  1.00  0.00    -0.157 C  
HETATM    2  S   UNL     1      -9.599   9.711  69.960  1.00  0.00    -0.247 SA 
HETATM    3  C   UNL     1      -9.908   8.675  68.461  1.00  0.00    -0.169 C  
HETATM    4  C   UNL     1     -10.636   7.393  68.877  1.00  0.00    -0.191 C  
HETATM    5  C   UNL     1     -10.872   9.462  67.549  1.00  0.00    -0.208 C  
HETATM    6  CA  UNL     1      -8.519   8.482  67.804  1.00  0.00    -0.130 C  
HETATM    7  N   UNL     1      -7.739   9.705  68.065  1.00  0.00    -0.086 N  
HETATM    8  C   UNL     1      -7.696   7.284  68.312  1.00  0.00    -0.120 C  
HETATM    9  C   UNL     1      -7.965  10.829  67.314  1.00  0.00    -0.117 C  
HETATM   10  O   UNL     1      -6.413   7.602  68.635  1.00  0.00    -0.045 OA 
HETATM   11  OXT UNL     1      -8.097   6.130  68.349  1.00  0.00    -0.106 OA 
HETATM   12  O   UNL     1      -8.191  10.945  66.132  1.00  0.00    -0.163 OA 
HETATM   13  CA  UNL     1      -8.052  11.727  68.563  1.00  0.00    -0.140 C  
ENDROOT
BRANCH  13  14
HETATM   14  N   UNL     1      -9.284  12.545  68.724  1.00  0.00    -0.398 N  
HETATM   15  H   UNL     1     -10.132  12.129  69.108  1.00  0.00     0.000 HD 
HETATM   16  C   UNL     1      -9.268  13.866  68.349  1.00  0.00    -0.194 C  
HETATM   17  O   UNL     1      -8.230  14.368  67.907  1.00  0.00    -0.136 OA 
BRANCH  16  18
HETATM   18  C   UNL     1     -10.552  14.714  68.628  1.00  0.00    -0.252 C  
HETATM   19  C   UNL     1     -10.599  15.859  67.596  1.00  0.00    -0.307 C  
HETATM   20  N   UNL     1     -10.409  15.290  69.987  1.00  0.00    -0.440 NA 
HETATM   21  C   UNL     1     -10.838  15.310  66.185  1.00  0.00    -0.320 C  
HETATM   22  H1  UNL     1     -11.247  15.842  70.168  1.00  0.00     0.000 HD 
HETATM   23  H2  UNL     1      -9.547  15.820  70.108  1.00  0.00     0.000 HD 
HETATM   24  C   UNL     1     -12.130  14.503  66.110  1.00  0.00    -0.300 C  
HETATM   25  C   UNL     1     -12.208  13.415  67.177  1.00  0.00    -0.306 C  
HETATM   26  C   UNL     1     -11.884  13.943  68.576  1.00  0.00    -0.401 C  
ENDBRANCH  16  18
ENDBRANCH  13  14
TORSDOF 2
ENDMDL
MODEL       83
REMARK 921   NORMALIZED FREE ENERGY PREDICTED BY IDOCK:   -4.52 KCAL/MOL
REMARK 922        TOTAL FREE ENERGY PREDICTED BY IDOCK:   -5.35 KCAL/MOL
REMARK 923 INTER-LIGAND FREE ENERGY PREDICTED BY IDOCK:   -4.90 KCAL/MOL
REMARK 924 INTRA-LIGAND FREE ENERGY PREDICTED BY IDOCK:   -0.45 KCAL/MOL
REMARK 927      BINDING AFFINITY PREDICTED BY RF-SCORE:    0.00 PKD
ROOT
HETATM    1  C   UNL     1      -9.921   9.150  71.409  1.00  0.00    -0.303 C  
HETATM    2  S   UNL     1      -9.018   8.600  69.904  1.00  0.00    -0.154 SA 
HETATM    3  C   UNL     1     -10.544   8.308  68.904  1.00  0.00    -0.139 C  
HETATM    4  C   UNL     1     -10.256   8.636  67.436  1.00  0.00    -0.329 C  
HETATM    5  C   UNL     1     -10.857   6.798  68.972  1.00  0.00    -0.290 C  
HETATM    6  CA  UNL     1     -11.647   9.157  69.583  1.00  0.00     0.324 C  
HETATM    7  N   UNL     1     -11.352   9.180  71.028  1.00  0.00    -0.286 N  
HETATM    8  C   UNL     1     -11.762  10.616  69.106  1.00  0.00    -0.253 C  
HETATM    9  C   UNL     1     -11.674   8.097  71.805  1.00  0.00    -0.296 C  
HETATM   10  O   UNL     1     -11.808  11.521  70.121  1.00  0.00    -0.326 OA 
HETATM   11  OXT UNL     1     -11.891  10.959  67.939  1.00  0.00    -0.590 OA 
HETATM   12  O   UNL     1     -12.645   7.378  71.776  1.00  0.00    -0.320 OA 
HETATM   13  CA  UNL     1     -10.280   8.070  72.460  1.00  0.00    -0.294 C  
ENDROOT
BRANCH  13  14
HETATM   14  N   UNL     1      -9.520   6.793  72.382  1.00  0.00    -0.145 N  
HETATM   15  H   UNL     1      -8.995   6.557  71.540  1.00  0.00     0.000 HD 
HETATM   16  C   UNL     1      -9.534   5.935  73.454  1.00  0.00    -0.138 C  
HETATM   17  O   UNL     1     -10.153   6.239  74.478  1.00  0.00    -0.313 OA 
BRANCH  16  18
HETATM   18  C   UNL     1      -8.643   4.654  73.367  1.00  0.00    -0.101 C  
HETATM   19  C   UNL     1      -9.209   3.613  74.356  1.00  0.00    -0.105 C  
HETATM   20  N   UNL     1      -7.278   5.040  73.798  1.00  0.00    -0.081 NA 
HETATM   21  C   UNL     1     -10.584   3.118  73.896  1.00  0.00    -0.269 C  
HETATM   22  H1  UNL     1      -6.697   4.204  73.741  1.00  0.00     0.000 HD 
HETATM   23  H2  UNL     1      -7.258   5.479  74.718  1.00  0.00     0.000 HD 
HETATM   24  C   UNL     1     -10.521   2.511  72.499  1.00  0.00    -0.168 C  
HETATM   25  C   UNL     1      -9.870   3.443  71.480  1.00  0.00    -0.212 C  
HETATM   26  C   UNL     1      -8.537   4.007  71.974  1.00  0.00    -0.116 C  
ENDBRANCH  16  18
ENDBRANCH  13  14
TORSDOF 2
ENDMDL
MODEL       84
REMARK 921   NORMALIZED FREE ENERGY PREDICTED BY IDOCK:   -4.49 KCAL/MOL
REMARK 922        TOTAL FREE ENERGY PREDICTED BY IDOCK:   -5.32 KCAL/MOL
REMARK 923 INTER-LIGAND FREE ENERGY PREDICTED BY IDOCK:   -4.88 KCAL/MOL
REMARK 924 INTRA-LIGAND FREE ENERGY PREDICTED BY IDOCK:   -0.44 KCAL/MOL
REMARK 927      BINDING AFFINITY PREDICTED BY RF-SCORE:    0.00 PKD
ROOT
HETATM    1  C   UNL     1      -9.964   8.356  69.853  1.00  0.00    -0.190 C  
HETATM    2  S   UNL     1     -11.224   7.022  69.972  1.00  0.00    -0.247 SA 
HETATM    3  C   UNL     1     -11.792   7.494  71.666  1.00  0.00    -0.291 C  
HETATM    4  C   UNL     1     -13.290   7.204  71.794  1.00  0.00    -0.347 C  
HETATM    5  C   UNL     1     -11.070   6.569  72.668  1.00  0.00    -0.291 C  
HETATM    6  CA  UNL     1     -11.371   8.974  71.840  1.00  0.00    -0.368 C  
HETATM    7  N   UNL     1     -10.119   9.164  71.085  1.00  0.00    -0.294 N  
HETATM    8  C   UNL     1     -12.382  10.023  71.342  1.00  0.00    -0.415 C  
HETATM    9  C   UNL     1      -8.931   8.739  71.621  1.00  0.00    -0.231 C  
HETATM   10  O   UNL     1     -11.829  10.979  70.547  1.00  0.00    -0.331 OA 
HETATM   11  OXT UNL     1     -13.556  10.075  71.681  1.00  0.00    -0.311 OA 
HETATM   12  O   UNL     1      -8.527   8.787  72.759  1.00  0.00    -0.414 OA 
HETATM   13  CA  UNL     1      -8.525   8.023  70.318  1.00  0.00    -0.127 C  
ENDROOT
BRANCH  13  14
HETATM   14  N   UNL     1      -8.181   6.579  70.418  1.00  0.00    -0.123 N  
HETATM   15  H   UNL     1      -8.444   6.043  71.245  1.00  0.00     0.000 HD 
HETATM   16  C   UNL     1      -7.505   5.975  69.386  1.00  0.00    -0.088 C  
HETATM   17  O   UNL     1      -7.212   6.625  68.378  1.00  0.00    -0.080 OA 
BRANCH  16  18
HETATM   18  C   UNL     1      -7.252   4.436  69.489  1.00  0.00    -0.051 C  
HETATM   19  C   UNL     1      -8.563   3.768  69.954  1.00  0.00    -0.103 C  
HETATM   20  N   UNL     1      -6.210   4.233  70.523  1.00  0.00    -0.018 NA 
HETATM   21  C   UNL     1      -9.642   3.876  68.870  1.00  0.00    -0.200 C  
HETATM   22  H1  UNL     1      -6.045   3.228  70.590  1.00  0.00     0.000 HD 
HETATM   23  H2  UNL     1      -6.447   4.659  71.419  1.00  0.00     0.000 HD 
HETATM   24  C   UNL     1      -9.184   3.244  67.560  1.00  0.00    -0.233 C  
HETATM   25  C   UNL     1      -7.834   3.775  67.089  1.00  0.00    -0.084 C  
HETATM   26  C   UNL     1      -6.777   3.749  68.194  1.00  0.00    -0.046 C  
ENDBRANCH  16  18
ENDBRANCH  13  14
TORSDOF 2
ENDMDL
MODEL       85
REMARK 921   NORMALIZED FREE ENERGY PREDICTED BY IDOCK:   -4.47 KCAL/MOL
REMARK 922        TOTAL FREE ENERGY PREDICTED BY IDOCK:   -5.30 KCAL/MOL
REMARK 923 INTER-LIGAND FREE ENERGY PREDICTED BY IDOCK:   -4.92 KCAL/MOL
REMARK 924 INTRA-LIGAND FREE ENERGY PREDICTED BY IDOCK:   -0.38 KCAL/MOL
REMARK 927      BINDING AFFINITY PREDICTED BY RF-SCORE:    0.00 PKD
ROOT
HETATM    1  C   UNL     1      -9.396   8.787  71.940  1.00  0.00    -0.273 C  
HETATM    2  S   UNL     1     -11.232   8.735  71.833  1.00  0.00    -0.378 SA 
HETATM    3  C   UNL     1     -11.321   6.913  71.538  1.00  0.00    -0.266 C  
HETATM    4  C   UNL     1     -12.590   6.358  72.190  1.00  0.00    -0.104 C  
HETATM    5  C   UNL     1     -11.468   6.701  70.016  1.00  0.00    -0.434 C  
HETATM    6  CA  UNL     1      -9.982   6.348  72.072  1.00  0.00    -0.167 C  
HETATM    7  N   UNL     1      -8.951   7.377  71.846  1.00  0.00    -0.125 N  
HETATM    8  C   UNL     1      -9.957   5.980  73.567  1.00  0.00    -0.186 C  
HETATM    9  C   UNL     1      -8.412   7.537  70.596  1.00  0.00    -0.132 C  
HETATM   10  O   UNL     1      -8.883   6.483  74.235  1.00  0.00    -0.136 OA 
HETATM   11  OXT UNL     1     -10.758   5.236  74.114  1.00  0.00    -0.281 OA 
HETATM   12  O   UNL     1      -8.102   6.712  69.769  1.00  0.00    -0.121 OA 
HETATM   13  CA  UNL     1      -8.613   9.064  70.632  1.00  0.00    -0.210 C  
ENDROOT
BRANCH  13  14
HETATM   14  N   UNL     1      -9.386   9.671  69.515  1.00  0.00    -0.186 N  
HETATM   15  H   UNL     1     -10.312   9.316  69.277  1.00  0.00     0.000 HD 
HETATM   16  C   UNL     1      -8.839  10.714  68.808  1.00  0.00    -0.161 C  
HETATM   17  O   UNL     1      -7.727  11.152  69.118  1.00  0.00    -0.129 OA 
BRANCH  16  18
HETATM   18  C   UNL     1      -9.725  11.386  67.709  1.00  0.00    -0.175 C  
HETATM   19  C   UNL     1      -8.824  11.692  66.494  1.00  0.00    -0.188 C  
HETATM   20  N   UNL     1     -10.228  12.662  68.273  1.00  0.00    -0.235 NA 
HETATM   21  C   UNL     1      -8.357  10.395  65.825  1.00  0.00    -0.158 C  
HETATM   22  H1  UNL     1     -10.806  13.100  67.556  1.00  0.00     0.000 HD 
HETATM   23  H2  UNL     1      -9.483  13.270  68.614  1.00  0.00     0.000 HD 
HETATM   24  C   UNL     1      -9.537   9.536  65.382  1.00  0.00    -0.342 C  
HETATM   25  C   UNL     1     -10.535   9.281  66.507  1.00  0.00    -0.204 C  
HETATM   26  C   UNL     1     -10.938  10.565  67.234  1.00  0.00    -0.325 C  
ENDBRANCH  16  18
ENDBRANCH  13  14
TORSDOF 2
ENDMDL
MODEL       86
REMARK 921   NORMALIZED FREE ENERGY PREDICTED BY IDOCK:   -4.45 KCAL/MOL
REMARK 922        TOTAL FREE ENERGY PREDICTED BY IDOCK:   -5.27 KCAL/MOL
REMARK 923 INTER-LIGAND FREE ENERGY PREDICTED BY IDOCK:   -5.67 KCAL/MOL
REMARK 924 INTRA-LIGAND FREE ENERGY PREDICTED BY IDOCK:    0.39 KCAL/MOL
REMARK 927      BINDING AFFINITY PREDICTED BY RF-SCORE:    0.00 PKD
ROOT
HETATM    1  C   UNL     1     -10.005  17.011  66.420  1.00  0.00    -0.307 C  
HETATM    2  S   UNL     1     -11.094  16.273  67.706  1.00  0.00    -0.160 SA 
HETATM    3  C   UNL     1     -10.073  16.858  69.131  1.00  0.00    -0.269 C  
HETATM    4  C   UNL     1     -10.993  17.174  70.314  1.00  0.00     0.624 C  
HETATM    5  C   UNL     1      -9.173  15.682  69.565  1.00  0.00    -0.259 C  
HETATM    6  CA  UNL     1      -9.246  18.046  68.580  1.00  0.00    -0.267 C  
HETATM    7  N   UNL     1      -8.964  17.762  67.162  1.00  0.00    -0.242 N  
HETATM    8  C   UNL     1      -9.921  19.427  68.656  1.00  0.00    -0.444 C  
HETATM    9  C   UNL     1      -7.966  16.883  66.829  1.00  0.00    -0.236 C  
HETATM   10  O   UNL     1      -9.873  20.123  67.488  1.00  0.00    -0.388 OA 
HETATM   11  OXT UNL     1     -10.386  19.921  69.674  1.00  0.00    -0.177 OA 
HETATM   12  O   UNL     1      -6.874  16.720  67.321  1.00  0.00    -0.140 OA 
HETATM   13  CA  UNL     1      -8.875  16.121  65.845  1.00  0.00    -0.161 C  
ENDROOT
BRANCH  13  14
HETATM   14  N   UNL     1      -9.019  14.655  66.053  1.00  0.00    -0.468 N  
HETATM   15  H   UNL     1      -8.424  14.169  66.724  1.00  0.00     0.000 HD 
HETATM   16  C   UNL     1      -9.961  13.962  65.332  1.00  0.00    -0.247 C  
HETATM   17  O   UNL     1     -10.693  14.562  64.539  1.00  0.00    -0.356 OA 
BRANCH  16  18
HETATM   18  C   UNL     1     -10.146  12.443  65.654  1.00  0.00    -0.257 C  
HETATM   19  C   UNL     1     -11.636  12.203  65.974  1.00  0.00    -0.420 C  
HETATM   20  N   UNL     1      -9.336  12.150  66.861  1.00  0.00    -0.197 NA 
HETATM   21  C   UNL     1     -12.500  12.407  64.725  1.00  0.00    -0.480 C  
HETATM   22  H1  UNL     1      -9.457  11.159  67.070  1.00  0.00     0.000 HD 
HETATM   23  H2  UNL     1      -9.561  12.756  67.650  1.00  0.00     0.000 HD 
HETATM   24  C   UNL     1     -12.068  11.485  63.589  1.00  0.00    -0.174 C  
HETATM   25  C   UNL     1     -10.576  11.585  63.285  1.00  0.00    -0.405 C  
HETATM   26  C   UNL     1      -9.714  11.469  64.543  1.00  0.00    -0.236 C  
ENDBRANCH  16  18
ENDBRANCH  13  14
TORSDOF 2
ENDMDL
MODEL       87
REMARK 921   NORMALIZED FREE ENERGY PREDICTED BY IDOCK:   -4.45 KCAL/MOL
REMARK 922        TOTAL FREE ENERGY PREDICTED BY IDOCK:   -5.27 KCAL/MOL
REMARK 923 INTER-LIGAND FREE ENERGY PREDICTED BY IDOCK:   -5.06 KCAL/MOL
REMARK 924 INTRA-LIGAND FREE ENERGY PREDICTED BY IDOCK:   -0.21 KCAL/MOL
REMARK 927      BINDING AFFINITY PREDICTED BY RF-SCORE:    0.00 PKD
ROOT
HETATM    1  C   UNL     1      -9.214  11.665  68.309  1.00  0.00    -0.187 C  
HETATM    2  S   UNL     1      -8.254  10.614  67.144  1.00  0.00    -0.123 SA 
HETATM    3  C   UNL     1      -9.631  10.436  65.924  1.00  0.00    -0.206 C  
HETATM    4  C   UNL     1      -9.045  10.359  64.511  1.00  0.00    -0.263 C  
HETATM    5  C   UNL     1     -10.317   9.081  66.200  1.00  0.00     0.000 C  
HETATM    6  CA  UNL     1     -10.578  11.630  66.200  1.00  0.00    -0.262 C  
HETATM    7  N   UNL     1     -10.516  11.912  67.645  1.00  0.00    -0.204 N  
HETATM    8  C   UNL     1     -10.250  12.935  65.453  1.00  0.00    -0.287 C  
HETATM    9  C   UNL     1     -11.214  11.124  68.523  1.00  0.00    -0.258 C  
HETATM   10  O   UNL     1     -10.226  14.032  66.257  1.00  0.00    -0.281 OA 
HETATM   11  OXT UNL     1     -10.108  13.027  64.242  1.00  0.00    -0.342 OA 
HETATM   12  O   UNL     1     -12.317  10.639  68.429  1.00  0.00    -0.269 OA 
HETATM   13  CA  UNL     1      -9.990  10.949  69.443  1.00  0.00    -0.057 C  
ENDROOT
BRANCH  13  14
HETATM   14  N   UNL     1      -9.570   9.556  69.753  1.00  0.00    -0.201 N  
HETATM   15  H   UNL     1      -8.878   9.085  69.170  1.00  0.00     0.000 HD 
HETATM   16  C   UNL     1     -10.123   8.912  70.832  1.00  0.00    -0.241 C  
HETATM   17  O   UNL     1     -10.942   9.497  71.546  1.00  0.00    -0.364 OA 
BRANCH  16  18
HETATM   18  C   UNL     1      -9.581   7.487  71.180  1.00  0.00    -0.158 C  
HETATM   19  C   UNL     1      -8.166   7.648  71.774  1.00  0.00    -0.118 C  
HETATM   20  N   UNL     1      -9.490   6.731  69.908  1.00  0.00    -0.156 NA 
HETATM   21  C   UNL     1      -8.226   8.345  73.138  1.00  0.00    -0.181 C  
HETATM   22  H1  UNL     1      -9.136   5.802  70.135  1.00  0.00     0.000 HD 
HETATM   23  H2  UNL     1      -8.934   7.208  69.198  1.00  0.00     0.000 HD 
HETATM   24  C   UNL     1      -9.107   7.580  74.119  1.00  0.00    -0.249 C  
HETATM   25  C   UNL     1     -10.495   7.283  73.559  1.00  0.00    -0.421 C  
HETATM   26  C   UNL     1     -10.440   6.667  72.160  1.00  0.00    -0.228 C  
ENDBRANCH  16  18
ENDBRANCH  13  14
TORSDOF 2
ENDMDL
MODEL       88
REMARK 921   NORMALIZED FREE ENERGY PREDICTED BY IDOCK:   -4.44 KCAL/MOL
REMARK 922        TOTAL FREE ENERGY PREDICTED BY IDOCK:   -5.26 KCAL/MOL
REMARK 923 INTER-LIGAND FREE ENERGY PREDICTED BY IDOCK:   -5.08 KCAL/MOL
REMARK 924 INTRA-LIGAND FREE ENERGY PREDICTED BY IDOCK:   -0.18 KCAL/MOL
REMARK 927      BINDING AFFINITY PREDICTED BY RF-SCORE:    0.00 PKD
ROOT
HETATM    1  C   UNL     1      -8.509   6.586  70.344  1.00  0.00    -0.131 C  
HETATM    2  S   UNL     1      -8.475   7.759  71.760  1.00  0.00    -0.119 SA 
HETATM    3  C   UNL     1      -9.967   7.048  72.588  1.00  0.00    -0.173 C  
HETATM    4  C   UNL     1      -9.803   7.162  74.106  1.00  0.00    -0.252 C  
HETATM    5  C   UNL     1     -11.172   7.930  72.200  1.00  0.00    -0.363 C  
HETATM    6  CA  UNL     1     -10.099   5.610  72.027  1.00  0.00    -0.185 C  
HETATM    7  N   UNL     1      -9.609   5.637  70.637  1.00  0.00    -0.163 N  
HETATM    8  C   UNL     1      -9.313   4.521  72.779  1.00  0.00    -0.128 C  
HETATM    9  C   UNL     1     -10.415   6.125  69.641  1.00  0.00    -0.252 C  
HETATM   10  O   UNL     1      -8.573   3.721  71.964  1.00  0.00    -0.089 OA 
HETATM   11  OXT UNL     1      -9.393   4.309  73.981  1.00  0.00    -0.105 OA 
HETATM   12  O   UNL     1     -11.604   5.997  69.467  1.00  0.00    -0.303 OA 
HETATM   13  CA  UNL     1      -9.292   7.017  69.078  1.00  0.00    -0.136 C  
ENDROOT
BRANCH  13  14
HETATM   14  N   UNL     1      -9.584   8.470  68.945  1.00  0.00    -0.158 N  
HETATM   15  H   UNL     1      -9.283   9.124  69.668  1.00  0.00     0.000 HD 
HETATM   16  C   UNL     1     -10.261   8.921  67.839  1.00  0.00    -0.222 C  
HETATM   17  O   UNL     1     -10.601   8.126  66.958  1.00  0.00    -0.329 OA 
BRANCH  16  18
HETATM   18  C   UNL     1     -10.459  10.465  67.691  1.00  0.00    -0.233 C  
HETATM   19  C   UNL     1      -9.436  11.166  68.609  1.00  0.00    -0.196 C  
HETATM   20  N   UNL     1     -11.830  10.777  68.164  1.00  0.00    -0.782 NA 
HETATM   21  C   UNL     1      -8.008  10.944  68.100  1.00  0.00    -0.117 C  
HETATM   22  H1  UNL     1     -11.959  11.784  68.067  1.00  0.00     0.000 HD 
HETATM   23  H2  UNL     1     -12.014  10.439  69.109  1.00  0.00     0.000 HD 
HETATM   24  C   UNL     1      -7.839  11.447  66.671  1.00  0.00    -0.137 C  
HETATM   25  C   UNL     1      -8.888  10.881  65.718  1.00  0.00    -0.202 C  
HETATM   26  C   UNL     1     -10.310  11.024  66.264  1.00  0.00    -0.304 C  
ENDBRANCH  16  18
ENDBRANCH  13  14
TORSDOF 2
ENDMDL
MODEL       89
REMARK 921   NORMALIZED FREE ENERGY PREDICTED BY IDOCK:   -4.42 KCAL/MOL
REMARK 922        TOTAL FREE ENERGY PREDICTED BY IDOCK:   -5.24 KCAL/MOL
REMARK 923 INTER-LIGAND FREE ENERGY PREDICTED BY IDOCK:   -5.18 KCAL/MOL
REMARK 924 INTRA-LIGAND FREE ENERGY PREDICTED BY IDOCK:   -0.06 KCAL/MOL
REMARK 927      BINDING AFFINITY PREDICTED BY RF-SCORE:    0.00 PKD
ROOT
HETATM    1  C   UNL     1     -11.404  12.680  67.157  1.00  0.00    -0.319 C  
HETATM    2  S   UNL     1     -10.307  13.434  68.427  1.00  0.00    -0.246 SA 
HETATM    3  C   UNL     1      -9.077  14.080  67.208  1.00  0.00    -0.220 C  
HETATM    4  C   UNL     1      -8.498  15.399  67.728  1.00  0.00    -0.157 C  
HETATM    5  C   UNL     1      -7.912  13.070  67.152  1.00  0.00    -0.095 C  
HETATM    6  CA  UNL     1      -9.839  14.159  65.862  1.00  0.00    -0.289 C  
HETATM    7  N   UNL     1     -10.818  13.057  65.849  1.00  0.00    -0.270 N  
HETATM    8  C   UNL     1     -10.604  15.468  65.598  1.00  0.00    -0.373 C  
HETATM    9  C   UNL     1     -10.403  11.781  65.567  1.00  0.00    -0.262 C  
HETATM   10  O   UNL     1     -11.889  15.277  65.193  1.00  0.00    -0.188 OA 
HETATM   11  OXT UNL     1     -10.110  16.586  65.651  1.00  0.00    -0.483 OA 
HETATM   12  O   UNL     1      -9.595  11.385  64.760  1.00  0.00    -0.236 OA 
HETATM   13  CA  UNL     1     -11.148  11.199  66.783  1.00  0.00    -0.214 C  
ENDROOT
BRANCH  13  14
HETATM   14  N   UNL     1     -10.347  10.401  67.750  1.00  0.00    -0.192 N  
HETATM   15  H   UNL     1      -9.392  10.123  67.522  1.00  0.00     0.000 HD 
HETATM   16  C   UNL     1     -10.905  10.044  68.953  1.00  0.00    -0.220 C  
HETATM   17  O   UNL     1     -12.053  10.405  69.231  1.00  0.00    -0.133 OA 
BRANCH  16  18
HETATM   18  C   UNL     1      -9.995   9.293  69.979  1.00  0.00    -0.209 C  
HETATM   19  C   UNL     1     -10.912   8.562  70.982  1.00  0.00    -0.296 C  
HETATM   20  N   UNL     1      -9.209  10.322  70.701  1.00  0.00    -0.044 NA 
HETATM   21  C   UNL     1     -11.676   7.427  70.291  1.00  0.00    -0.100 C  
HETATM   22  H1  UNL     1      -8.615   9.832  71.370  1.00  0.00     0.000 HD 
HETATM   23  H2  UNL     1      -9.791  11.039  71.133  1.00  0.00     0.000 HD 
HETATM   24  C   UNL     1     -10.726   6.424  69.645  1.00  0.00    -0.339 C  
HETATM   25  C   UNL     1      -9.711   7.087  68.719  1.00  0.00    -0.143 C  
HETATM   26  C   UNL     1      -9.008   8.276  69.376  1.00  0.00    -0.147 C  
ENDBRANCH  16  18
ENDBRANCH  13  14
TORSDOF 2
ENDMDL
MODEL       90
REMARK 921   NORMALIZED FREE ENERGY PREDICTED BY IDOCK:   -4.42 KCAL/MOL
REMARK 922        TOTAL FREE ENERGY PREDICTED BY IDOCK:   -5.24 KCAL/MOL
REMARK 923 INTER-LIGAND FREE ENERGY PREDICTED BY IDOCK:   -5.15 KCAL/MOL
REMARK 924 INTRA-LIGAND FREE ENERGY PREDICTED BY IDOCK:   -0.09 KCAL/MOL
REMARK 927      BINDING AFFINITY PREDICTED BY RF-SCORE:    0.00 PKD
ROOT
HETATM    1  C   UNL     1     -11.042  10.512  67.542  1.00  0.00    -0.290 C  
HETATM    2  S   UNL     1     -10.034  11.719  68.496  1.00  0.00    -0.171 SA 
HETATM    3  C   UNL     1      -9.014  12.249  67.049  1.00  0.00    -0.204 C  
HETATM    4  C   UNL     1      -8.658  13.731  67.198  1.00  0.00    -0.210 C  
HETATM    5  C   UNL     1      -7.687  11.462  67.108  1.00  0.00    -0.152 C  
HETATM    6  CA  UNL     1      -9.851  11.876  65.800  1.00  0.00    -0.238 C  
HETATM    7  N   UNL     1     -10.610  10.656  66.132  1.00  0.00    -0.187 N  
HETATM    8  C   UNL     1     -10.857  12.939  65.324  1.00  0.00    -0.292 C  
HETATM    9  C   UNL     1      -9.984   9.437  66.105  1.00  0.00    -0.281 C  
HETATM   10  O   UNL     1     -12.106  12.446  65.099  1.00  0.00    -0.424 OA 
HETATM   11  OXT UNL     1     -10.575  14.102  65.075  1.00  0.00    -0.368 OA 
HETATM   12  O   UNL     1      -9.163   8.998  65.334  1.00  0.00    -0.220 OA 
HETATM   13  CA  UNL     1     -10.540   9.047  67.488  1.00  0.00    -0.237 C  
ENDROOT
BRANCH  13  14
HETATM   14  N   UNL     1      -9.553   8.648  68.527  1.00  0.00    -0.152 N  
HETATM   15  H   UNL     1      -8.562   8.575  68.295  1.00  0.00     0.000 HD 
HETATM   16  C   UNL     1      -9.989   8.381  69.802  1.00  0.00    -0.191 C  
HETATM   17  O   UNL     1     -11.187   8.495  70.080  1.00  0.00    -0.205 OA 
BRANCH  16  18
HETATM   18  C   UNL     1      -8.908   8.062  70.885  1.00  0.00    -0.139 C  
HETATM   19  C   UNL     1      -9.638   7.702  72.195  1.00  0.00    -0.207 C  
HETATM   20  N   UNL     1      -8.120   9.301  71.093  1.00  0.00    -0.327 NA 
HETATM   21  C   UNL     1     -10.392   6.376  72.050  1.00  0.00    -0.222 C  
HETATM   22  H1  UNL     1      -7.414   9.094  71.799  1.00  0.00     0.000 HD 
HETATM   23  H2  UNL     1      -8.698  10.108  71.330  1.00  0.00     0.000 HD 
HETATM   24  C   UNL     1      -9.453   5.239  71.660  1.00  0.00    -0.187 C  
HETATM   25  C   UNL     1      -8.611   5.565  70.430  1.00  0.00    -0.131 C  
HETATM   26  C   UNL     1      -7.926   6.928  70.535  1.00  0.00    -0.114 C  
ENDBRANCH  16  18
ENDBRANCH  13  14
TORSDOF 2
ENDMDL
MODEL       91
REMARK 921   NORMALIZED FREE ENERGY PREDICTED BY IDOCK:   -4.40 KCAL/MOL
REMARK 922        TOTAL FREE ENERGY PREDICTED BY IDOCK:   -5.22 KCAL/MOL
REMARK 923 INTER-LIGAND FREE ENERGY PREDICTED BY IDOCK:   -4.78 KCAL/MOL
REMARK 924 INTRA-LIGAND FREE ENERGY PREDICTED BY IDOCK:   -0.44 KCAL/MOL
REMARK 927      BINDING AFFINITY PREDICTED BY RF-SCORE:    0.00 PKD
ROOT
HETATM    1  C   UNL     1      -9.677  16.410  68.057  1.00  0.00    -0.235 C  
HETATM    2  S   UNL     1      -7.949  16.959  68.367  1.00  0.00    -0.242 SA 
HETATM    3  C   UNL     1      -7.909  18.153  66.957  1.00  0.00    -0.223 C  
HETATM    4  C   UNL     1      -7.032  19.350  67.336  1.00  0.00    -0.226 C  
HETATM    5  C   UNL     1      -7.216  17.446  65.774  1.00  0.00     0.044 C  
HETATM    6  CA  UNL     1      -9.393  18.472  66.650  1.00  0.00    -0.310 C  
HETATM    7  N   UNL     1     -10.171  17.255  66.945  1.00  0.00    -0.314 N  
HETATM    8  C   UNL     1     -10.012  19.630  67.453  1.00  0.00    -0.385 C  
HETATM    9  C   UNL     1     -10.183  16.220  66.046  1.00  0.00    -0.358 C  
HETATM   10  O   UNL     1     -11.212  19.322  68.017  1.00  0.00     0.021 OA 
HETATM   11  OXT UNL     1      -9.544  20.757  67.524  1.00  0.00    -0.412 OA 
HETATM   12  O   UNL     1     -10.225  16.237  64.838  1.00  0.00    -0.507 OA 
HETATM   13  CA  UNL     1      -9.881  15.178  67.140  1.00  0.00    -0.228 C  
ENDROOT
BRANCH  13  14
HETATM   14  N   UNL     1      -8.695  14.304  66.935  1.00  0.00    -0.336 N  
HETATM   15  H   UNL     1      -7.930  14.607  66.332  1.00  0.00     0.000 HD 
HETATM   16  C   UNL     1      -8.642  13.084  67.564  1.00  0.00    -0.192 C  
HETATM   17  O   UNL     1      -9.561  12.735  68.311  1.00  0.00    -0.218 OA 
BRANCH  16  18
HETATM   18  C   UNL     1      -7.335  12.242  67.400  1.00  0.00    -0.151 C  
HETATM   19  C   UNL     1      -6.135  13.161  67.708  1.00  0.00    -0.154 C  
HETATM   20  N   UNL     1      -7.267  11.813  65.982  1.00  0.00    -0.111 NA 
HETATM   21  C   UNL     1      -6.117  13.553  69.189  1.00  0.00    -0.091 C  
HETATM   22  H1  UNL     1      -6.415  11.263  65.876  1.00  0.00     0.000 HD 
HETATM   23  H2  UNL     1      -7.326  12.590  65.326  1.00  0.00     0.000 HD 
HETATM   24  C   UNL     1      -6.064  12.326  70.093  1.00  0.00    -0.111 C  
HETATM   25  C   UNL     1      -7.159  11.312  69.775  1.00  0.00     0.045 C  
HETATM   26  C   UNL     1      -7.237  10.984  68.283  1.00  0.00    -0.085 C  
ENDBRANCH  16  18
ENDBRANCH  13  14
TORSDOF 2
ENDMDL
MODEL       92
REMARK 921   NORMALIZED FREE ENERGY PREDICTED BY IDOCK:   -4.37 KCAL/MOL
REMARK 922        TOTAL FREE ENERGY PREDICTED BY IDOCK:   -5.19 KCAL/MOL
REMARK 923 INTER-LIGAND FREE ENERGY PREDICTED BY IDOCK:   -5.65 KCAL/MOL
REMARK 924 INTRA-LIGAND FREE ENERGY PREDICTED BY IDOCK:    0.45 KCAL/MOL
REMARK 927      BINDING AFFINITY PREDICTED BY RF-SCORE:    0.00 PKD
ROOT
HETATM    1  C   UNL     1     -10.051  16.965  66.401  1.00  0.00    -0.322 C  
HETATM    2  S   UNL     1     -11.179  16.275  67.679  1.00  0.00    -0.022 SA 
HETATM    3  C   UNL     1     -10.065  16.667  69.100  1.00  0.00    -0.285 C  
HETATM    4  C   UNL     1     -10.915  17.010  70.327  1.00  0.00     0.431 C  
HETATM    5  C   UNL     1      -9.285  15.380  69.441  1.00  0.00    -0.268 C  
HETATM    6  CA  UNL     1      -9.130  17.790  68.588  1.00  0.00    -0.260 C  
HETATM    7  N   UNL     1      -8.917  17.559  67.148  1.00  0.00    -0.234 N  
HETATM    8  C   UNL     1      -9.652  19.229  68.759  1.00  0.00    -0.425 C  
HETATM    9  C   UNL     1      -8.028  16.600  66.737  1.00  0.00    -0.249 C  
HETATM   10  O   UNL     1      -9.560  19.980  67.628  1.00  0.00    -0.352 OA 
HETATM   11  OXT UNL     1     -10.034  19.709  69.816  1.00  0.00    -0.180 OA 
HETATM   12  O   UNL     1      -6.947  16.295  67.185  1.00  0.00    -0.172 OA 
HETATM   13  CA  UNL     1      -9.038  15.995  65.743  1.00  0.00    -0.133 C  
ENDROOT
BRANCH  13  14
HETATM   14  N   UNL     1      -9.332  14.542  65.877  1.00  0.00    -0.527 N  
HETATM   15  H   UNL     1      -8.791  13.964  66.519  1.00  0.00     0.000 HD 
HETATM   16  C   UNL     1     -10.341  13.989  65.126  1.00  0.00    -0.400 C  
HETATM   17  O   UNL     1     -11.006  14.700  64.368  1.00  0.00    -0.270 OA 
BRANCH  16  18
HETATM   18  C   UNL     1     -10.681  12.482  65.370  1.00  0.00    -0.280 C  
HETATM   19  C   UNL     1      -9.388  11.769  65.816  1.00  0.00    -0.197 C  
HETATM   20  N   UNL     1     -11.125  11.919  64.073  1.00  0.00    -0.360 NA 
HETATM   21  C   UNL     1      -8.946  12.258  67.199  1.00  0.00    -0.192 C  
HETATM   22  H1  UNL     1     -11.348  10.936  64.233  1.00  0.00     0.000 HD 
HETATM   23  H2  UNL     1     -10.448  12.059  63.323  1.00  0.00     0.000 HD 
HETATM   24  C   UNL     1     -10.034  12.041  68.244  1.00  0.00    -0.203 C  
HETATM   25  C   UNL     1     -11.380  12.625  67.825  1.00  0.00    -0.349 C  
HETATM   26  C   UNL     1     -11.784  12.208  66.410  1.00  0.00    -0.394 C  
ENDBRANCH  16  18
ENDBRANCH  13  14
TORSDOF 2
ENDMDL
MODEL       93
REMARK 921   NORMALIZED FREE ENERGY PREDICTED BY IDOCK:   -4.37 KCAL/MOL
REMARK 922        TOTAL FREE ENERGY PREDICTED BY IDOCK:   -5.19 KCAL/MOL
REMARK 923 INTER-LIGAND FREE ENERGY PREDICTED BY IDOCK:   -4.75 KCAL/MOL
REMARK 924 INTRA-LIGAND FREE ENERGY PREDICTED BY IDOCK:   -0.44 KCAL/MOL
REMARK 927      BINDING AFFINITY PREDICTED BY RF-SCORE:    0.00 PKD
ROOT
HETATM    1  C   UNL     1     -10.921  10.503  66.527  1.00  0.00     0.016 C  
HETATM    2  S   UNL     1     -10.428  11.161  68.172  1.00  0.00    -0.200 SA 
HETATM    3  C   UNL     1      -9.238  12.401  67.495  1.00  0.00    -0.183 C  
HETATM    4  C   UNL     1      -9.241  13.644  68.391  1.00  0.00    -0.169 C  
HETATM    5  C   UNL     1      -7.826  11.784  67.589  1.00  0.00    -0.138 C  
HETATM    6  CA  UNL     1      -9.673  12.625  66.025  1.00  0.00    -0.229 C  
HETATM    7  N   UNL     1     -10.218  11.347  65.532  1.00  0.00    -0.252 N  
HETATM    8  C   UNL     1     -10.742  13.709  65.799  1.00  0.00    -0.280 C  
HETATM    9  C   UNL     1      -9.364  10.345  65.152  1.00  0.00    -0.222 C  
HETATM   10  O   UNL     1     -11.777  13.299  65.016  1.00  0.00    -0.314 OA 
HETATM   11  OXT UNL     1     -10.658  14.863  66.193  1.00  0.00    -0.298 OA 
HETATM   12  O   UNL     1      -8.317  10.399  64.551  1.00  0.00    -0.166 OA 
HETATM   13  CA  UNL     1     -10.128   9.291  65.977  1.00  0.00    -0.192 C  
ENDROOT
BRANCH  13  14
HETATM   14  N   UNL     1      -9.343   8.509  66.969  1.00  0.00    -0.153 N  
HETATM   15  H   UNL     1      -8.394   8.792  67.214  1.00  0.00     0.000 HD 
HETATM   16  C   UNL     1      -9.909   7.402  67.553  1.00  0.00    -0.158 C  
HETATM   17  O   UNL     1     -11.066   7.080  67.269  1.00  0.00    -0.318 OA 
BRANCH  16  18
HETATM   18  C   UNL     1      -9.086   6.669  68.662  1.00  0.00    -0.126 C  
HETATM   19  C   UNL     1      -8.674   7.715  69.718  1.00  0.00    -0.140 C  
HETATM   20  N   UNL     1      -7.868   6.125  68.016  1.00  0.00    -0.105 NA 
HETATM   21  C   UNL     1      -9.900   8.236  70.475  1.00  0.00    -0.197 C  
HETATM   22  H1  UNL     1      -7.332   5.646  68.740  1.00  0.00     0.000 HD 
HETATM   23  H2  UNL     1      -7.327   6.834  67.521  1.00  0.00     0.000 HD 
HETATM   24  C   UNL     1     -10.664   7.102  71.152  1.00  0.00    -0.252 C  
HETATM   25  C   UNL     1     -11.013   5.970  70.190  1.00  0.00    -0.429 C  
HETATM   26  C   UNL     1      -9.808   5.507  69.370  1.00  0.00    -0.240 C  
ENDBRANCH  16  18
ENDBRANCH  13  14
TORSDOF 2
ENDMDL
MODEL       94
REMARK 921   NORMALIZED FREE ENERGY PREDICTED BY IDOCK:   -4.32 KCAL/MOL
REMARK 922        TOTAL FREE ENERGY PREDICTED BY IDOCK:   -5.13 KCAL/MOL
REMARK 923 INTER-LIGAND FREE ENERGY PREDICTED BY IDOCK:   -4.80 KCAL/MOL
REMARK 924 INTRA-LIGAND FREE ENERGY PREDICTED BY IDOCK:   -0.33 KCAL/MOL
REMARK 927      BINDING AFFINITY PREDICTED BY RF-SCORE:    0.00 PKD
ROOT
HETATM    1  C   UNL     1     -10.496   8.245  68.551  1.00  0.00    -0.162 C  
HETATM    2  S   UNL     1      -8.919   7.554  69.200  1.00  0.00    -0.134 SA 
HETATM    3  C   UNL     1      -8.772   8.773  70.581  1.00  0.00    -0.180 C  
HETATM    4  C   UNL     1      -8.112   8.093  71.785  1.00  0.00    -0.159 C  
HETATM    5  C   UNL     1      -7.810   9.885  70.113  1.00  0.00    -0.186 C  
HETATM    6  CA  UNL     1     -10.207   9.308  70.809  1.00  0.00    -0.286 C  
HETATM    7  N   UNL     1     -10.883   9.316  69.499  1.00  0.00    -0.223 N  
HETATM    8  C   UNL     1     -11.081   8.497  71.782  1.00  0.00    -0.307 C  
HETATM    9  C   UNL     1     -10.623  10.323  68.605  1.00  0.00    -0.208 C  
HETATM   10  O   UNL     1     -12.318   8.208  71.293  1.00  0.00    -0.303 OA 
HETATM   11  OXT UNL     1     -10.760   8.201  72.924  1.00  0.00    -0.352 OA 
HETATM   12  O   UNL     1     -10.459  11.506  68.790  1.00  0.00    -0.201 OA 
HETATM   13  CA  UNL     1     -10.400   9.329  67.449  1.00  0.00    -0.263 C  
ENDROOT
BRANCH  13  14
HETATM   14  N   UNL     1      -9.106   9.418  66.720  1.00  0.00    -0.137 N  
HETATM   15  H   UNL     1      -8.236   9.151  67.181  1.00  0.00     0.000 HD 
HETATM   16  C   UNL     1      -9.096   9.862  65.421  1.00  0.00    -0.196 C  
HETATM   17  O   UNL     1     -10.156  10.161  64.863  1.00  0.00    -0.330 OA 
BRANCH  16  18
HETATM   18  C   UNL     1      -7.730   9.846  64.661  1.00  0.00    -0.142 C  
HETATM   19  C   UNL     1      -7.112   8.442  64.825  1.00  0.00    -0.080 C  
HETATM   20  N   UNL     1      -6.851  10.843  65.319  1.00  0.00    -0.361 NA 
HETATM   21  C   UNL     1      -7.942   7.392  64.078  1.00  0.00    -0.091 C  
HETATM   22  H1  UNL     1      -5.960  10.832  64.823  1.00  0.00     0.000 HD 
HETATM   23  H2  UNL     1      -6.753  10.688  66.322  1.00  0.00     0.000 HD 
HETATM   24  C   UNL     1      -8.064   7.726  62.595  1.00  0.00    -0.124 C  
HETATM   25  C   UNL     1      -8.568   9.145  62.350  1.00  0.00    -0.226 C  
HETATM   26  C   UNL     1      -7.796  10.187  63.161  1.00  0.00    -0.150 C  
ENDBRANCH  16  18
ENDBRANCH  13  14
TORSDOF 2
ENDMDL
MODEL       95
REMARK 921   NORMALIZED FREE ENERGY PREDICTED BY IDOCK:   -4.32 KCAL/MOL
REMARK 922        TOTAL FREE ENERGY PREDICTED BY IDOCK:   -5.13 KCAL/MOL
REMARK 923 INTER-LIGAND FREE ENERGY PREDICTED BY IDOCK:   -4.66 KCAL/MOL
REMARK 924 INTRA-LIGAND FREE ENERGY PREDICTED BY IDOCK:   -0.48 KCAL/MOL
REMARK 927      BINDING AFFINITY PREDICTED BY RF-SCORE:    0.00 PKD
ROOT
HETATM    1  C   UNL     1      -8.471   9.564  67.348  1.00  0.00    -0.125 C  
HETATM    2  S   UNL     1     -10.243   9.810  66.918  1.00  0.00    -0.241 SA 
HETATM    3  C   UNL     1     -10.487  11.236  68.067  1.00  0.00    -0.188 C  
HETATM    4  C   UNL     1     -11.495  12.212  67.452  1.00  0.00    -0.415 C  
HETATM    5  C   UNL     1     -11.128  10.683  69.357  1.00  0.00    -0.315 C  
HETATM    6  CA  UNL     1      -9.068  11.802  68.324  1.00  0.00    -0.187 C  
HETATM    7  N   UNL     1      -8.131  10.664  68.281  1.00  0.00    -0.113 N  
HETATM    8  C   UNL     1      -8.572  12.856  67.317  1.00  0.00    -0.205 C  
HETATM    9  C   UNL     1      -8.021   9.832  69.364  1.00  0.00    -0.125 C  
HETATM   10  O   UNL     1      -7.323  12.607  66.838  1.00  0.00    -0.011 OA 
HETATM   11  OXT UNL     1      -9.178  13.876  67.023  1.00  0.00    -0.231 OA 
HETATM   12  O   UNL     1      -8.026  10.085  70.546  1.00  0.00    -0.224 OA 
HETATM   13  CA  UNL     1      -8.146   8.569  68.490  1.00  0.00    -0.122 C  
ENDROOT
BRANCH  13  14
HETATM   14  N   UNL     1      -9.217   7.601  68.848  1.00  0.00    -0.140 N  
HETATM   15  H   UNL     1     -10.150   7.694  68.447  1.00  0.00     0.000 HD 
HETATM   16  C   UNL     1      -8.936   6.581  69.724  1.00  0.00    -0.142 C  
HETATM   17  O   UNL     1      -7.797   6.463  70.187  1.00  0.00    -0.102 OA 
BRANCH  16  18
HETATM   18  C   UNL     1     -10.061   5.530  69.996  1.00  0.00    -0.241 C  
HETATM   19  C   UNL     1      -9.830   4.938  71.402  1.00  0.00    -0.252 C  
HETATM   20  N   UNL     1      -9.908   4.455  68.986  1.00  0.00    -0.152 NA 
HETATM   21  C   UNL     1     -10.070   5.998  72.483  1.00  0.00    -0.200 C  
HETATM   22  H1  UNL     1     -10.642   3.770  69.163  1.00  0.00     0.000 HD 
HETATM   23  H2  UNL     1      -8.973   4.047  68.975  1.00  0.00     0.000 HD 
HETATM   24  C   UNL     1     -11.478   6.575  72.398  1.00  0.00    -0.306 C  
HETATM   25  C   UNL     1     -11.824   7.084  71.001  1.00  0.00    -0.395 C  
HETATM   26  C   UNL     1     -11.505   6.060  69.911  1.00  0.00    -0.225 C  
ENDBRANCH  16  18
ENDBRANCH  13  14
TORSDOF 2
ENDMDL
MODEL       96
REMARK 921   NORMALIZED FREE ENERGY PREDICTED BY IDOCK:   -4.32 KCAL/MOL
REMARK 922        TOTAL FREE ENERGY PREDICTED BY IDOCK:   -5.13 KCAL/MOL
REMARK 923 INTER-LIGAND FREE ENERGY PREDICTED BY IDOCK:   -5.07 KCAL/MOL
REMARK 924 INTRA-LIGAND FREE ENERGY PREDICTED BY IDOCK:   -0.06 KCAL/MOL
REMARK 927      BINDING AFFINITY PREDICTED BY RF-SCORE:    0.00 PKD
ROOT
HETATM    1  C   UNL     1      -8.283  15.410  68.800  1.00  0.00    -0.172 C  
HETATM    2  S   UNL     1      -8.856  13.670  68.631  1.00  0.00     0.057 SA 
HETATM    3  C   UNL     1      -7.157  12.961  68.474  1.00  0.00    -0.102 C  
HETATM    4  C   UNL     1      -7.130  11.572  69.120  1.00  0.00    -0.105 C  
HETATM    5  C   UNL     1      -6.880  12.761  66.969  1.00  0.00     0.176 C  
HETATM    6  CA  UNL     1      -6.214  14.017  69.100  1.00  0.00    -0.103 C  
HETATM    7  N   UNL     1      -6.804  15.342  68.833  1.00  0.00    -0.115 N  
HETATM    8  C   UNL     1      -5.989  13.902  70.618  1.00  0.00    -0.174 C  
HETATM    9  C   UNL     1      -6.661  15.913  67.595  1.00  0.00    -0.172 C  
HETATM   10  O   UNL     1      -6.148  15.078  71.284  1.00  0.00     0.139 OA 
HETATM   11  OXT UNL     1      -5.615  12.889  71.192  1.00  0.00    -0.274 OA 
HETATM   12  O   UNL     1      -5.712  15.925  66.846  1.00  0.00    -0.292 OA 
HETATM   13  CA  UNL     1      -8.162  16.251  67.505  1.00  0.00    -0.148 C  
ENDROOT
BRANCH  13  14
HETATM   14  N   UNL     1      -8.899  15.744  66.317  1.00  0.00    -0.330 N  
HETATM   15  H   UNL     1      -8.396  15.299  65.549  1.00  0.00     0.000 HD 
HETATM   16  C   UNL     1     -10.265  15.883  66.264  1.00  0.00    -0.311 C  
HETATM   17  O   UNL     1     -10.869  16.402  67.207  1.00  0.00    -0.291 OA 
BRANCH  16  18
HETATM   18  C   UNL     1     -11.010  15.248  65.044  1.00  0.00    -0.437 C  
HETATM   19  C   UNL     1     -10.182  14.041  64.557  1.00  0.00    -0.071 C  
HETATM   20  N   UNL     1     -11.048  16.274  63.974  1.00  0.00    -1.108 NA 
HETATM   21  C   UNL     1     -10.194  12.918  65.600  1.00  0.00    -0.295 C  
HETATM   22  H1  UNL     1     -11.534  15.860  63.178  1.00  0.00     0.000 HD 
HETATM   23  H2  UNL     1     -10.125  16.636  63.734  1.00  0.00     0.000 HD 
HETATM   24  C   UNL     1     -11.615  12.466  65.920  1.00  0.00    -0.449 C  
HETATM   25  C   UNL     1     -12.530  13.626  66.305  1.00  0.00    -0.420 C  
HETATM   26  C   UNL     1     -12.454  14.785  65.311  1.00  0.00    -0.076 C  
ENDBRANCH  16  18
ENDBRANCH  13  14
TORSDOF 2
ENDMDL
MODEL       97
REMARK 921   NORMALIZED FREE ENERGY PREDICTED BY IDOCK:   -4.32 KCAL/MOL
REMARK 922        TOTAL FREE ENERGY PREDICTED BY IDOCK:   -5.13 KCAL/MOL
REMARK 923 INTER-LIGAND FREE ENERGY PREDICTED BY IDOCK:   -5.01 KCAL/MOL
REMARK 924 INTRA-LIGAND FREE ENERGY PREDICTED BY IDOCK:   -0.12 KCAL/MOL
REMARK 927      BINDING AFFINITY PREDICTED BY RF-SCORE:    0.00 PKD
ROOT
HETATM    1  C   UNL     1     -10.814  15.598  66.305  1.00  0.00    -0.262 C  
HETATM    2  S   UNL     1      -9.791  14.846  64.973  1.00  0.00     0.172 SA 
HETATM    3  C   UNL     1     -10.241  13.104  65.395  1.00  0.00    -0.290 C  
HETATM    4  C   UNL     1     -10.286  12.271  64.111  1.00  0.00    -0.396 C  
HETATM    5  C   UNL     1      -9.100  12.531  66.261  1.00  0.00    -0.074 C  
HETATM    6  CA  UNL     1     -11.571  13.205  66.183  1.00  0.00    -0.355 C  
HETATM    7  N   UNL     1     -11.534  14.470  66.940  1.00  0.00    -0.352 N  
HETATM    8  C   UNL     1     -12.856  13.203  65.337  1.00  0.00    -0.209 C  
HETATM    9  C   UNL     1     -10.811  14.546  68.103  1.00  0.00    -0.240 C  
HETATM   10  O   UNL     1     -13.724  14.200  65.660  1.00  0.00    -0.291 OA 
HETATM   11  OXT UNL     1     -13.143  12.351  64.508  1.00  0.00    -0.823 OA 
HETATM   12  O   UNL     1     -10.676  13.738  68.991  1.00  0.00    -0.240 OA 
HETATM   13  CA  UNL     1     -10.129  15.858  67.670  1.00  0.00    -0.242 C  
ENDROOT
BRANCH  13  14
HETATM   14  N   UNL     1      -8.642  15.880  67.669  1.00  0.00    -0.161 N  
HETATM   15  H   UNL     1      -8.115  15.064  67.358  1.00  0.00     0.000 HD 
HETATM   16  C   UNL     1      -7.986  17.010  68.092  1.00  0.00    -0.206 C  
HETATM   17  O   UNL     1      -8.631  18.002  68.445  1.00  0.00    -0.279 OA 
BRANCH  16  18
HETATM   18  C   UNL     1      -6.426  17.026  67.982  1.00  0.00    -0.145 C  
HETATM   19  C   UNL     1      -5.847  16.934  69.409  1.00  0.00    -0.192 C  
HETATM   20  N   UNL     1      -6.043  18.328  67.385  1.00  0.00    -0.169 NA 
HETATM   21  C   UNL     1      -6.143  15.564  70.028  1.00  0.00    -0.148 C  
HETATM   22  H1  UNL     1      -5.026  18.338  67.313  1.00  0.00     0.000 HD 
HETATM   23  H2  UNL     1      -6.416  19.127  67.897  1.00  0.00     0.000 HD 
HETATM   24  C   UNL     1      -5.580  14.431  69.176  1.00  0.00    -0.091 C  
HETATM   25  C   UNL     1      -6.021  14.516  67.717  1.00  0.00    -0.113 C  
HETATM   26  C   UNL     1      -5.807  15.908  67.122  1.00  0.00     0.096 C  
ENDBRANCH  16  18
ENDBRANCH  13  14
TORSDOF 2
ENDMDL
MODEL       98
REMARK 921   NORMALIZED FREE ENERGY PREDICTED BY IDOCK:   -4.30 KCAL/MOL
REMARK 922        TOTAL FREE ENERGY PREDICTED BY IDOCK:   -5.11 KCAL/MOL
REMARK 923 INTER-LIGAND FREE ENERGY PREDICTED BY IDOCK:   -4.88 KCAL/MOL
REMARK 924 INTRA-LIGAND FREE ENERGY PREDICTED BY IDOCK:   -0.22 KCAL/MOL
REMARK 927      BINDING AFFINITY PREDICTED BY RF-SCORE:    0.00 PKD
ROOT
HETATM    1  C   UNL     1     -10.715   5.687  70.936  1.00  0.00    -0.243 C  
HETATM    2  S   UNL     1      -9.135   4.789  71.224  1.00  0.00    -0.142 SA 
HETATM    3  C   UNL     1      -8.118   6.320  71.414  1.00  0.00    -0.117 C  
HETATM    4  C   UNL     1      -7.001   6.060  72.429  1.00  0.00    -0.079 C  
HETATM    5  C   UNL     1      -7.435   6.591  70.056  1.00  0.00    -0.094 C  
HETATM    6  CA  UNL     1      -9.125   7.436  71.786  1.00  0.00    -0.129 C  
HETATM    7  N   UNL     1     -10.395   7.123  71.106  1.00  0.00    -0.203 N  
HETATM    8  C   UNL     1      -9.426   7.597  73.287  1.00  0.00    -0.259 C  
HETATM    9  C   UNL     1     -10.539   7.405  69.772  1.00  0.00    -0.236 C  
HETATM   10  O   UNL     1     -10.755   7.654  73.575  1.00  0.00    -0.348 OA 
HETATM   11  OXT UNL     1      -8.578   7.752  74.155  1.00  0.00    -0.237 OA 
HETATM   12  O   UNL     1     -10.159   8.356  69.130  1.00  0.00    -0.192 OA 
HETATM   13  CA  UNL     1     -11.099   6.002  69.468  1.00  0.00    -0.398 C  
ENDROOT
BRANCH  13  14
HETATM   14  N   UNL     1     -10.405   5.209  68.418  1.00  0.00    -0.115 N  
HETATM   15  H   UNL     1      -9.806   4.425  68.677  1.00  0.00     0.000 HD 
HETATM   16  C   UNL     1     -10.579   5.544  67.098  1.00  0.00    -0.240 C  
HETATM   17  O   UNL     1     -11.324   6.480  66.792  1.00  0.00    -0.272 OA 
BRANCH  16  18
HETATM   18  C   UNL     1      -9.911   4.624  66.024  1.00  0.00    -0.244 C  
HETATM   19  C   UNL     1      -8.832   5.451  65.294  1.00  0.00    -0.132 C  
HETATM   20  N   UNL     1     -10.969   4.244  65.056  1.00  0.00    -0.769 NA 
HETATM   21  C   UNL     1      -7.674   5.786  66.239  1.00  0.00    -0.099 C  
HETATM   22  H1  UNL     1     -10.533   3.643  64.356  1.00  0.00     0.000 HD 
HETATM   23  H2  UNL     1     -11.448   5.047  64.651  1.00  0.00     0.000 HD 
HETATM   24  C   UNL     1      -7.043   4.526  66.822  1.00  0.00    -0.074 C  
HETATM   25  C   UNL     1      -8.068   3.599  67.468  1.00  0.00    -0.089 C  
HETATM   26  C   UNL     1      -9.269   3.331  66.559  1.00  0.00    -0.169 C  
ENDBRANCH  16  18
ENDBRANCH  13  14
TORSDOF 2
ENDMDL
MODEL       99
REMARK 921   NORMALIZED FREE ENERGY PREDICTED BY IDOCK:   -4.25 KCAL/MOL
REMARK 922        TOTAL FREE ENERGY PREDICTED BY IDOCK:   -5.05 KCAL/MOL
REMARK 923 INTER-LIGAND FREE ENERGY PREDICTED BY IDOCK:   -4.75 KCAL/MOL
REMARK 924 INTRA-LIGAND FREE ENERGY PREDICTED BY IDOCK:   -0.30 KCAL/MOL
REMARK 927      BINDING AFFINITY PREDICTED BY RF-SCORE:    0.00 PKD
ROOT
HETATM    1  C   UNL     1     -10.044  13.161  66.863  1.00  0.00    -0.245 C  
HETATM    2  S   UNL     1     -10.999  13.699  68.341  1.00  0.00    -0.273 SA 
HETATM    3  C   UNL     1     -10.044  15.263  68.584  1.00  0.00    -0.222 C  
HETATM    4  C   UNL     1     -10.979  16.343  69.136  1.00  0.00    -0.324 C  
HETATM    5  C   UNL     1      -8.983  14.990  69.670  1.00  0.00     0.014 C  
HETATM    6  CA  UNL     1      -9.399  15.565  67.209  1.00  0.00    -0.212 C  
HETATM    7  N   UNL     1      -9.104  14.269  66.570  1.00  0.00    -0.226 N  
HETATM    8  C   UNL     1     -10.257  16.386  66.229  1.00  0.00    -0.330 C  
HETATM    9  C   UNL     1      -8.001  13.555  66.958  1.00  0.00     0.051 C  
HETATM   10  O   UNL     1     -10.325  15.848  64.981  1.00  0.00    -0.508 OA 
HETATM   11  OXT UNL     1     -10.767  17.466  66.487  1.00  0.00    -0.229 OA 
HETATM   12  O   UNL     1      -6.889  13.932  67.244  1.00  0.00    -0.205 OA 
HETATM   13  CA  UNL     1      -8.812  12.253  67.102  1.00  0.00    -0.194 C  
ENDROOT
BRANCH  13  14
HETATM   14  N   UNL     1      -8.749  11.557  68.416  1.00  0.00    -0.158 N  
HETATM   15  H   UNL     1      -8.868  12.082  69.283  1.00  0.00     0.000 HD 
HETATM   16  C   UNL     1      -8.529  10.202  68.449  1.00  0.00    -0.118 C  
HETATM   17  O   UNL     1      -8.409   9.571  67.395  1.00  0.00    -0.123 OA 
BRANCH  16  18
HETATM   18  C   UNL     1      -8.569   9.496  69.844  1.00  0.00    -0.204 C  
HETATM   19  C   UNL     1      -9.964   9.735  70.458  1.00  0.00    -0.258 C  
HETATM   20  N   UNL     1      -7.546  10.151  70.694  1.00  0.00    -0.408 NA 
HETATM   21  C   UNL     1     -11.043   8.997  69.659  1.00  0.00    -0.080 C  
HETATM   22  H1  UNL     1      -7.572   9.690  71.604  1.00  0.00     0.000 HD 
HETATM   23  H2  UNL     1      -7.663  11.162  70.755  1.00  0.00     0.000 HD 
HETATM   24  C   UNL     1     -10.765   7.499  69.593  1.00  0.00    -0.236 C  
HETATM   25  C   UNL     1      -9.357   7.182  69.097  1.00  0.00    -0.141 C  
HETATM   26  C   UNL     1      -8.283   7.983  69.835  1.00  0.00    -0.119 C  
ENDBRANCH  16  18
ENDBRANCH  13  14
TORSDOF 2
ENDMDL
MODEL      100
REMARK 921   NORMALIZED FREE ENERGY PREDICTED BY IDOCK:   -4.24 KCAL/MOL
REMARK 922        TOTAL FREE ENERGY PREDICTED BY IDOCK:   -5.04 KCAL/MOL
REMARK 923 INTER-LIGAND FREE ENERGY PREDICTED BY IDOCK:   -5.12 KCAL/MOL
REMARK 924 INTRA-LIGAND FREE ENERGY PREDICTED BY IDOCK:    0.08 KCAL/MOL
REMARK 927      BINDING AFFINITY PREDICTED BY RF-SCORE:    0.00 PKD
ROOT
HETATM    1  C   UNL     1      -9.471   7.101  68.844  1.00  0.00    -0.142 C  
HETATM    2  S   UNL     1      -7.806   7.461  69.538  1.00  0.00    -0.123 SA 
HETATM    3  C   UNL     1      -8.296   7.147  71.292  1.00  0.00    -0.113 C  
HETATM    4  C   UNL     1      -7.106   6.548  72.048  1.00  0.00    -0.081 C  
HETATM    5  C   UNL     1      -8.595   8.516  71.939  1.00  0.00    -0.254 C  
HETATM    6  CA  UNL     1      -9.561   6.258  71.209  1.00  0.00    -0.174 C  
HETATM    7  N   UNL     1     -10.293   6.653  69.992  1.00  0.00    -0.193 N  
HETATM    8  C   UNL     1      -9.314   4.741  71.135  1.00  0.00    -0.148 C  
HETATM    9  C   UNL     1     -11.062   7.788  69.999  1.00  0.00    -0.175 C  
HETATM   10  O   UNL     1     -10.007   4.122  70.141  1.00  0.00    -0.209 OA 
HETATM   11  OXT UNL     1      -8.637   4.106  71.932  1.00  0.00    -0.102 OA 
HETATM   12  O   UNL     1     -11.781   8.238  70.860  1.00  0.00    -0.280 OA 
HETATM   13  CA  UNL     1     -10.448   8.291  68.678  1.00  0.00    -0.168 C  
ENDROOT
BRANCH  13  14
HETATM   14  N   UNL     1      -9.842   9.650  68.688  1.00  0.00    -0.157 N  
HETATM   15  H   UNL     1      -8.882   9.784  69.007  1.00  0.00     0.000 HD 
HETATM   16  C   UNL     1     -10.588  10.722  68.263  1.00  0.00    -0.200 C  
HETATM   17  O   UNL     1     -11.741  10.548  67.857  1.00  0.00    -0.453 OA 
BRANCH  16  18
HETATM   18  C   UNL     1      -9.880  12.115  68.196  1.00  0.00    -0.207 C  
HETATM   19  C   UNL     1      -9.592  12.430  66.713  1.00  0.00    -0.224 C  
HETATM   20  N   UNL     1      -8.596  11.988  68.924  1.00  0.00    -0.365 NA 
HETATM   21  C   UNL     1     -10.896  12.660  65.942  1.00  0.00    -0.300 C  
HETATM   22  H1  UNL     1      -8.135  12.897  68.881  1.00  0.00     0.000 HD 
HETATM   23  H2  UNL     1      -8.012  11.226  68.578  1.00  0.00     0.000 HD 
HETATM   24  C   UNL     1     -11.716  13.791  66.554  1.00  0.00    -0.412 C  
HETATM   25  C   UNL     1     -11.951  13.606  68.050  1.00  0.00    -0.385 C  
HETATM   26  C   UNL     1     -10.662  13.291  68.810  1.00  0.00    -0.253 C  
ENDBRANCH  16  18
ENDBRANCH  13  14
TORSDOF 2
ENDMDL
MODEL      101
REMARK 921   NORMALIZED FREE ENERGY PREDICTED BY IDOCK:   -4.23 KCAL/MOL
REMARK 922        TOTAL FREE ENERGY PREDICTED BY IDOCK:   -5.03 KCAL/MOL
REMARK 923 INTER-LIGAND FREE ENERGY PREDICTED BY IDOCK:   -5.46 KCAL/MOL
REMARK 924 INTRA-LIGAND FREE ENERGY PREDICTED BY IDOCK:    0.43 KCAL/MOL
REMARK 927      BINDING AFFINITY PREDICTED BY RF-SCORE:    0.00 PKD
ROOT
HETATM    1  C   UNL     1      -9.905  14.094  66.770  1.00  0.00    -0.272 C  
HETATM    2  S   UNL     1     -10.115  12.934  65.358  1.00  0.00    -0.211 SA 
HETATM    3  C   UNL     1     -11.789  13.561  64.887  1.00  0.00    -0.374 C  
HETATM    4  C   UNL     1     -11.953  13.467  63.368  1.00  0.00    -0.406 C  
HETATM    5  C   UNL     1     -12.829  12.607  65.511  1.00  0.00     0.266 C  
HETATM    6  CA  UNL     1     -11.875  14.985  65.491  1.00  0.00    -0.071 C  
HETATM    7  N   UNL     1     -11.094  14.978  66.741  1.00  0.00    -0.328 N  
HETATM    8  C   UNL     1     -11.335  16.124  64.607  1.00  0.00    -0.282 C  
HETATM    9  C   UNL     1     -11.636  14.437  67.878  1.00  0.00    -0.345 C  
HETATM   10  O   UNL     1     -10.481  16.961  65.257  1.00  0.00    -0.638 OA 
HETATM   11  OXT UNL     1     -11.686  16.338  63.456  1.00  0.00    -0.659 OA 
HETATM   12  O   UNL     1     -12.763  14.494  68.309  1.00  0.00     0.300 OA 
HETATM   13  CA  UNL     1     -10.368  13.609  68.167  1.00  0.00    -0.245 C  
ENDROOT
BRANCH  13  14
HETATM   14  N   UNL     1     -10.543  12.140  68.332  1.00  0.00    -0.219 N  
HETATM   15  H   UNL     1     -10.206  11.498  67.615  1.00  0.00     0.000 HD 
HETATM   16  C   UNL     1     -11.161  11.660  69.461  1.00  0.00    -0.164 C  
HETATM   17  O   UNL     1     -11.544  12.443  70.335  1.00  0.00    -0.137 OA 
BRANCH  16  18
HETATM   18  C   UNL     1     -11.234  10.108  69.640  1.00  0.00    -0.261 C  
HETATM   19  C   UNL     1     -11.013   9.458  68.259  1.00  0.00    -0.085 C  
HETATM   20  N   UNL     1     -12.601   9.787  70.116  1.00  0.00    -0.414 NA 
HETATM   21  C   UNL     1      -9.579   9.689  67.772  1.00  0.00    -0.161 C  
HETATM   22  H1  UNL     1     -12.648   8.775  70.233  1.00  0.00     0.000 HD 
HETATM   23  H2  UNL     1     -13.332  10.154  69.507  1.00  0.00     0.000 HD 
HETATM   24  C   UNL     1      -8.557   9.141  68.762  1.00  0.00    -0.131 C  
HETATM   25  C   UNL     1      -8.777   9.654  70.182  1.00  0.00    -0.263 C  
HETATM   26  C   UNL     1     -10.229   9.504  70.639  1.00  0.00    -0.364 C  
ENDBRANCH  16  18
ENDBRANCH  13  14
TORSDOF 2
ENDMDL
MODEL      102
REMARK 921   NORMALIZED FREE ENERGY PREDICTED BY IDOCK:   -4.22 KCAL/MOL
REMARK 922        TOTAL FREE ENERGY PREDICTED BY IDOCK:   -5.02 KCAL/MOL
REMARK 923 INTER-LIGAND FREE ENERGY PREDICTED BY IDOCK:   -4.70 KCAL/MOL
REMARK 924 INTRA-LIGAND FREE ENERGY PREDICTED BY IDOCK:   -0.33 KCAL/MOL
REMARK 927      BINDING AFFINITY PREDICTED BY RF-SCORE:    0.00 PKD
ROOT
HETATM    1  C   UNL     1     -10.500   7.706  69.655  1.00  0.00    -0.235 C  
HETATM    2  S   UNL     1     -11.959   7.080  70.584  1.00  0.00    -0.266 SA 
HETATM    3  C   UNL     1     -11.854   8.355  71.918  1.00  0.00    -0.336 C  
HETATM    4  C   UNL     1     -13.267   8.700  72.397  1.00  0.00    -0.388 C  
HETATM    5  C   UNL     1     -11.120   7.711  73.113  1.00  0.00    -0.373 C  
HETATM    6  CA  UNL     1     -11.043   9.523  71.304  1.00  0.00    -0.379 C  
HETATM    7  N   UNL     1     -10.070   8.933  70.366  1.00  0.00    -0.187 N  
HETATM    8  C   UNL     1     -11.860  10.575  70.532  1.00  0.00    -0.347 C  
HETATM    9  C   UNL     1      -8.923   8.359  70.848  1.00  0.00    -0.160 C  
HETATM   10  O   UNL     1     -11.350  10.868  69.304  1.00  0.00    -0.231 OA 
HETATM   11  OXT UNL     1     -12.825  11.175  70.982  1.00  0.00    -0.359 OA 
HETATM   12  O   UNL     1      -8.197   8.705  71.750  1.00  0.00    -0.164 OA 
HETATM   13  CA  UNL     1      -9.120   7.092  69.994  1.00  0.00    -0.145 C  
ENDROOT
BRANCH  13  14
HETATM   14  N   UNL     1      -9.135   5.788  70.711  1.00  0.00    -0.147 N  
HETATM   15  H   UNL     1     -10.010   5.411  71.076  1.00  0.00     0.000 HD 
HETATM   16  C   UNL     1      -7.959   5.097  70.875  1.00  0.00    -0.097 C  
HETATM   17  O   UNL     1      -6.909   5.549  70.410  1.00  0.00    -0.049 OA 
BRANCH  16  18
HETATM   18  C   UNL     1      -8.036   3.687  71.546  1.00  0.00    -0.065 C  
HETATM   19  C   UNL     1      -7.310   3.766  72.904  1.00  0.00    -0.063 C  
HETATM   20  N   UNL     1      -7.311   2.743  70.662  1.00  0.00    -0.033 NA 
HETATM   21  C   UNL     1      -8.079   4.662  73.881  1.00  0.00    -0.105 C  
HETATM   22  H1  UNL     1      -7.362   1.823  71.099  1.00  0.00     0.000 HD 
HETATM   23  H2  UNL     1      -6.356   3.037  70.459  1.00  0.00     0.000 HD 
HETATM   24  C   UNL     1      -9.505   4.164  74.093  1.00  0.00    -0.121 C  
HETATM   25  C   UNL     1     -10.257   3.954  72.782  1.00  0.00    -0.233 C  
HETATM   26  C   UNL     1      -9.455   3.132  71.772  1.00  0.00    -0.216 C  
ENDBRANCH  16  18
ENDBRANCH  13  14
TORSDOF 2
ENDMDL
MODEL      103
REMARK 921   NORMALIZED FREE ENERGY PREDICTED BY IDOCK:   -4.21 KCAL/MOL
REMARK 922        TOTAL FREE ENERGY PREDICTED BY IDOCK:   -5.01 KCAL/MOL
REMARK 923 INTER-LIGAND FREE ENERGY PREDICTED BY IDOCK:   -4.52 KCAL/MOL
REMARK 924 INTRA-LIGAND FREE ENERGY PREDICTED BY IDOCK:   -0.48 KCAL/MOL
REMARK 927      BINDING AFFINITY PREDICTED BY RF-SCORE:    0.00 PKD
ROOT
HETATM    1  C   UNL     1      -7.853   4.978  68.086  1.00  0.00    -0.087 C  
HETATM    2  S   UNL     1      -9.409   4.070  67.712  1.00  0.00    -0.179 SA 
HETATM    3  C   UNL     1     -10.005   5.290  66.459  1.00  0.00    -0.204 C  
HETATM    4  C   UNL     1     -10.783   4.551  65.366  1.00  0.00    -0.162 C  
HETATM    5  C   UNL     1     -11.007   6.225  67.168  1.00  0.00    -0.453 C  
HETATM    6  CA  UNL     1      -8.738   6.049  65.993  1.00  0.00    -0.152 C  
HETATM    7  N   UNL     1      -7.824   6.124  67.147  1.00  0.00    -0.101 N  
HETATM    8  C   UNL     1      -7.965   5.412  64.824  1.00  0.00    -0.110 C  
HETATM    9  C   UNL     1      -8.046   7.051  68.131  1.00  0.00    -0.119 C  
HETATM   10  O   UNL     1      -6.627   5.305  65.048  1.00  0.00    -0.038 OA 
HETATM   11  OXT UNL     1      -8.459   5.103  63.749  1.00  0.00    -0.130 OA 
HETATM   12  O   UNL     1      -8.416   8.199  68.052  1.00  0.00    -0.130 OA 
HETATM   13  CA  UNL     1      -7.887   6.001  69.248  1.00  0.00    -0.103 C  
ENDROOT
BRANCH  13  14
HETATM   14  N   UNL     1      -9.009   5.867  70.216  1.00  0.00    -0.145 N  
HETATM   15  H   UNL     1      -9.794   5.248  70.011  1.00  0.00     0.000 HD 
HETATM   16  C   UNL     1      -8.977   6.583  71.387  1.00  0.00    -0.140 C  
HETATM   17  O   UNL     1      -8.012   7.312  71.637  1.00  0.00    -0.095 OA 
BRANCH  16  18
HETATM   18  C   UNL     1     -10.126   6.336  72.418  1.00  0.00    -0.177 C  
HETATM   19  C   UNL     1     -10.431   7.676  73.120  1.00  0.00    -0.433 C  
HETATM   20  N   UNL     1      -9.614   5.369  73.419  1.00  0.00    -0.144 NA 
HETATM   21  C   UNL     1     -11.049   8.676  72.137  1.00  0.00    -0.434 C  
HETATM   22  H1  UNL     1     -10.364   5.208  74.092  1.00  0.00     0.000 HD 
HETATM   23  H2  UNL     1      -8.742   5.669  73.856  1.00  0.00     0.000 HD 
HETATM   24  C   UNL     1     -12.326   8.127  71.509  1.00  0.00    -0.335 C  
HETATM   25  C   UNL     1     -12.131   6.747  70.887  1.00  0.00    -0.421 C  
HETATM   26  C   UNL     1     -11.435   5.771  71.837  1.00  0.00    -0.231 C  
ENDBRANCH  16  18
ENDBRANCH  13  14
TORSDOF 2
ENDMDL
MODEL      104
REMARK 921   NORMALIZED FREE ENERGY PREDICTED BY IDOCK:   -4.21 KCAL/MOL
REMARK 922        TOTAL FREE ENERGY PREDICTED BY IDOCK:   -5.00 KCAL/MOL
REMARK 923 INTER-LIGAND FREE ENERGY PREDICTED BY IDOCK:   -4.65 KCAL/MOL
REMARK 924 INTRA-LIGAND FREE ENERGY PREDICTED BY IDOCK:   -0.36 KCAL/MOL
REMARK 927      BINDING AFFINITY PREDICTED BY RF-SCORE:    0.00 PKD
ROOT
HETATM    1  C   UNL     1      -9.703   7.273  69.558  1.00  0.00    -0.158 C  
HETATM    2  S   UNL     1     -11.038   6.122  70.085  1.00  0.00    -0.376 SA 
HETATM    3  C   UNL     1     -10.089   5.425  71.510  1.00  0.00    -0.195 C  
HETATM    4  C   UNL     1     -11.062   5.082  72.643  1.00  0.00    -0.265 C  
HETATM    5  C   UNL     1      -9.462   4.096  71.040  1.00  0.00    -0.233 C  
HETATM    6  CA  UNL     1      -9.012   6.487  71.842  1.00  0.00    -0.137 C  
HETATM    7  N   UNL     1      -8.633   7.136  70.573  1.00  0.00    -0.142 N  
HETATM    8  C   UNL     1      -9.438   7.593  72.824  1.00  0.00    -0.188 C  
HETATM    9  C   UNL     1      -7.775   6.499  69.714  1.00  0.00    -0.113 C  
HETATM   10  O   UNL     1      -9.143   8.849  72.393  1.00  0.00    -0.372 OA 
HETATM   11  OXT UNL     1      -9.916   7.394  73.932  1.00  0.00    -0.301 OA 
HETATM   12  O   UNL     1      -6.788   5.840  69.942  1.00  0.00    -0.059 OA 
HETATM   13  CA  UNL     1      -8.692   6.758  68.503  1.00  0.00    -0.124 C  
ENDROOT
BRANCH  13  14
HETATM   14  N   UNL     1      -9.113   5.573  67.707  1.00  0.00    -0.108 N  
HETATM   15  H   UNL     1      -9.366   4.702  68.175  1.00  0.00     0.000 HD 
HETATM   16  C   UNL     1      -9.157   5.664  66.338  1.00  0.00    -0.147 C  
HETATM   17  O   UNL     1      -8.871   6.728  65.781  1.00  0.00    -0.145 OA 
BRANCH  16  18
HETATM   18  C   UNL     1      -9.699   4.429  65.547  1.00  0.00    -0.200 C  
HETATM   19  C   UNL     1      -9.095   4.469  64.129  1.00  0.00    -0.132 C  
HETATM   20  N   UNL     1     -11.171   4.582  65.452  1.00  0.00    -0.953 NA 
HETATM   21  C   UNL     1      -7.583   4.221  64.175  1.00  0.00    -0.071 C  
HETATM   22  H1  UNL     1     -11.525   3.776  64.937  1.00  0.00     0.000 HD 
HETATM   23  H2  UNL     1     -11.455   5.473  65.045  1.00  0.00     0.000 HD 
HETATM   24  C   UNL     1      -7.255   2.884  64.832  1.00  0.00    -0.062 C  
HETATM   25  C   UNL     1      -7.912   2.722  66.200  1.00  0.00    -0.082 C  
HETATM   26  C   UNL     1      -9.404   3.053  66.174  1.00  0.00    -0.082 C  
ENDBRANCH  16  18
ENDBRANCH  13  14
TORSDOF 2
ENDMDL
MODEL      105
REMARK 921   NORMALIZED FREE ENERGY PREDICTED BY IDOCK:   -4.21 KCAL/MOL
REMARK 922        TOTAL FREE ENERGY PREDICTED BY IDOCK:   -5.00 KCAL/MOL
REMARK 923 INTER-LIGAND FREE ENERGY PREDICTED BY IDOCK:   -4.58 KCAL/MOL
REMARK 924 INTRA-LIGAND FREE ENERGY PREDICTED BY IDOCK:   -0.43 KCAL/MOL
REMARK 927      BINDING AFFINITY PREDICTED BY RF-SCORE:    0.00 PKD
ROOT
HETATM    1  C   UNL     1      -6.890   8.898  68.622  1.00  0.00    -0.063 C  
HETATM    2  S   UNL     1      -7.291   7.450  67.560  1.00  0.00    -0.105 SA 
HETATM    3  C   UNL     1      -8.424   8.387  66.440  1.00  0.00    -0.123 C  
HETATM    4  C   UNL     1      -8.318   7.815  65.023  1.00  0.00    -0.094 C  
HETATM    5  C   UNL     1      -9.867   8.125  66.922  1.00  0.00    -0.316 C  
HETATM    6  CA  UNL     1      -8.022   9.873  66.602  1.00  0.00    -0.113 C  
HETATM    7  N   UNL     1      -7.571  10.055  67.994  1.00  0.00    -0.088 N  
HETATM    8  C   UNL     1      -6.897  10.370  65.676  1.00  0.00    -0.133 C  
HETATM    9  C   UNL     1      -8.496  10.171  68.999  1.00  0.00    -0.151 C  
HETATM   10  O   UNL     1      -5.914  11.048  66.328  1.00  0.00    -0.124 OA 
HETATM   11  OXT UNL     1      -6.899  10.262  64.458  1.00  0.00    -0.127 OA 
HETATM   12  O   UNL     1      -9.556  10.751  69.020  1.00  0.00    -0.197 OA 
HETATM   13  CA  UNL     1      -7.772   9.129  69.874  1.00  0.00    -0.087 C  
ENDROOT
BRANCH  13  14
HETATM   14  N   UNL     1      -8.572   7.966  70.344  1.00  0.00    -0.131 N  
HETATM   15  H   UNL     1      -8.841   7.229  69.692  1.00  0.00     0.000 HD 
HETATM   16  C   UNL     1      -8.944   7.895  71.664  1.00  0.00    -0.138 C  
HETATM   17  O   UNL     1      -8.594   8.779  72.451  1.00  0.00    -0.395 OA 
BRANCH  16  18
HETATM   18  C   UNL     1      -9.698   6.608  72.135  1.00  0.00    -0.153 C  
HETATM   19  C   UNL     1     -10.812   7.040  73.111  1.00  0.00    -0.350 C  
HETATM   20  N   UNL     1      -8.715   5.768  72.860  1.00  0.00    -0.125 NA 
HETATM   21  C   UNL     1     -11.897   7.836  72.379  1.00  0.00    -0.371 C  
HETATM   22  H1  UNL     1      -9.207   4.928  73.167  1.00  0.00     0.000 HD 
HETATM   23  H2  UNL     1      -8.253   6.261  73.623  1.00  0.00     0.000 HD 
HETATM   24  C   UNL     1     -12.506   7.032  71.235  1.00  0.00    -0.430 C  
HETATM   25  C   UNL     1     -11.453   6.474  70.281  1.00  0.00    -0.474 C  
HETATM   26  C   UNL     1     -10.322   5.753  71.016  1.00  0.00    -0.291 C  
ENDBRANCH  16  18
ENDBRANCH  13  14
TORSDOF 2
ENDMDL
MODEL      106
REMARK 921   NORMALIZED FREE ENERGY PREDICTED BY IDOCK:   -4.19 KCAL/MOL
REMARK 922        TOTAL FREE ENERGY PREDICTED BY IDOCK:   -4.98 KCAL/MOL
REMARK 923 INTER-LIGAND FREE ENERGY PREDICTED BY IDOCK:   -4.51 KCAL/MOL
REMARK 924 INTRA-LIGAND FREE ENERGY PREDICTED BY IDOCK:   -0.47 KCAL/MOL
REMARK 927      BINDING AFFINITY PREDICTED BY RF-SCORE:    0.00 PKD
ROOT
HETATM    1  C   UNL     1      -8.502   6.182  70.103  1.00  0.00    -0.133 C  
HETATM    2  S   UNL     1      -8.555   7.455  71.430  1.00  0.00    -0.117 SA 
HETATM    3  C   UNL     1     -10.372   7.294  71.729  1.00  0.00    -0.196 C  
HETATM    4  C   UNL     1     -10.661   7.535  73.213  1.00  0.00    -0.438 C  
HETATM    5  C   UNL     1     -11.069   8.428  70.947  1.00  0.00    -0.289 C  
HETATM    6  CA  UNL     1     -10.753   5.897  71.182  1.00  0.00    -0.265 C  
HETATM    7  N   UNL     1      -9.872   5.622  70.032  1.00  0.00    -0.174 N  
HETATM    8  C   UNL     1     -10.611   4.726  72.171  1.00  0.00    -0.134 C  
HETATM    9  C   UNL     1     -10.141   6.197  68.817  1.00  0.00    -0.169 C  
HETATM   10  O   UNL     1      -9.935   3.661  71.662  1.00  0.00    -0.175 OA 
HETATM   11  OXT UNL     1     -11.121   4.687  73.282  1.00  0.00    -0.273 OA 
HETATM   12  O   UNL     1     -11.196   6.388  68.261  1.00  0.00    -0.309 OA 
HETATM   13  CA  UNL     1      -8.683   6.665  68.643  1.00  0.00    -0.124 C  
ENDROOT
BRANCH  13  14
HETATM   14  N   UNL     1      -8.462   8.115  68.394  1.00  0.00    -0.126 N  
HETATM   15  H   UNL     1      -8.277   8.749  69.172  1.00  0.00     0.000 HD 
HETATM   16  C   UNL     1      -8.511   8.592  67.107  1.00  0.00    -0.118 C  
HETATM   17  O   UNL     1      -8.713   7.814  66.169  1.00  0.00    -0.142 OA 
BRANCH  16  18
HETATM   18  C   UNL     1      -8.176  10.102  66.881  1.00  0.00    -0.122 C  
HETATM   19  C   UNL     1      -8.874  10.555  65.582  1.00  0.00    -0.197 C  
HETATM   20  N   UNL     1      -6.707  10.202  66.704  1.00  0.00    -0.076 NA 
HETATM   21  C   UNL     1     -10.396  10.554  65.754  1.00  0.00    -0.270 C  
HETATM   22  H1  UNL     1      -6.489  11.187  66.557  1.00  0.00     0.000 HD 
HETATM   23  H2  UNL     1      -6.352   9.599  65.963  1.00  0.00     0.000 HD 
HETATM   24  C   UNL     1     -10.830  11.454  66.905  1.00  0.00    -0.335 C  
HETATM   25  C   UNL     1     -10.099  11.139  68.208  1.00  0.00    -0.196 C  
HETATM   26  C   UNL     1      -8.584  11.054  68.021  1.00  0.00    -0.134 C  
ENDBRANCH  16  18
ENDBRANCH  13  14
TORSDOF 2
ENDMDL
MODEL      107
REMARK 921   NORMALIZED FREE ENERGY PREDICTED BY IDOCK:   -4.18 KCAL/MOL
REMARK 922        TOTAL FREE ENERGY PREDICTED BY IDOCK:   -4.97 KCAL/MOL
REMARK 923 INTER-LIGAND FREE ENERGY PREDICTED BY IDOCK:   -4.83 KCAL/MOL
REMARK 924 INTRA-LIGAND FREE ENERGY PREDICTED BY IDOCK:   -0.14 KCAL/MOL
REMARK 927      BINDING AFFINITY PREDICTED BY RF-SCORE:    0.00 PKD
ROOT
HETATM    1  C   UNL     1      -8.205   8.556  67.184  1.00  0.00    -0.108 C  
HETATM    2  S   UNL     1      -8.074   9.294  68.863  1.00  0.00    -0.105 SA 
HETATM    3  C   UNL     1      -8.921   7.892  69.718  1.00  0.00    -0.146 C  
HETATM    4  C   UNL     1      -8.315   7.713  71.113  1.00  0.00    -0.111 C  
HETATM    5  C   UNL     1     -10.396   8.298  69.919  1.00  0.00    -0.218 C  
HETATM    6  CA  UNL     1      -8.780   6.684  68.759  1.00  0.00    -0.128 C  
HETATM    7  N   UNL     1      -8.802   7.214  67.383  1.00  0.00    -0.119 N  
HETATM    8  C   UNL     1      -7.498   5.846  68.917  1.00  0.00    -0.085 C  
HETATM    9  C   UNL     1      -9.997   7.562  66.808  1.00  0.00    -0.237 C  
HETATM   10  O   UNL     1      -6.856   5.605  67.741  1.00  0.00    -0.057 OA 
HETATM   11  OXT UNL     1      -7.114   5.353  69.967  1.00  0.00    -0.058 OA 
HETATM   12  O   UNL     1     -11.078   7.025  66.868  1.00  0.00    -0.359 OA 
HETATM   13  CA  UNL     1      -9.449   8.924  66.338  1.00  0.00    -0.220 C  
ENDROOT
BRANCH  13  14
HETATM   14  N   UNL     1     -10.200  10.137  66.759  1.00  0.00    -0.221 N  
HETATM   15  H   UNL     1     -10.914  10.075  67.485  1.00  0.00     0.000 HD 
HETATM   16  C   UNL     1      -9.921  11.342  66.160  1.00  0.00    -0.228 C  
HETATM   17  O   UNL     1      -9.038  11.412  65.299  1.00  0.00    -0.178 OA 
BRANCH  16  18
HETATM   18  C   UNL     1     -10.661  12.608  66.702  1.00  0.00    -0.253 C  
HETATM   19  C   UNL     1     -10.064  13.845  65.999  1.00  0.00    -0.324 C  
HETATM   20  N   UNL     1     -10.379  12.691  68.155  1.00  0.00    -0.227 NA 
HETATM   21  C   UNL     1     -10.414  13.844  64.507  1.00  0.00    -0.334 C  
HETATM   22  H1  UNL     1     -10.862  13.517  68.508  1.00  0.00     0.000 HD 
HETATM   23  H2  UNL     1      -9.382  12.689  68.369  1.00  0.00     0.000 HD 
HETATM   24  C   UNL     1     -11.922  13.810  64.286  1.00  0.00    -0.481 C  
HETATM   25  C   UNL     1     -12.604  12.673  65.042  1.00  0.00    -0.504 C  
HETATM   26  C   UNL     1     -12.190  12.619  66.513  1.00  0.00    -0.130 C  
ENDBRANCH  16  18
ENDBRANCH  13  14
TORSDOF 2
ENDMDL
MODEL      108
REMARK 921   NORMALIZED FREE ENERGY PREDICTED BY IDOCK:   -4.14 KCAL/MOL
REMARK 922        TOTAL FREE ENERGY PREDICTED BY IDOCK:   -4.92 KCAL/MOL
REMARK 923 INTER-LIGAND FREE ENERGY PREDICTED BY IDOCK:   -4.54 KCAL/MOL
REMARK 924 INTRA-LIGAND FREE ENERGY PREDICTED BY IDOCK:   -0.38 KCAL/MOL
REMARK 927      BINDING AFFINITY PREDICTED BY RF-SCORE:    0.00 PKD
ROOT
HETATM    1  C   UNL     1      -7.996   9.892  67.321  1.00  0.00    -0.109 C  
HETATM    2  S   UNL     1      -9.683  10.342  66.743  1.00  0.00    -0.193 SA 
HETATM    3  C   UNL     1      -9.905  11.714  67.961  1.00  0.00    -0.190 C  
HETATM    4  C   UNL     1     -10.748  12.822  67.324  1.00  0.00    -0.256 C  
HETATM    5  C   UNL     1     -10.723  11.152  69.143  1.00  0.00    -0.262 C  
HETATM    6  CA  UNL     1      -8.472  12.115  68.390  1.00  0.00    -0.145 C  
HETATM    7  N   UNL     1      -7.648  10.893  68.356  1.00  0.00    -0.098 N  
HETATM    8  C   UNL     1      -7.779  13.172  67.511  1.00  0.00    -0.166 C  
HETATM    9  C   UNL     1      -7.727   9.990  69.384  1.00  0.00    -0.129 C  
HETATM   10  O   UNL     1      -6.517  12.827  67.136  1.00  0.00    -0.185 OA 
HETATM   11  OXT UNL     1      -8.252  14.265  67.232  1.00  0.00    -0.190 OA 
HETATM   12  O   UNL     1      -7.827  10.171  70.575  1.00  0.00    -0.195 OA 
HETATM   13  CA  UNL     1      -7.883   8.802  68.416  1.00  0.00    -0.104 C  
ENDROOT
BRANCH  13  14
HETATM   14  N   UNL     1      -9.073   7.928  68.603  1.00  0.00    -0.137 N  
HETATM   15  H   UNL     1      -9.998   8.337  68.732  1.00  0.00     0.000 HD 
HETATM   16  C   UNL     1      -8.912   6.564  68.600  1.00  0.00    -0.126 C  
HETATM   17  O   UNL     1      -7.792   6.076  68.420  1.00  0.00    -0.103 OA 
BRANCH  16  18
HETATM   18  C   UNL     1     -10.200   5.683  68.700  1.00  0.00    -0.200 C  
HETATM   19  C   UNL     1      -9.828   4.380  69.438  1.00  0.00    -0.239 C  
HETATM   20  N   UNL     1     -10.613   5.355  67.314  1.00  0.00    -0.214 NA 
HETATM   21  C   UNL     1      -9.483   4.665  70.903  1.00  0.00    -0.233 C  
HETATM   22  H1  UNL     1     -11.454   4.781  67.380  1.00  0.00     0.000 HD 
HETATM   23  H2  UNL     1      -9.871   4.918  66.768  1.00  0.00     0.000 HD 
HETATM   24  C   UNL     1     -10.636   5.350  71.628  1.00  0.00    -0.284 C  
HETATM   25  C   UNL     1     -11.136   6.594  70.897  1.00  0.00    -0.335 C  
HETATM   26  C   UNL     1     -11.399   6.333  69.413  1.00  0.00    -0.448 C  
ENDBRANCH  16  18
ENDBRANCH  13  14
TORSDOF 2
ENDMDL
MODEL      109
REMARK 921   NORMALIZED FREE ENERGY PREDICTED BY IDOCK:   -4.13 KCAL/MOL
REMARK 922        TOTAL FREE ENERGY PREDICTED BY IDOCK:   -4.92 KCAL/MOL
REMARK 923 INTER-LIGAND FREE ENERGY PREDICTED BY IDOCK:   -4.46 KCAL/MOL
REMARK 924 INTRA-LIGAND FREE ENERGY PREDICTED BY IDOCK:   -0.46 KCAL/MOL
REMARK 927      BINDING AFFINITY PREDICTED BY RF-SCORE:    0.00 PKD
ROOT
HETATM    1  C   UNL     1     -10.321   9.364  69.658  1.00  0.00    -0.216 C  
HETATM    2  S   UNL     1      -8.522   9.638  69.927  1.00  0.00    -0.210 SA 
HETATM    3  C   UNL     1      -7.996   8.735  68.403  1.00  0.00    -0.109 C  
HETATM    4  C   UNL     1      -6.739   9.398  67.833  1.00  0.00    -0.067 C  
HETATM    5  C   UNL     1      -7.596   7.307  68.829  1.00  0.00    -0.104 C  
HETATM    6  CA  UNL     1      -9.239   8.735  67.479  1.00  0.00    -0.136 C  
HETATM    7  N   UNL     1     -10.429   8.680  68.348  1.00  0.00    -0.203 N  
HETATM    8  C   UNL     1      -9.390   9.957  66.555  1.00  0.00    -0.164 C  
HETATM    9  C   UNL     1     -10.811   7.486  68.902  1.00  0.00    -0.037 C  
HETATM   10  O   UNL     1     -10.630  10.517  66.589  1.00  0.00    -0.241 OA 
HETATM   11  OXT UNL     1      -8.530  10.358  65.785  1.00  0.00    -0.153 OA 
HETATM   12  O   UNL     1     -10.815   6.373  68.432  1.00  0.00    -0.258 OA 
HETATM   13  CA  UNL     1     -10.956   8.109  70.305  1.00  0.00    -0.240 C  
ENDROOT
BRANCH  13  14
HETATM   14  N   UNL     1     -10.188   7.474  71.410  1.00  0.00    -0.187 N  
HETATM   15  H   UNL     1      -9.208   7.715  71.560  1.00  0.00     0.000 HD 
HETATM   16  C   UNL     1     -10.812   6.561  72.225  1.00  0.00    -0.232 C  
HETATM   17  O   UNL     1     -12.004   6.293  72.050  1.00  0.00    -0.330 OA 
BRANCH  16  18
HETATM   18  C   UNL     1      -9.997   5.994  73.433  1.00  0.00    -0.182 C  
HETATM   19  C   UNL     1     -10.622   4.642  73.835  1.00  0.00    -0.337 C  
HETATM   20  N   UNL     1     -10.153   6.953  74.553  1.00  0.00    -0.468 NA 
HETATM   21  C   UNL     1     -10.402   3.594  72.739  1.00  0.00    -0.239 C  
HETATM   22  H1  UNL     1      -9.621   6.583  75.341  1.00  0.00     0.000 HD 
HETATM   23  H2  UNL     1     -11.127   7.145  74.783  1.00  0.00     0.000 HD 
HETATM   24  C   UNL     1      -8.919   3.402  72.439  1.00  0.00    -0.123 C  
HETATM   25  C   UNL     1      -8.203   4.715  72.138  1.00  0.00    -0.110 C  
HETATM   26  C   UNL     1      -8.491   5.791  73.186  1.00  0.00    -0.117 C  
ENDBRANCH  16  18
ENDBRANCH  13  14
TORSDOF 2
ENDMDL
MODEL      110
REMARK 921   NORMALIZED FREE ENERGY PREDICTED BY IDOCK:   -4.11 KCAL/MOL
REMARK 922        TOTAL FREE ENERGY PREDICTED BY IDOCK:   -4.90 KCAL/MOL
REMARK 923 INTER-LIGAND FREE ENERGY PREDICTED BY IDOCK:   -4.56 KCAL/MOL
REMARK 924 INTRA-LIGAND FREE ENERGY PREDICTED BY IDOCK:   -0.34 KCAL/MOL
REMARK 927      BINDING AFFINITY PREDICTED BY RF-SCORE:    0.00 PKD
ROOT
HETATM    1  C   UNL     1      -7.330  14.905  67.384  1.00  0.00    -0.193 C  
HETATM    2  S   UNL     1      -9.095  15.387  67.189  1.00  0.00    -0.233 SA 
HETATM    3  C   UNL     1      -9.093  16.568  68.610  1.00  0.00    -0.239 C  
HETATM    4  C   UNL     1     -10.039  17.732  68.299  1.00  0.00    -0.371 C  
HETATM    5  C   UNL     1      -9.682  15.824  69.827  1.00  0.00    -0.187 C  
HETATM    6  CA  UNL     1      -7.606  16.943  68.827  1.00  0.00    -0.243 C  
HETATM    7  N   UNL     1      -6.801  15.760  68.472  1.00  0.00    -0.116 N  
HETATM    8  C   UNL     1      -7.085  18.131  67.999  1.00  0.00    -0.222 C  
HETATM    9  C   UNL     1      -6.692  14.720  69.358  1.00  0.00    -0.149 C  
HETATM   10  O   UNL     1      -5.912  17.876  67.358  1.00  0.00    -0.143 OA 
HETATM   11  OXT UNL     1      -7.601  19.239  67.968  1.00  0.00    -0.267 OA 
HETATM   12  O   UNL     1      -6.575  14.729  70.561  1.00  0.00    -0.132 OA 
HETATM   13  CA  UNL     1      -7.021  13.676  68.274  1.00  0.00    -0.109 C  
ENDROOT
BRANCH  13  14
HETATM   14  N   UNL     1      -8.156  12.753  68.545  1.00  0.00    -0.275 N  
HETATM   15  H   UNL     1      -8.968  13.075  69.071  1.00  0.00     0.000 HD 
HETATM   16  C   UNL     1      -8.099  11.462  68.079  1.00  0.00    -0.134 C  
HETATM   17  O   UNL     1      -7.123  11.086  67.422  1.00  0.00    -0.087 OA 
BRANCH  16  18
HETATM   18  C   UNL     1      -9.355  10.557  68.299  1.00  0.00    -0.156 C  
HETATM   19  C   UNL     1     -10.595  11.472  68.362  1.00  0.00    -0.227 C  
HETATM   20  N   UNL     1      -9.182   9.882  69.608  1.00  0.00    -0.217 NA 
HETATM   21  C   UNL     1     -10.863  12.119  66.999  1.00  0.00    -0.289 C  
HETATM   22  H1  UNL     1     -10.001   9.291  69.751  1.00  0.00     0.000 HD 
HETATM   23  H2  UNL     1      -9.019  10.533  70.375  1.00  0.00     0.000 HD 
HETATM   24  C   UNL     1     -11.058  11.070  65.910  1.00  0.00    -0.038 C  
HETATM   25  C   UNL     1      -9.918  10.056  65.857  1.00  0.00    -0.339 C  
HETATM   26  C   UNL     1      -9.591   9.472  67.232  1.00  0.00    -0.192 C  
ENDBRANCH  16  18
ENDBRANCH  13  14
TORSDOF 2
ENDMDL
MODEL      111
REMARK 921   NORMALIZED FREE ENERGY PREDICTED BY IDOCK:   -4.01 KCAL/MOL
REMARK 922        TOTAL FREE ENERGY PREDICTED BY IDOCK:   -4.78 KCAL/MOL
REMARK 923 INTER-LIGAND FREE ENERGY PREDICTED BY IDOCK:   -4.35 KCAL/MOL
REMARK 924 INTRA-LIGAND FREE ENERGY PREDICTED BY IDOCK:   -0.44 KCAL/MOL
REMARK 927      BINDING AFFINITY PREDICTED BY RF-SCORE:    0.00 PKD
ROOT
HETATM    1  C   UNL     1     -10.222   7.982  68.464  1.00  0.00    -0.207 C  
HETATM    2  S   UNL     1      -8.412   8.072  68.779  1.00  0.00    -0.127 SA 
HETATM    3  C   UNL     1      -7.929   7.570  67.067  1.00  0.00    -0.116 C  
HETATM    4  C   UNL     1      -6.632   8.286  66.679  1.00  0.00    -0.056 C  
HETATM    5  C   UNL     1      -7.614   6.060  67.102  1.00  0.00    -0.092 C  
HETATM    6  CA  UNL     1      -9.165   7.882  66.187  1.00  0.00    -0.152 C  
HETATM    7  N   UNL     1     -10.361   7.670  67.022  1.00  0.00    -0.305 N  
HETATM    8  C   UNL     1      -9.239   9.310  65.615  1.00  0.00    -0.231 C  
HETATM    9  C   UNL     1     -10.815   6.397  67.249  1.00  0.00    -0.385 C  
HETATM   10  O   UNL     1     -10.445   9.911  65.805  1.00  0.00    -0.156 OA 
HETATM   11  OXT UNL     1      -8.352   9.848  64.969  1.00  0.00    -0.132 OA 
HETATM   12  O   UNL     1     -10.880   5.448  66.504  1.00  0.00    -0.287 OA 
HETATM   13  CA  UNL     1     -10.933   6.639  68.766  1.00  0.00    -0.260 C  
ENDROOT
BRANCH  13  14
HETATM   14  N   UNL     1     -10.209   5.695  69.660  1.00  0.00    -0.226 N  
HETATM   15  H   UNL     1      -9.393   5.187  69.320  1.00  0.00     0.000 HD 
HETATM   16  C   UNL     1     -10.652   5.515  70.948  1.00  0.00    -0.239 C  
HETATM   17  O   UNL     1     -11.627   6.152  71.358  1.00  0.00    -0.289 OA 
BRANCH  16  18
HETATM   18  C   UNL     1      -9.805   4.591  71.882  1.00  0.00    -0.182 C  
HETATM   19  C   UNL     1      -8.329   5.024  71.767  1.00  0.00    -0.116 C  
HETATM   20  N   UNL     1      -9.946   3.206  71.372  1.00  0.00    -0.110 NA 
HETATM   21  C   UNL     1      -8.123   6.418  72.370  1.00  0.00    -0.103 C  
HETATM   22  H1  UNL     1      -9.394   2.604  71.982  1.00  0.00     0.000 HD 
HETATM   23  H2  UNL     1      -9.697   3.116  70.387  1.00  0.00     0.000 HD 
HETATM   24  C   UNL     1      -8.556   6.466  73.831  1.00  0.00    -0.131 C  
HETATM   25  C   UNL     1      -9.975   5.947  74.043  1.00  0.00    -0.227 C  
HETATM   26  C   UNL     1     -10.209   4.594  73.368  1.00  0.00    -0.217 C  
ENDBRANCH  16  18
ENDBRANCH  13  14
TORSDOF 2
ENDMDL
MODEL      112
REMARK 921   NORMALIZED FREE ENERGY PREDICTED BY IDOCK:   -4.00 KCAL/MOL
REMARK 922        TOTAL FREE ENERGY PREDICTED BY IDOCK:   -4.77 KCAL/MOL
REMARK 923 INTER-LIGAND FREE ENERGY PREDICTED BY IDOCK:   -4.54 KCAL/MOL
REMARK 924 INTRA-LIGAND FREE ENERGY PREDICTED BY IDOCK:   -0.23 KCAL/MOL
REMARK 927      BINDING AFFINITY PREDICTED BY RF-SCORE:    0.00 PKD
ROOT
HETATM    1  C   UNL     1      -9.793  15.141  69.760  1.00  0.00    -0.105 C  
HETATM    2  S   UNL     1      -8.195  14.932  68.873  1.00  0.00    -0.168 SA 
HETATM    3  C   UNL     1      -8.646  16.051  67.473  1.00  0.00    -0.178 C  
HETATM    4  C   UNL     1      -7.390  16.777  66.983  1.00  0.00    -0.238 C  
HETATM    5  C   UNL     1      -9.131  15.160  66.309  1.00  0.00    -0.313 C  
HETATM    6  CA  UNL     1      -9.780  16.953  68.020  1.00  0.00    -0.256 C  
HETATM    7  N   UNL     1     -10.553  16.147  68.982  1.00  0.00    -0.253 N  
HETATM    8  C   UNL     1      -9.329  18.237  68.739  1.00  0.00    -0.255 C  
HETATM    9  C   UNL     1     -11.468  15.235  68.525  1.00  0.00    -0.342 C  
HETATM   10  O   UNL     1      -9.928  18.425  69.947  1.00  0.00     0.406 OA 
HETATM   11  OXT UNL     1      -8.576  19.074  68.263  1.00  0.00    -0.306 OA 
HETATM   12  O   UNL     1     -12.245  15.305  67.602  1.00  0.00     0.077 OA 
HETATM   13  CA  UNL     1     -10.922  14.127  69.446  1.00  0.00    -0.179 C  
ENDROOT
BRANCH  13  14
HETATM   14  N   UNL     1     -10.505  12.853  68.800  1.00  0.00    -0.386 N  
HETATM   15  H   UNL     1      -9.713  12.837  68.156  1.00  0.00     0.000 HD 
HETATM   16  C   UNL     1     -11.197  11.700  69.078  1.00  0.00    -0.262 C  
HETATM   17  O   UNL     1     -12.139  11.724  69.876  1.00  0.00    -0.305 OA 
BRANCH  16  18
HETATM   18  C   UNL     1     -10.664  10.368  68.456  1.00  0.00    -0.221 C  
HETATM   19  C   UNL     1      -9.210  10.606  67.998  1.00  0.00    -0.148 C  
HETATM   20  N   UNL     1     -11.504  10.074  67.270  1.00  0.00    -0.253 NA 
HETATM   21  C   UNL     1      -8.290  10.823  69.203  1.00  0.00    -0.111 C  
HETATM   22  H1  UNL     1     -11.157   9.205  66.864  1.00  0.00     0.000 HD 
HETATM   23  H2  UNL     1     -11.536  10.843  66.601  1.00  0.00     0.000 HD 
HETATM   24  C   UNL     1      -8.335   9.640  70.164  1.00  0.00    -0.221 C  
HETATM   25  C   UNL     1      -9.757   9.271  70.578  1.00  0.00    -0.316 C  
HETATM   26  C   UNL     1     -10.699   9.138  69.381  1.00  0.00    -0.210 C  
ENDBRANCH  16  18
ENDBRANCH  13  14
TORSDOF 2
ENDMDL
MODEL      113
REMARK 921   NORMALIZED FREE ENERGY PREDICTED BY IDOCK:   -3.94 KCAL/MOL
REMARK 922        TOTAL FREE ENERGY PREDICTED BY IDOCK:   -4.71 KCAL/MOL
REMARK 923 INTER-LIGAND FREE ENERGY PREDICTED BY IDOCK:   -4.28 KCAL/MOL
REMARK 924 INTRA-LIGAND FREE ENERGY PREDICTED BY IDOCK:   -0.42 KCAL/MOL
REMARK 927      BINDING AFFINITY PREDICTED BY RF-SCORE:    0.00 PKD
ROOT
HETATM    1  C   UNL     1     -11.189   6.787  69.006  1.00  0.00    -0.149 C  
HETATM    2  S   UNL     1     -10.045   5.353  69.152  1.00  0.00    -0.231 SA 
HETATM    3  C   UNL     1      -9.387   5.847  70.807  1.00  0.00    -0.160 C  
HETATM    4  C   UNL     1      -9.067   4.588  71.618  1.00  0.00    -0.171 C  
HETATM    5  C   UNL     1      -8.050   6.580  70.570  1.00  0.00    -0.117 C  
HETATM    6  CA  UNL     1     -10.461   6.786  71.410  1.00  0.00    -0.215 C  
HETATM    7  N   UNL     1     -11.080   7.517  70.290  1.00  0.00    -0.258 N  
HETATM    8  C   UNL     1     -11.588   6.097  72.201  1.00  0.00    -0.317 C  
HETATM    9  C   UNL     1     -10.427   8.585  69.731  1.00  0.00    -0.220 C  
HETATM   10  O   UNL     1     -12.835   6.509  71.843  1.00  0.00    -0.301 OA 
HETATM   11  OXT UNL     1     -11.414   5.319  73.128  1.00  0.00    -0.310 OA 
HETATM   12  O   UNL     1      -9.778   9.461  70.251  1.00  0.00    -0.212 OA 
HETATM   13  CA  UNL     1     -10.653   8.058  68.301  1.00  0.00    -0.101 C  
ENDROOT
BRANCH  13  14
HETATM   14  N   UNL     1      -9.448   7.881  67.446  1.00  0.00    -0.140 N  
HETATM   15  H   UNL     1      -8.764   7.156  67.663  1.00  0.00     0.000 HD 
HETATM   16  C   UNL     1      -9.265   8.705  66.362  1.00  0.00    -0.193 C  
HETATM   17  O   UNL     1     -10.109   9.564  66.093  1.00  0.00    -0.284 OA 
BRANCH  16  18
HETATM   18  C   UNL     1      -8.039   8.420  65.435  1.00  0.00    -0.133 C  
HETATM   19  C   UNL     1      -7.472   9.776  64.966  1.00  0.00    -0.127 C  
HETATM   20  N   UNL     1      -8.544   7.672  64.259  1.00  0.00    -0.348 NA 
HETATM   21  C   UNL     1      -6.856  10.543  66.141  1.00  0.00    -0.131 C  
HETATM   22  H1  UNL     1      -7.744   7.486  63.655  1.00  0.00     0.000 HD 
HETATM   23  H2  UNL     1      -9.306   8.150  63.778  1.00  0.00     0.000 HD 
HETATM   24  C   UNL     1      -5.753   9.737  66.819  1.00  0.00    -0.050 C  
HETATM   25  C   UNL     1      -6.206   8.335  67.215  1.00  0.00    -0.056 C  
HETATM   26  C   UNL     1      -6.900   7.599  66.068  1.00  0.00    -0.061 C  
ENDBRANCH  16  18
ENDBRANCH  13  14
TORSDOF 2
ENDMDL
MODEL      114
REMARK 921   NORMALIZED FREE ENERGY PREDICTED BY IDOCK:   -3.92 KCAL/MOL
REMARK 922        TOTAL FREE ENERGY PREDICTED BY IDOCK:   -4.69 KCAL/MOL
REMARK 923 INTER-LIGAND FREE ENERGY PREDICTED BY IDOCK:   -4.92 KCAL/MOL
REMARK 924 INTRA-LIGAND FREE ENERGY PREDICTED BY IDOCK:    0.24 KCAL/MOL
REMARK 927      BINDING AFFINITY PREDICTED BY RF-SCORE:    0.00 PKD
ROOT
HETATM    1  C   UNL     1      -9.454  14.851  68.709  1.00  0.00    -0.214 C  
HETATM    2  S   UNL     1     -10.435  16.132  67.825  1.00  0.00    -0.301 SA 
HETATM    3  C   UNL     1      -9.801  15.684  66.148  1.00  0.00    -0.314 C  
HETATM    4  C   UNL     1     -10.909  15.911  65.114  1.00  0.00    -0.438 C  
HETATM    5  C   UNL     1      -8.663  16.669  65.808  1.00  0.00     0.105 C  
HETATM    6  CA  UNL     1      -9.287  14.230  66.280  1.00  0.00    -0.208 C  
HETATM    7  N   UNL     1      -8.767  14.074  67.651  1.00  0.00    -0.177 N  
HETATM    8  C   UNL     1     -10.331  13.123  66.046  1.00  0.00    -0.287 C  
HETATM    9  C   UNL     1      -7.528  14.566  67.968  1.00  0.00    -0.137 C  
HETATM   10  O   UNL     1     -10.342  12.170  67.017  1.00  0.00    -0.210 OA 
HETATM   11  OXT UNL     1     -11.035  13.030  65.051  1.00  0.00    -0.284 OA 
HETATM   12  O   UNL     1      -6.502  14.569  67.329  1.00  0.00    -0.298 OA 
HETATM   13  CA  UNL     1      -8.057  15.261  69.238  1.00  0.00    -0.236 C  
ENDROOT
BRANCH  13  14
HETATM   14  N   UNL     1      -7.802  16.721  69.367  1.00  0.00    -0.034 N  
HETATM   15  H   UNL     1      -8.577  17.369  69.505  1.00  0.00     0.000 HD 
HETATM   16  C   UNL     1      -6.511  17.187  69.298  1.00  0.00    -0.235 C  
HETATM   17  O   UNL     1      -5.577  16.393  69.153  1.00  0.00    -0.119 OA 
BRANCH  16  18
HETATM   18  C   UNL     1      -6.280  18.714  69.537  1.00  0.00    -0.263 C  
HETATM   19  C   UNL     1      -5.214  19.197  68.532  1.00  0.00    -0.190 C  
HETATM   20  N   UNL     1      -5.751  18.865  70.915  1.00  0.00    -0.139 NA 
HETATM   21  C   UNL     1      -5.755  19.144  67.099  1.00  0.00    -0.170 C  
HETATM   22  H1  UNL     1      -5.601  19.862  71.071  1.00  0.00     0.000 HD 
HETATM   23  H2  UNL     1      -4.918  18.303  71.087  1.00  0.00     0.000 HD 
HETATM   24  C   UNL     1      -7.018  19.984  66.946  1.00  0.00    -0.250 C  
HETATM   25  C   UNL     1      -8.085  19.640  67.982  1.00  0.00    -0.344 C  
HETATM   26  C   UNL     1      -7.527  19.608  69.406  1.00  0.00    -0.181 C  
ENDBRANCH  16  18
ENDBRANCH  13  14
TORSDOF 2
ENDMDL
MODEL      115
REMARK 921   NORMALIZED FREE ENERGY PREDICTED BY IDOCK:   -3.89 KCAL/MOL
REMARK 922        TOTAL FREE ENERGY PREDICTED BY IDOCK:   -4.65 KCAL/MOL
REMARK 923 INTER-LIGAND FREE ENERGY PREDICTED BY IDOCK:   -4.37 KCAL/MOL
REMARK 924 INTRA-LIGAND FREE ENERGY PREDICTED BY IDOCK:   -0.28 KCAL/MOL
REMARK 927      BINDING AFFINITY PREDICTED BY RF-SCORE:    0.00 PKD
ROOT
HETATM    1  C   UNL     1      -7.908   9.912  67.210  1.00  0.00    -0.102 C  
HETATM    2  S   UNL     1      -9.581  10.380  66.604  1.00  0.00    -0.183 SA 
HETATM    3  C   UNL     1      -9.826  11.727  67.845  1.00  0.00    -0.183 C  
HETATM    4  C   UNL     1     -10.652  12.851  67.211  1.00  0.00    -0.243 C  
HETATM    5  C   UNL     1     -10.672  11.143  68.996  1.00  0.00    -0.265 C  
HETATM    6  CA  UNL     1      -8.402  12.115  68.313  1.00  0.00    -0.172 C  
HETATM    7  N   UNL     1      -7.581  10.891  68.273  1.00  0.00    -0.095 N  
HETATM    8  C   UNL     1      -7.687  13.187  67.473  1.00  0.00    -0.166 C  
HETATM    9  C   UNL     1      -7.686   9.968  69.280  1.00  0.00    -0.117 C  
HETATM   10  O   UNL     1      -6.417  12.846  67.119  1.00  0.00    -0.210 OA 
HETATM   11  OXT UNL     1      -8.150  14.287  67.206  1.00  0.00    -0.188 OA 
HETATM   12  O   UNL     1      -7.813  10.124  70.472  1.00  0.00    -0.195 OA 
HETATM   13  CA  UNL     1      -7.824   8.800  68.284  1.00  0.00    -0.101 C  
ENDROOT
BRANCH  13  14
HETATM   14  N   UNL     1      -9.019   7.926  68.426  1.00  0.00    -0.133 N  
HETATM   15  H   UNL     1      -9.911   8.202  68.014  1.00  0.00     0.000 HD 
HETATM   16  C   UNL     1      -8.910   6.744  69.117  1.00  0.00    -0.134 C  
HETATM   17  O   UNL     1      -7.822   6.406  69.592  1.00  0.00    -0.103 OA 
BRANCH  16  18
HETATM   18  C   UNL     1     -10.164   5.810  69.157  1.00  0.00    -0.223 C  
HETATM   19  C   UNL     1     -11.029   6.123  67.919  1.00  0.00    -0.399 C  
HETATM   20  N   UNL     1     -10.926   6.154  70.381  1.00  0.00    -0.312 NA 
HETATM   21  C   UNL     1     -10.312   5.696  66.633  1.00  0.00    -0.311 C  
HETATM   22  H1  UNL     1     -11.743   5.545  70.407  1.00  0.00     0.000 HD 
HETATM   23  H2  UNL     1     -11.163   7.144  70.440  1.00  0.00     0.000 HD 
HETATM   24  C   UNL     1      -9.967   4.211  66.652  1.00  0.00    -0.151 C  
HETATM   25  C   UNL     1      -9.202   3.799  67.906  1.00  0.00    -0.218 C  
HETATM   26  C   UNL     1      -9.870   4.299  69.188  1.00  0.00    -0.163 C  
ENDBRANCH  16  18
ENDBRANCH  13  14
TORSDOF 2
ENDMDL
MODEL      116
REMARK 921   NORMALIZED FREE ENERGY PREDICTED BY IDOCK:   -3.89 KCAL/MOL
REMARK 922        TOTAL FREE ENERGY PREDICTED BY IDOCK:   -4.64 KCAL/MOL
REMARK 923 INTER-LIGAND FREE ENERGY PREDICTED BY IDOCK:   -4.50 KCAL/MOL
REMARK 924 INTRA-LIGAND FREE ENERGY PREDICTED BY IDOCK:   -0.15 KCAL/MOL
REMARK 927      BINDING AFFINITY PREDICTED BY RF-SCORE:    0.00 PKD
ROOT
HETATM    1  C   UNL     1     -10.548   9.450  69.164  1.00  0.00    -0.218 C  
HETATM    2  S   UNL     1      -8.889  10.192  69.453  1.00  0.00    -0.170 SA 
HETATM    3  C   UNL     1      -8.431  10.252  67.664  1.00  0.00    -0.118 C  
HETATM    4  C   UNL     1      -7.556  11.483  67.409  1.00  0.00    -0.135 C  
HETATM    5  C   UNL     1      -7.558   9.014  67.370  1.00  0.00    -0.088 C  
HETATM    6  CA  UNL     1      -9.775  10.206  66.896  1.00  0.00    -0.187 C  
HETATM    7  N   UNL     1     -10.705   9.384  67.692  1.00  0.00    -0.268 N  
HETATM    8  C   UNL     1     -10.451  11.566  66.642  1.00  0.00    -0.238 C  
HETATM    9  C   UNL     1     -10.609   8.018  67.653  1.00  0.00    -0.194 C  
HETATM   10  O   UNL     1     -11.769  11.591  66.982  1.00  0.00    -0.556 OA 
HETATM   11  OXT UNL     1      -9.911  12.523  66.106  1.00  0.00    -0.246 OA 
HETATM   12  O   UNL     1     -10.380   7.278  66.725  1.00  0.00    -0.269 OA 
HETATM   13  CA  UNL     1     -10.652   7.905  69.190  1.00  0.00    -0.173 C  
ENDROOT
BRANCH  13  14
HETATM   14  N   UNL     1      -9.534   7.177  69.847  1.00  0.00    -0.154 N  
HETATM   15  H   UNL     1      -8.692   7.677  70.134  1.00  0.00     0.000 HD 
HETATM   16  C   UNL     1      -9.646   5.826  70.063  1.00  0.00    -0.164 C  
HETATM   17  O   UNL     1     -10.677   5.232  69.734  1.00  0.00    -0.286 OA 
BRANCH  16  18
HETATM   18  C   UNL     1      -8.490   5.120  70.845  1.00  0.00    -0.119 C  
HETATM   19  C   UNL     1      -8.698   5.394  72.349  1.00  0.00    -0.125 C  
HETATM   20  N   UNL     1      -7.220   5.746  70.408  1.00  0.00    -0.069 NA 
HETATM   21  C   UNL     1      -9.955   4.685  72.863  1.00  0.00    -0.194 C  
HETATM   22  H1  UNL     1      -6.466   5.285  70.918  1.00  0.00     0.000 HD 
HETATM   23  H2  UNL     1      -7.215   6.760  70.518  1.00  0.00     0.000 HD 
HETATM   24  C   UNL     1      -9.887   3.180  72.624  1.00  0.00    -0.208 C  
HETATM   25  C   UNL     1      -9.574   2.828  71.173  1.00  0.00    -0.224 C  
HETATM   26  C   UNL     1      -8.370   3.599  70.630  1.00  0.00    -0.092 C  
ENDBRANCH  16  18
ENDBRANCH  13  14
TORSDOF 2
ENDMDL
MODEL      117
REMARK 921   NORMALIZED FREE ENERGY PREDICTED BY IDOCK:   -3.87 KCAL/MOL
REMARK 922        TOTAL FREE ENERGY PREDICTED BY IDOCK:   -4.63 KCAL/MOL
REMARK 923 INTER-LIGAND FREE ENERGY PREDICTED BY IDOCK:   -4.22 KCAL/MOL
REMARK 924 INTRA-LIGAND FREE ENERGY PREDICTED BY IDOCK:   -0.41 KCAL/MOL
REMARK 927      BINDING AFFINITY PREDICTED BY RF-SCORE:    0.00 PKD
ROOT
HETATM    1  C   UNL     1      -9.333   8.977  66.479  1.00  0.00    -0.191 C  
HETATM    2  S   UNL     1      -9.090   9.480  64.726  1.00  0.00    -0.187 SA 
HETATM    3  C   UNL     1      -7.310   8.987  64.667  1.00  0.00    -0.098 C  
HETATM    4  C   UNL     1      -6.974   8.480  63.262  1.00  0.00    -0.089 C  
HETATM    5  C   UNL     1      -6.471  10.263  64.896  1.00  0.00    -0.113 C  
HETATM    6  CA  UNL     1      -7.131   7.965  65.817  1.00  0.00    -0.060 C  
HETATM    7  N   UNL     1      -8.054   8.356  66.897  1.00  0.00    -0.099 N  
HETATM    8  C   UNL     1      -7.422   6.496  65.461  1.00  0.00    -0.083 C  
HETATM    9  C   UNL     1      -7.722   9.390  67.734  1.00  0.00    -0.088 C  
HETATM   10  O   UNL     1      -8.245   5.873  66.348  1.00  0.00    -0.108 OA 
HETATM   11  OXT UNL     1      -6.911   5.890  64.530  1.00  0.00    -0.048 OA 
HETATM   12  O   UNL     1      -6.656   9.691  68.218  1.00  0.00    -0.056 OA 
HETATM   13  CA  UNL     1      -9.103  10.054  67.569  1.00  0.00    -0.134 C  
ENDROOT
BRANCH  13  14
HETATM   14  N   UNL     1      -9.123  11.470  67.113  1.00  0.00    -0.164 N  
HETATM   15  H   UNL     1      -8.271  11.913  66.771  1.00  0.00     0.000 HD 
HETATM   16  C   UNL     1     -10.302  12.174  67.159  1.00  0.00    -0.214 C  
HETATM   17  O   UNL     1     -11.334  11.623  67.553  1.00  0.00    -0.270 OA 
BRANCH  16  18
HETATM   18  C   UNL     1     -10.300  13.626  66.579  1.00  0.00    -0.282 C  
HETATM   19  C   UNL     1      -9.586  13.591  65.212  1.00  0.00     0.131 C  
HETATM   20  N   UNL     1      -9.517  14.470  67.514  1.00  0.00    -0.200 NA 
HETATM   21  C   UNL     1     -10.412  12.804  64.188  1.00  0.00    -0.437 C  
HETATM   22  H1  UNL     1      -9.517  15.417  67.135  1.00  0.00     0.000 HD 
HETATM   23  H2  UNL     1      -8.580  14.109  67.689  1.00  0.00     0.000 HD 
HETATM   24  C   UNL     1     -11.807  13.395  64.020  1.00  0.00    -0.498 C  
HETATM   25  C   UNL     1     -12.539  13.565  65.348  1.00  0.00    -0.531 C  
HETATM   26  C   UNL     1     -11.685  14.275  66.400  1.00  0.00    -0.403 C  
ENDBRANCH  16  18
ENDBRANCH  13  14
TORSDOF 2
ENDMDL
MODEL      118
REMARK 921   NORMALIZED FREE ENERGY PREDICTED BY IDOCK:   -3.87 KCAL/MOL
REMARK 922        TOTAL FREE ENERGY PREDICTED BY IDOCK:   -4.62 KCAL/MOL
REMARK 923 INTER-LIGAND FREE ENERGY PREDICTED BY IDOCK:   -4.45 KCAL/MOL
REMARK 924 INTRA-LIGAND FREE ENERGY PREDICTED BY IDOCK:   -0.17 KCAL/MOL
REMARK 927      BINDING AFFINITY PREDICTED BY RF-SCORE:    0.00 PKD
ROOT
HETATM    1  C   UNL     1     -10.338   8.676  72.058  1.00  0.00    -0.346 C  
HETATM    2  S   UNL     1      -9.079   9.073  70.777  1.00  0.00    -0.260 SA 
HETATM    3  C   UNL     1     -10.301   9.225  69.398  1.00  0.00    -0.215 C  
HETATM    4  C   UNL     1      -9.819  10.297  68.415  1.00  0.00    -0.168 C  
HETATM    5  C   UNL     1     -10.302   7.884  68.635  1.00  0.00    -0.224 C  
HETATM    6  CA  UNL     1     -11.661   9.499  70.086  1.00  0.00    -0.111 C  
HETATM    7  N   UNL     1     -11.649   8.785  71.376  1.00  0.00    -0.280 N  
HETATM    8  C   UNL     1     -11.984  10.977  70.372  1.00  0.00    -0.368 C  
HETATM    9  C   UNL     1     -11.879   7.434  71.407  1.00  0.00    -0.300 C  
HETATM   10  O   UNL     1     -12.403  11.207  71.646  1.00  0.00    -0.220 OA 
HETATM   11  OXT UNL     1     -11.964  11.868  69.535  1.00  0.00    -0.304 OA 
HETATM   12  O   UNL     1     -12.658   6.760  70.775  1.00  0.00    -0.311 OA 
HETATM   13  CA  UNL     1     -10.655   7.180  72.308  1.00  0.00    -0.215 C  
ENDROOT
BRANCH  13  14
HETATM   14  N   UNL     1      -9.646   6.201  71.820  1.00  0.00    -0.151 N  
HETATM   15  H   UNL     1      -8.850   6.514  71.264  1.00  0.00     0.000 HD 
HETATM   16  C   UNL     1      -9.799   4.870  72.125  1.00  0.00    -0.173 C  
HETATM   17  O   UNL     1     -10.752   4.502  72.817  1.00  0.00    -0.201 OA 
BRANCH  16  18
HETATM   18  C   UNL     1      -8.665   3.891  71.677  1.00  0.00    -0.098 C  
HETATM   19  C   UNL     1      -7.478   4.062  72.648  1.00  0.00    -0.072 C  
HETATM   20  N   UNL     1      -8.244   4.303  70.317  1.00  0.00    -0.061 NA 
HETATM   21  C   UNL     1      -7.845   3.560  74.049  1.00  0.00    -0.067 C  
HETATM   22  H1  UNL     1      -7.505   3.663  70.025  1.00  0.00     0.000 HD 
HETATM   23  H2  UNL     1      -7.969   5.283  70.263  1.00  0.00     0.000 HD 
HETATM   24  C   UNL     1      -8.276   2.098  74.024  1.00  0.00    -0.058 C  
HETATM   25  C   UNL     1      -9.378   1.825  73.004  1.00  0.00    -0.094 C  
HETATM   26  C   UNL     1      -9.053   2.401  71.625  1.00  0.00    -0.153 C  
ENDBRANCH  16  18
ENDBRANCH  13  14
TORSDOF 2
ENDMDL
MODEL      119
REMARK 921   NORMALIZED FREE ENERGY PREDICTED BY IDOCK:   -3.85 KCAL/MOL
REMARK 922        TOTAL FREE ENERGY PREDICTED BY IDOCK:   -4.60 KCAL/MOL
REMARK 923 INTER-LIGAND FREE ENERGY PREDICTED BY IDOCK:   -4.16 KCAL/MOL
REMARK 924 INTRA-LIGAND FREE ENERGY PREDICTED BY IDOCK:   -0.45 KCAL/MOL
REMARK 927      BINDING AFFINITY PREDICTED BY RF-SCORE:    0.00 PKD
ROOT
HETATM    1  C   UNL     1     -11.132   6.115  68.978  1.00  0.00    -0.367 C  
HETATM    2  S   UNL     1      -9.811   5.226  69.899  1.00  0.00    -0.233 SA 
HETATM    3  C   UNL     1      -9.217   6.724  70.805  1.00  0.00    -0.158 C  
HETATM    4  C   UNL     1      -8.733   6.310  72.198  1.00  0.00    -0.133 C  
HETATM    5  C   UNL     1      -7.988   7.264  70.045  1.00  0.00    -0.117 C  
HETATM    6  CA  UNL     1     -10.403   7.720  70.769  1.00  0.00    -0.203 C  
HETATM    7  N   UNL     1     -11.116   7.503  69.497  1.00  0.00    -0.117 N  
HETATM    8  C   UNL     1     -11.428   7.587  71.909  1.00  0.00    -0.270 C  
HETATM    9  C   UNL     1     -10.610   8.026  68.335  1.00  0.00    -0.102 C  
HETATM   10  O   UNL     1     -12.719   7.550  71.481  1.00  0.00    -0.335 OA 
HETATM   11  OXT UNL     1     -11.150   7.601  73.100  1.00  0.00    -0.404 OA 
HETATM   12  O   UNL     1     -10.078   9.092  68.126  1.00  0.00    -0.175 OA 
HETATM   13  CA  UNL     1     -10.769   6.689  67.586  1.00  0.00    -0.302 C  
ENDROOT
BRANCH  13  14
HETATM   14  N   UNL     1      -9.554   6.128  66.936  1.00  0.00    -0.137 N  
HETATM   15  H   UNL     1      -8.628   6.469  67.194  1.00  0.00     0.000 HD 
HETATM   16  C   UNL     1      -9.693   5.147  65.986  1.00  0.00    -0.165 C  
HETATM   17  O   UNL     1     -10.816   4.723  65.697  1.00  0.00    -0.274 OA 
BRANCH  16  18
HETATM   18  C   UNL     1      -8.387   4.516  65.401  1.00  0.00    -0.117 C  
HETATM   19  C   UNL     1      -7.527   4.021  66.583  1.00  0.00    -0.084 C  
HETATM   20  N   UNL     1      -7.660   5.596  64.691  1.00  0.00    -0.079 NA 
HETATM   21  C   UNL     1      -8.203   2.841  67.290  1.00  0.00    -0.082 C  
HETATM   22  H1  UNL     1      -6.809   5.184  64.309  1.00  0.00     0.000 HD 
HETATM   23  H2  UNL     1      -7.482   6.411  65.277  1.00  0.00     0.000 HD 
HETATM   24  C   UNL     1      -8.460   1.686  66.328  1.00  0.00    -0.102 C  
HETATM   25  C   UNL     1      -9.214   2.120  65.074  1.00  0.00    -0.110 C  
HETATM   26  C   UNL     1      -8.592   3.351  64.415  1.00  0.00    -0.093 C  
ENDBRANCH  16  18
ENDBRANCH  13  14
TORSDOF 2
ENDMDL
MODEL      120
REMARK 921   NORMALIZED FREE ENERGY PREDICTED BY IDOCK:   -3.83 KCAL/MOL
REMARK 922        TOTAL FREE ENERGY PREDICTED BY IDOCK:   -4.58 KCAL/MOL
REMARK 923 INTER-LIGAND FREE ENERGY PREDICTED BY IDOCK:   -4.37 KCAL/MOL
REMARK 924 INTRA-LIGAND FREE ENERGY PREDICTED BY IDOCK:   -0.21 KCAL/MOL
REMARK 927      BINDING AFFINITY PREDICTED BY RF-SCORE:    0.00 PKD
ROOT
HETATM    1  C   UNL     1      -9.802  11.632  66.159  1.00  0.00    -0.223 C  
HETATM    2  S   UNL     1     -11.574  11.881  66.587  1.00  0.00    -0.169 SA 
HETATM    3  C   UNL     1     -11.233  13.026  67.998  1.00  0.00    -0.278 C  
HETATM    4  C   UNL     1     -12.359  14.061  68.088  1.00  0.00    -0.013 C  
HETATM    5  C   UNL     1     -11.289  12.190  69.293  1.00  0.00    -0.327 C  
HETATM    6  CA  UNL     1      -9.815  13.589  67.733  1.00  0.00    -0.233 C  
HETATM    7  N   UNL     1      -9.043  12.529  67.060  1.00  0.00    -0.207 N  
HETATM    8  C   UNL     1      -9.746  14.850  66.853  1.00  0.00    -0.240 C  
HETATM    9  C   UNL     1      -8.522  11.496  67.796  1.00  0.00    -0.137 C  
HETATM   10  O   UNL     1      -8.834  14.763  65.846  1.00  0.00     0.063 OA 
HETATM   11  OXT UNL     1     -10.369  15.881  67.063  1.00  0.00    -0.285 OA 
HETATM   12  O   UNL     1      -8.009  11.499  68.890  1.00  0.00    -0.131 OA 
HETATM   13  CA  UNL     1      -9.070  10.438  66.819  1.00  0.00    -0.143 C  
ENDROOT
BRANCH  13  14
HETATM   14  N   UNL     1      -9.931   9.369  67.393  1.00  0.00    -0.186 N  
HETATM   15  H   UNL     1     -10.943   9.399  67.266  1.00  0.00     0.000 HD 
HETATM   16  C   UNL     1      -9.350   8.342  68.095  1.00  0.00    -0.133 C  
HETATM   17  O   UNL     1      -8.123   8.300  68.224  1.00  0.00    -0.120 OA 
BRANCH  16  18
HETATM   18  C   UNL     1     -10.282   7.189  68.595  1.00  0.00    -0.179 C  
HETATM   19  C   UNL     1     -10.925   6.528  67.358  1.00  0.00    -0.458 C  
HETATM   20  N   UNL     1     -11.343   7.812  69.421  1.00  0.00    -0.404 NA 
HETATM   21  C   UNL     1      -9.871   5.793  66.524  1.00  0.00    -0.193 C  
HETATM   22  H1  UNL     1     -11.951   7.060  69.747  1.00  0.00     0.000 HD 
HETATM   23  H2  UNL     1     -11.849   8.551  68.932  1.00  0.00     0.000 HD 
HETATM   24  C   UNL     1      -9.145   4.734  67.348  1.00  0.00    -0.126 C  
HETATM   25  C   UNL     1      -8.571   5.290  68.648  1.00  0.00    -0.087 C  
HETATM   26  C   UNL     1      -9.599   6.099  69.441  1.00  0.00    -0.159 C  
ENDBRANCH  16  18
ENDBRANCH  13  14
TORSDOF 2
ENDMDL
MODEL      121
REMARK 921   NORMALIZED FREE ENERGY PREDICTED BY IDOCK:   -3.83 KCAL/MOL
REMARK 922        TOTAL FREE ENERGY PREDICTED BY IDOCK:   -4.58 KCAL/MOL
REMARK 923 INTER-LIGAND FREE ENERGY PREDICTED BY IDOCK:   -4.10 KCAL/MOL
REMARK 924 INTRA-LIGAND FREE ENERGY PREDICTED BY IDOCK:   -0.48 KCAL/MOL
REMARK 927      BINDING AFFINITY PREDICTED BY RF-SCORE:    0.00 PKD
ROOT
HETATM    1  C   UNL     1     -10.512   5.285  70.244  1.00  0.00    -0.261 C  
HETATM    2  S   UNL     1      -9.107   6.061  71.143  1.00  0.00    -0.146 SA 
HETATM    3  C   UNL     1      -9.595   7.795  70.731  1.00  0.00    -0.165 C  
HETATM    4  C   UNL     1      -9.219   8.714  71.896  1.00  0.00    -0.345 C  
HETATM    5  C   UNL     1      -8.747   8.236  69.520  1.00  0.00    -0.138 C  
HETATM    6  CA  UNL     1     -11.103   7.723  70.385  1.00  0.00    -0.251 C  
HETATM    7  N   UNL     1     -11.346   6.410  69.760  1.00  0.00    -0.416 N  
HETATM    8  C   UNL     1     -12.073   7.862  71.573  1.00  0.00    -0.306 C  
HETATM    9  C   UNL     1     -11.011   6.210  68.446  1.00  0.00    -0.305 C  
HETATM   10  O   UNL     1     -13.036   6.901  71.607  1.00  0.00    -0.370 OA 
HETATM   11  OXT UNL     1     -12.063   8.785  72.375  1.00  0.00    -0.361 OA 
HETATM   12  O   UNL     1     -11.118   6.946  67.493  1.00  0.00    -0.270 OA 
HETATM   13  CA  UNL     1     -10.281   4.891  68.764  1.00  0.00    -0.049 C  
ENDROOT
BRANCH  13  14
HETATM   14  N   UNL     1      -8.865   4.777  68.324  1.00  0.00    -0.102 N  
HETATM   15  H   UNL     1      -8.110   5.113  68.922  1.00  0.00     0.000 HD 
HETATM   16  C   UNL     1      -8.583   4.214  67.103  1.00  0.00    -0.104 C  
HETATM   17  O   UNL     1      -9.501   3.788  66.395  1.00  0.00    -0.177 OA 
BRANCH  16  18
HETATM   18  C   UNL     1      -7.079   4.024  66.723  1.00  0.00    -0.064 C  
HETATM   19  C   UNL     1      -6.966   4.072  65.185  1.00  0.00    -0.058 C  
HETATM   20  N   UNL     1      -6.675   2.678  67.197  1.00  0.00    -0.040 NA 
HETATM   21  C   UNL     1      -7.287   5.477  64.662  1.00  0.00    -0.064 C  
HETATM   22  H1  UNL     1      -5.694   2.554  66.949  1.00  0.00     0.000 HD 
HETATM   23  H2  UNL     1      -7.274   1.933  66.842  1.00  0.00     0.000 HD 
HETATM   24  C   UNL     1      -6.365   6.526  65.273  1.00  0.00    -0.034 C  
HETATM   25  C   UNL     1      -6.336   6.468  66.798  1.00  0.00    -0.042 C  
HETATM   26  C   UNL     1      -6.103   5.052  67.325  1.00  0.00    -0.031 C  
ENDBRANCH  16  18
ENDBRANCH  13  14
TORSDOF 2
ENDMDL
MODEL      122
REMARK 921   NORMALIZED FREE ENERGY PREDICTED BY IDOCK:   -3.79 KCAL/MOL
REMARK 922        TOTAL FREE ENERGY PREDICTED BY IDOCK:   -4.54 KCAL/MOL
REMARK 923 INTER-LIGAND FREE ENERGY PREDICTED BY IDOCK:   -4.12 KCAL/MOL
REMARK 924 INTRA-LIGAND FREE ENERGY PREDICTED BY IDOCK:   -0.42 KCAL/MOL
REMARK 927      BINDING AFFINITY PREDICTED BY RF-SCORE:    0.00 PKD
ROOT
HETATM    1  C   UNL     1      -9.114  11.705  68.328  1.00  0.00    -0.187 C  
HETATM    2  S   UNL     1      -8.368  10.872  66.867  1.00  0.00    -0.138 SA 
HETATM    3  C   UNL     1      -9.859  11.074  65.794  1.00  0.00    -0.235 C  
HETATM    4  C   UNL     1      -9.411  11.271  64.343  1.00  0.00    -0.206 C  
HETATM    5  C   UNL     1     -10.646   9.748  65.845  1.00  0.00     0.127 C  
HETATM    6  CA  UNL     1     -10.657  12.244  66.421  1.00  0.00    -0.242 C  
HETATM    7  N   UNL     1     -10.439  12.191  67.878  1.00  0.00    -0.203 N  
HETATM    8  C   UNL     1     -10.271  13.655  65.940  1.00  0.00    -0.311 C  
HETATM    9  C   UNL     1     -11.130  11.282  68.636  1.00  0.00    -0.232 C  
HETATM   10  O   UNL     1     -10.069  14.540  66.954  1.00  0.00    -0.251 OA 
HETATM   11  OXT UNL     1     -10.229  14.004  64.770  1.00  0.00    -0.416 OA 
HETATM   12  O   UNL     1     -12.278  10.914  68.559  1.00  0.00    -0.535 OA 
HETATM   13  CA  UNL     1      -9.851  10.814  69.359  1.00  0.00    -0.085 C  
ENDROOT
BRANCH  13  14
HETATM   14  N   UNL     1      -9.543   9.359  69.315  1.00  0.00    -0.165 N  
HETATM   15  H   UNL     1      -9.852   8.791  68.527  1.00  0.00     0.000 HD 
HETATM   16  C   UNL     1      -8.838   8.790  70.347  1.00  0.00    -0.168 C  
HETATM   17  O   UNL     1      -8.448   9.490  71.287  1.00  0.00    -0.256 OA 
BRANCH  16  18
HETATM   18  C   UNL     1      -8.450   7.281  70.214  1.00  0.00    -0.137 C  
HETATM   19  C   UNL     1      -8.074   7.016  68.741  1.00  0.00    -0.121 C  
HETATM   20  N   UNL     1      -9.655   6.488  70.558  1.00  0.00    -0.169 NA 
HETATM   21  C   UNL     1      -6.779   7.746  68.372  1.00  0.00    -0.062 C  
HETATM   22  H1  UNL     1      -9.402   5.504  70.471  1.00  0.00     0.000 HD 
HETATM   23  H2  UNL     1     -10.472   6.741  70.003  1.00  0.00     0.000 HD 
HETATM   24  C   UNL     1      -5.624   7.331  69.276  1.00  0.00    -0.015 C  
HETATM   25  C   UNL     1      -5.960   7.461  70.759  1.00  0.00    -0.035 C  
HETATM   26  C   UNL     1      -7.296   6.807  71.115  1.00  0.00    -0.079 C  
ENDBRANCH  16  18
ENDBRANCH  13  14
TORSDOF 2
ENDMDL
MODEL      123
REMARK 921   NORMALIZED FREE ENERGY PREDICTED BY IDOCK:   -3.76 KCAL/MOL
REMARK 922        TOTAL FREE ENERGY PREDICTED BY IDOCK:   -4.51 KCAL/MOL
REMARK 923 INTER-LIGAND FREE ENERGY PREDICTED BY IDOCK:   -4.05 KCAL/MOL
REMARK 924 INTRA-LIGAND FREE ENERGY PREDICTED BY IDOCK:   -0.46 KCAL/MOL
REMARK 927      BINDING AFFINITY PREDICTED BY RF-SCORE:    0.00 PKD
ROOT
HETATM    1  C   UNL     1      -9.225   7.791  70.954  1.00  0.00    -0.152 C  
HETATM    2  S   UNL     1      -8.968   9.431  70.160  1.00  0.00    -0.242 SA 
HETATM    3  C   UNL     1     -10.715   9.598  69.579  1.00  0.00    -0.232 C  
HETATM    4  C   UNL     1     -11.118  11.075  69.615  1.00  0.00    -0.320 C  
HETATM    5  C   UNL     1     -10.751   9.159  68.100  1.00  0.00    -0.186 C  
HETATM    6  CA  UNL     1     -11.539   8.648  70.484  1.00  0.00    -0.139 C  
HETATM    7  N   UNL     1     -10.672   7.504  70.820  1.00  0.00    -0.225 N  
HETATM    8  C   UNL     1     -12.050   9.253  71.804  1.00  0.00    -0.387 C  
HETATM    9  C   UNL     1     -10.481   6.503  69.904  1.00  0.00    -0.213 C  
HETATM   10  O   UNL     1     -11.794   8.480  72.894  1.00  0.00    -0.238 OA 
HETATM   11  OXT UNL     1     -12.704  10.282  71.891  1.00  0.00    -0.415 OA 
HETATM   12  O   UNL     1     -11.260   5.987  69.138  1.00  0.00    -0.378 OA 
HETATM   13  CA  UNL     1      -8.952   6.532  70.094  1.00  0.00    -0.155 C  
ENDROOT
BRANCH  13  14
HETATM   14  N   UNL     1      -8.122   6.730  68.875  1.00  0.00    -0.119 N  
HETATM   15  H   UNL     1      -8.010   7.662  68.474  1.00  0.00     0.000 HD 
HETATM   16  C   UNL     1      -7.507   5.647  68.296  1.00  0.00    -0.077 C  
HETATM   17  O   UNL     1      -7.628   4.527  68.801  1.00  0.00    -0.063 OA 
BRANCH  16  18
HETATM   18  C   UNL     1      -6.565   5.916  67.077  1.00  0.00    -0.056 C  
HETATM   19  C   UNL     1      -6.656   4.702  66.130  1.00  0.00    -0.045 C  
HETATM   20  N   UNL     1      -5.184   6.016  67.607  1.00  0.00    -0.004 NA 
HETATM   21  C   UNL     1      -8.046   4.616  65.489  1.00  0.00    -0.107 C  
HETATM   22  H1  UNL     1      -4.570   6.192  66.811  1.00  0.00     0.000 HD 
HETATM   23  H2  UNL     1      -4.906   5.203  68.155  1.00  0.00     0.000 HD 
HETATM   24  C   UNL     1      -8.388   5.888  64.721  1.00  0.00    -0.103 C  
HETATM   25  C   UNL     1      -8.215   7.149  65.563  1.00  0.00    -0.139 C  
HETATM   26  C   UNL     1      -6.861   7.196  66.274  1.00  0.00    -0.057 C  
ENDBRANCH  16  18
ENDBRANCH  13  14
TORSDOF 2
ENDMDL
MODEL      124
REMARK 921   NORMALIZED FREE ENERGY PREDICTED BY IDOCK:   -3.68 KCAL/MOL
REMARK 922        TOTAL FREE ENERGY PREDICTED BY IDOCK:   -4.41 KCAL/MOL
REMARK 923 INTER-LIGAND FREE ENERGY PREDICTED BY IDOCK:   -4.00 KCAL/MOL
REMARK 924 INTRA-LIGAND FREE ENERGY PREDICTED BY IDOCK:   -0.41 KCAL/MOL
REMARK 927      BINDING AFFINITY PREDICTED BY RF-SCORE:    0.00 PKD
ROOT
HETATM    1  C   UNL     1      -8.818   8.512  70.284  1.00  0.00    -0.148 C  
HETATM    2  S   UNL     1      -8.548   7.083  69.158  1.00  0.00    -0.132 SA 
HETATM    3  C   UNL     1      -9.729   7.676  67.866  1.00  0.00    -0.148 C  
HETATM    4  C   UNL     1      -9.216   7.259  66.485  1.00  0.00    -0.195 C  
HETATM    5  C   UNL     1     -11.065   6.936  68.090  1.00  0.00    -0.165 C  
HETATM    6  CA  UNL     1      -9.866   9.200  68.106  1.00  0.00    -0.164 C  
HETATM    7  N   UNL     1      -9.728   9.427  69.556  1.00  0.00    -0.173 N  
HETATM    8  C   UNL     1      -8.831  10.088  67.393  1.00  0.00    -0.128 C  
HETATM    9  C   UNL     1     -10.789   9.177  70.387  1.00  0.00    -0.242 C  
HETATM   10  O   UNL     1      -8.241  11.003  68.210  1.00  0.00    -0.118 OA 
HETATM   11  OXT UNL     1      -8.601  10.062  66.192  1.00  0.00    -0.130 OA 
HETATM   12  O   UNL     1     -11.970   9.384  70.230  1.00  0.00    -0.115 OA 
HETATM   13  CA  UNL     1      -9.916   8.369  71.367  1.00  0.00    -0.213 C  
ENDROOT
BRANCH  13  14
HETATM   14  N   UNL     1     -10.358   6.983  71.682  1.00  0.00    -0.199 N  
HETATM   15  H   UNL     1     -10.827   6.418  70.974  1.00  0.00     0.000 HD 
HETATM   16  C   UNL     1     -10.127   6.473  72.936  1.00  0.00    -0.181 C  
HETATM   17  O   UNL     1      -9.537   7.155  73.780  1.00  0.00    -0.218 OA 
BRANCH  16  18
HETATM   18  C   UNL     1     -10.516   4.981  73.194  1.00  0.00    -0.206 C  
HETATM   19  C   UNL     1     -10.028   4.148  71.991  1.00  0.00    -0.250 C  
HETATM   20  N   UNL     1     -11.997   4.921  73.257  1.00  0.00    -0.377 NA 
HETATM   21  C   UNL     1      -8.497   4.108  71.943  1.00  0.00    -0.111 C  
HETATM   22  H1  UNL     1     -12.251   3.947  73.426  1.00  0.00     0.000 HD 
HETATM   23  H2  UNL     1     -12.449   5.315  72.433  1.00  0.00     0.000 HD 
HETATM   24  C   UNL     1      -7.911   3.538  73.230  1.00  0.00    -0.071 C  
HETATM   25  C   UNL     1      -8.434   4.241  74.479  1.00  0.00    -0.092 C  
HETATM   26  C   UNL     1      -9.959   4.359  74.488  1.00  0.00    -0.229 C  
ENDBRANCH  16  18
ENDBRANCH  13  14
TORSDOF 2
ENDMDL
MODEL      125
REMARK 921   NORMALIZED FREE ENERGY PREDICTED BY IDOCK:   -3.64 KCAL/MOL
REMARK 922        TOTAL FREE ENERGY PREDICTED BY IDOCK:   -4.37 KCAL/MOL
REMARK 923 INTER-LIGAND FREE ENERGY PREDICTED BY IDOCK:   -4.03 KCAL/MOL
REMARK 924 INTRA-LIGAND FREE ENERGY PREDICTED BY IDOCK:   -0.34 KCAL/MOL
REMARK 927      BINDING AFFINITY PREDICTED BY RF-SCORE:    0.00 PKD
ROOT
HETATM    1  C   UNL     1     -10.617   8.797  69.885  1.00  0.00    -0.224 C  
HETATM    2  S   UNL     1     -10.689   7.119  69.136  1.00  0.00    -0.166 SA 
HETATM    3  C   UNL     1      -9.717   6.306  70.481  1.00  0.00    -0.173 C  
HETATM    4  C   UNL     1     -10.228   4.876  70.678  1.00  0.00    -0.282 C  
HETATM    5  C   UNL     1      -8.257   6.197  69.993  1.00  0.00    -0.124 C  
HETATM    6  CA  UNL     1      -9.848   7.246  71.705  1.00  0.00    -0.160 C  
HETATM    7  N   UNL     1      -9.936   8.624  71.189  1.00  0.00    -0.206 N  
HETATM    8  C   UNL     1     -11.069   7.005  72.610  1.00  0.00    -0.281 C  
HETATM    9  C   UNL     1      -8.799   9.273  70.783  1.00  0.00    -0.225 C  
HETATM   10  O   UNL     1     -11.766   8.138  72.899  1.00  0.00    -0.373 OA 
HETATM   11  OXT UNL     1     -11.363   5.930  73.112  1.00  0.00    -0.223 OA 
HETATM   12  O   UNL     1      -7.689   9.273  71.260  1.00  0.00    -0.314 OA 
HETATM   13  CA  UNL     1      -9.448   9.720  69.458  1.00  0.00    -0.212 C  
ENDROOT
BRANCH  13  14
HETATM   14  N   UNL     1      -8.742   9.353  68.201  1.00  0.00    -0.124 N  
HETATM   15  H   UNL     1      -9.046   8.547  67.656  1.00  0.00     0.000 HD 
HETATM   16  C   UNL     1      -7.677  10.113  67.782  1.00  0.00    -0.090 C  
HETATM   17  O   UNL     1      -7.330  11.101  68.436  1.00  0.00    -0.083 OA 
BRANCH  16  18
HETATM   18  C   UNL     1      -7.028   9.752  66.406  1.00  0.00    -0.093 C  
HETATM   19  C   UNL     1      -5.566   9.333  66.665  1.00  0.00    -0.046 C  
HETATM   20  N   UNL     1      -7.041  10.984  65.581  1.00  0.00    -0.369 NA 
HETATM   21  C   UNL     1      -5.508   8.011  67.439  1.00  0.00    -0.037 C  
HETATM   22  H1  UNL     1      -6.618  10.749  64.683  1.00  0.00     0.000 HD 
HETATM   23  H2  UNL     1      -6.592  11.777  66.039  1.00  0.00     0.000 HD 
HETATM   24  C   UNL     1      -6.234   6.896  66.695  1.00  0.00    -0.041 C  
HETATM   25  C   UNL     1      -7.659   7.278  66.304  1.00  0.00    -0.092 C  
HETATM   26  C   UNL     1      -7.730   8.638  65.608  1.00  0.00    -0.091 C  
ENDBRANCH  16  18
ENDBRANCH  13  14
TORSDOF 2
ENDMDL
MODEL      126
REMARK 921   NORMALIZED FREE ENERGY PREDICTED BY IDOCK:   -3.63 KCAL/MOL
REMARK 922        TOTAL FREE ENERGY PREDICTED BY IDOCK:   -4.36 KCAL/MOL
REMARK 923 INTER-LIGAND FREE ENERGY PREDICTED BY IDOCK:   -4.05 KCAL/MOL
REMARK 924 INTRA-LIGAND FREE ENERGY PREDICTED BY IDOCK:   -0.31 KCAL/MOL
REMARK 927      BINDING AFFINITY PREDICTED BY RF-SCORE:    0.00 PKD
ROOT
HETATM    1  C   UNL     1      -9.830  12.549  67.966  1.00  0.00    -0.214 C  
HETATM    2  S   UNL     1      -8.483  13.510  68.769  1.00  0.00     0.173 SA 
HETATM    3  C   UNL     1      -8.946  15.117  67.982  1.00  0.00    -0.172 C  
HETATM    4  C   UNL     1      -8.642  16.260  68.954  1.00  0.00    -0.260 C  
HETATM    5  C   UNL     1      -8.027  15.312  66.758  1.00  0.00    -0.104 C  
HETATM    6  CA  UNL     1     -10.431  14.956  67.570  1.00  0.00    -0.254 C  
HETATM    7  N   UNL     1     -10.634  13.540  67.213  1.00  0.00    -0.261 N  
HETATM    8  C   UNL     1     -11.470  15.323  68.644  1.00  0.00    -0.337 C  
HETATM    9  C   UNL     1     -10.220  13.080  65.990  1.00  0.00    -0.287 C  
HETATM   10  O   UNL     1     -12.433  14.377  68.817  1.00  0.00    -0.134 OA 
HETATM   11  OXT UNL     1     -11.510  16.390  69.239  1.00  0.00    -0.275 OA 
HETATM   12  O   UNL     1     -10.270  13.604  64.902  1.00  0.00    -0.372 OA 
HETATM   13  CA  UNL     1      -9.510  11.863  66.615  1.00  0.00    -0.209 C  
ENDROOT
BRANCH  13  14
HETATM   14  N   UNL     1      -8.069  11.680  66.291  1.00  0.00    -0.375 N  
HETATM   15  H   UNL     1      -7.435  12.479  66.298  1.00  0.00     0.000 HD 
HETATM   16  C   UNL     1      -7.604  10.425  65.984  1.00  0.00    -0.137 C  
HETATM   17  O   UNL     1      -8.374   9.461  66.001  1.00  0.00    -0.116 OA 
BRANCH  16  18
HETATM   18  C   UNL     1      -6.067  10.262  65.749  1.00  0.00    -0.107 C  
HETATM   19  C   UNL     1      -5.338  10.723  67.027  1.00  0.00    -0.047 C  
HETATM   20  N   UNL     1      -5.698  11.160  64.628  1.00  0.00    -0.404 NA 
HETATM   21  C   UNL     1      -5.620   9.765  68.190  1.00  0.00    -0.039 C  
HETATM   22  H1  UNL     1      -4.695  11.053  64.475  1.00  0.00     0.000 HD 
HETATM   23  H2  UNL     1      -5.977  12.129  64.784  1.00  0.00     0.000 HD 
HETATM   24  C   UNL     1      -5.203   8.338  67.852  1.00  0.00    -0.034 C  
HETATM   25  C   UNL     1      -5.798   7.845  66.536  1.00  0.00    -0.040 C  
HETATM   26  C   UNL     1      -5.594   8.840  65.393  1.00  0.00    -0.046 C  
ENDBRANCH  16  18
ENDBRANCH  13  14
TORSDOF 2
ENDMDL
MODEL      127
REMARK 921   NORMALIZED FREE ENERGY PREDICTED BY IDOCK:   -3.62 KCAL/MOL
REMARK 922        TOTAL FREE ENERGY PREDICTED BY IDOCK:   -4.35 KCAL/MOL
REMARK 923 INTER-LIGAND FREE ENERGY PREDICTED BY IDOCK:   -4.09 KCAL/MOL
REMARK 924 INTRA-LIGAND FREE ENERGY PREDICTED BY IDOCK:   -0.26 KCAL/MOL
REMARK 927      BINDING AFFINITY PREDICTED BY RF-SCORE:    0.00 PKD
ROOT
HETATM    1  C   UNL     1     -10.426  11.349  65.224  1.00  0.00    -0.283 C  
HETATM    2  S   UNL     1     -11.638  11.464  66.603  1.00  0.00     0.285 SA 
HETATM    3  C   UNL     1     -10.549  12.497  67.682  1.00  0.00    -0.217 C  
HETATM    4  C   UNL     1     -11.417  13.458  68.500  1.00  0.00    -0.345 C  
HETATM    5  C   UNL     1      -9.863  11.548  68.686  1.00  0.00    -0.184 C  
HETATM    6  CA  UNL     1      -9.530  13.157  66.721  1.00  0.00    -0.252 C  
HETATM    7  N   UNL     1      -9.283  12.203  65.624  1.00  0.00    -0.037 N  
HETATM    8  C   UNL     1      -9.966  14.492  66.091  1.00  0.00    -0.311 C  
HETATM    9  C   UNL     1      -8.442  11.140  65.824  1.00  0.00    -0.076 C  
HETATM   10  O   UNL     1      -9.790  14.543  64.743  1.00  0.00    -0.141 OA 
HETATM   11  OXT UNL     1     -10.354  15.466  66.722  1.00  0.00    -0.267 OA 
HETATM   12  O   UNL     1      -7.398  11.074  66.429  1.00  0.00    -0.142 OA 
HETATM   13  CA  UNL     1      -9.454  10.143  65.226  1.00  0.00    -0.248 C  
ENDROOT
BRANCH  13  14
HETATM   14  N   UNL     1      -9.842   8.983  66.073  1.00  0.00    -0.379 N  
HETATM   15  H   UNL     1     -10.756   8.959  66.527  1.00  0.00     0.000 HD 
HETATM   16  C   UNL     1      -8.959   7.944  66.237  1.00  0.00    -0.171 C  
HETATM   17  O   UNL     1      -7.865   7.970  65.665  1.00  0.00    -0.093 OA 
BRANCH  16  18
HETATM   18  C   UNL     1      -9.445   6.702  67.053  1.00  0.00    -0.144 C  
HETATM   19  C   UNL     1      -8.226   5.790  67.302  1.00  0.00    -0.102 C  
HETATM   20  N   UNL     1     -10.426   5.981  66.207  1.00  0.00    -0.466 NA 
HETATM   21  C   UNL     1      -7.228   6.464  68.250  1.00  0.00    -0.085 C  
HETATM   22  H1  UNL     1     -10.744   5.171  66.739  1.00  0.00     0.000 HD 
HETATM   23  H2  UNL     1     -10.058   5.736  65.288  1.00  0.00     0.000 HD 
HETATM   24  C   UNL     1      -7.876   6.825  69.582  1.00  0.00    -0.115 C  
HETATM   25  C   UNL     1      -9.157   7.638  69.414  1.00  0.00    -0.142 C  
HETATM   26  C   UNL     1     -10.118   7.012  68.403  1.00  0.00    -0.176 C  
ENDBRANCH  16  18
ENDBRANCH  13  14
TORSDOF 2
ENDMDL
MODEL      128
REMARK 921   NORMALIZED FREE ENERGY PREDICTED BY IDOCK:   -3.61 KCAL/MOL
REMARK 922        TOTAL FREE ENERGY PREDICTED BY IDOCK:   -4.33 KCAL/MOL
REMARK 923 INTER-LIGAND FREE ENERGY PREDICTED BY IDOCK:   -3.89 KCAL/MOL
REMARK 924 INTRA-LIGAND FREE ENERGY PREDICTED BY IDOCK:   -0.44 KCAL/MOL
REMARK 927      BINDING AFFINITY PREDICTED BY RF-SCORE:    0.00 PKD
ROOT
HETATM    1  C   UNL     1     -10.066   9.039  68.776  1.00  0.00    -0.199 C  
HETATM    2  S   UNL     1      -8.318   9.437  68.362  1.00  0.00    -0.119 SA 
HETATM    3  C   UNL     1      -8.553   9.292  66.535  1.00  0.00    -0.130 C  
HETATM    4  C   UNL     1      -7.639  10.297  65.828  1.00  0.00    -0.143 C  
HETATM    5  C   UNL     1      -8.076   7.884  66.121  1.00  0.00    -0.109 C  
HETATM    6  CA  UNL     1     -10.073   9.478  66.303  1.00  0.00    -0.257 C  
HETATM    7  N   UNL     1     -10.766   8.917  67.476  1.00  0.00    -0.222 N  
HETATM    8  C   UNL     1     -10.553  10.930  66.125  1.00  0.00    -0.206 C  
HETATM    9  C   UNL     1     -10.926   7.560  67.587  1.00  0.00    -0.023 C  
HETATM   10  O   UNL     1     -11.625  11.249  66.900  1.00  0.00    -0.464 OA 
HETATM   11  OXT UNL     1     -10.095  11.720  65.311  1.00  0.00    -0.246 OA 
HETATM   12  O   UNL     1     -11.187   6.734  66.745  1.00  0.00    -0.312 OA 
HETATM   13  CA  UNL     1     -10.415   7.553  69.041  1.00  0.00    -0.208 C  
ENDROOT
BRANCH  13  14
HETATM   14  N   UNL     1      -9.274   6.651  69.354  1.00  0.00    -0.142 N  
HETATM   15  H   UNL     1      -8.332   6.886  69.043  1.00  0.00     0.000 HD 
HETATM   16  C   UNL     1      -9.503   5.499  70.065  1.00  0.00    -0.159 C  
HETATM   17  O   UNL     1     -10.643   5.233  70.458  1.00  0.00    -0.262 OA 
BRANCH  16  18
HETATM   18  C   UNL     1      -8.262   4.632  70.457  1.00  0.00    -0.085 C  
HETATM   19  C   UNL     1      -8.719   3.161  70.544  1.00  0.00    -0.128 C  
HETATM   20  N   UNL     1      -7.819   5.083  71.798  1.00  0.00    -0.106 NA 
HETATM   21  C   UNL     1      -9.098   2.627  69.158  1.00  0.00    -0.189 C  
HETATM   22  H1  UNL     1      -7.010   4.517  72.053  1.00  0.00     0.000 HD 
HETATM   23  H2  UNL     1      -8.563   5.054  72.495  1.00  0.00     0.000 HD 
HETATM   24  C   UNL     1      -7.938   2.743  68.176  1.00  0.00    -0.063 C  
HETATM   25  C   UNL     1      -7.356   4.153  68.115  1.00  0.00    -0.064 C  
HETATM   26  C   UNL     1      -7.057   4.722  69.503  1.00  0.00    -0.054 C  
ENDBRANCH  16  18
ENDBRANCH  13  14
TORSDOF 2
ENDMDL
MODEL      129
REMARK 921   NORMALIZED FREE ENERGY PREDICTED BY IDOCK:   -3.60 KCAL/MOL
REMARK 922        TOTAL FREE ENERGY PREDICTED BY IDOCK:   -4.32 KCAL/MOL
REMARK 923 INTER-LIGAND FREE ENERGY PREDICTED BY IDOCK:   -4.00 KCAL/MOL
REMARK 924 INTRA-LIGAND FREE ENERGY PREDICTED BY IDOCK:   -0.32 KCAL/MOL
REMARK 927      BINDING AFFINITY PREDICTED BY RF-SCORE:    0.00 PKD
ROOT
HETATM    1  C   UNL     1      -9.862   5.147  66.349  1.00  0.00    -0.193 C  
HETATM    2  S   UNL     1      -8.268   5.945  65.893  1.00  0.00    -0.133 SA 
HETATM    3  C   UNL     1      -7.232   4.470  66.303  1.00  0.00    -0.076 C  
HETATM    4  C   UNL     1      -6.039   4.410  65.345  1.00  0.00    -0.023 C  
HETATM    5  C   UNL     1      -6.659   4.690  67.719  1.00  0.00    -0.046 C  
HETATM    6  CA  UNL     1      -8.202   3.263  66.254  1.00  0.00    -0.097 C  
HETATM    7  N   UNL     1      -9.523   3.747  66.695  1.00  0.00    -0.195 N  
HETATM    8  C   UNL     1      -8.381   2.601  64.876  1.00  0.00    -0.089 C  
HETATM    9  C   UNL     1      -9.772   3.922  68.031  1.00  0.00    -0.064 C  
HETATM   10  O   UNL     1      -9.683   2.410  64.527  1.00  0.00    -0.129 OA 
HETATM   11  OXT UNL     1      -7.466   2.192  64.176  1.00  0.00    -0.056 OA 
HETATM   12  O   UNL     1      -9.440   3.253  68.981  1.00  0.00    -0.163 OA 
HETATM   13  CA  UNL     1     -10.360   5.328  67.804  1.00  0.00    -0.133 C  
ENDROOT
BRANCH  13  14
HETATM   14  N   UNL     1      -9.755   6.448  68.575  1.00  0.00    -0.131 N  
HETATM   15  H   UNL     1      -8.828   6.799  68.333  1.00  0.00     0.000 HD 
HETATM   16  C   UNL     1     -10.457   7.003  69.617  1.00  0.00    -0.223 C  
HETATM   17  O   UNL     1     -11.587   6.588  69.889  1.00  0.00    -0.409 OA 
BRANCH  16  18
HETATM   18  C   UNL     1      -9.827   8.241  70.335  1.00  0.00    -0.186 C  
HETATM   19  C   UNL     1      -9.571   9.329  69.272  1.00  0.00    -0.161 C  
HETATM   20  N   UNL     1      -8.530   7.803  70.904  1.00  0.00    -0.125 NA 
HETATM   21  C   UNL     1     -10.894   9.875  68.724  1.00  0.00    -0.240 C  
HETATM   22  H1  UNL     1      -8.119   8.610  71.373  1.00  0.00     0.000 HD 
HETATM   23  H2  UNL     1      -7.910   7.385  70.210  1.00  0.00     0.000 HD 
HETATM   24  C   UNL     1     -11.767  10.445  69.836  1.00  0.00    -0.341 C  
HETATM   25  C   UNL     1     -11.977   9.462  70.984  1.00  0.00    -0.389 C  
HETATM   26  C   UNL     1     -10.665   8.849  71.476  1.00  0.00    -0.398 C  
ENDBRANCH  16  18
ENDBRANCH  13  14
TORSDOF 2
ENDMDL
MODEL      130
REMARK 921   NORMALIZED FREE ENERGY PREDICTED BY IDOCK:   -3.56 KCAL/MOL
REMARK 922        TOTAL FREE ENERGY PREDICTED BY IDOCK:   -4.28 KCAL/MOL
REMARK 923 INTER-LIGAND FREE ENERGY PREDICTED BY IDOCK:   -3.84 KCAL/MOL
REMARK 924 INTRA-LIGAND FREE ENERGY PREDICTED BY IDOCK:   -0.44 KCAL/MOL
REMARK 927      BINDING AFFINITY PREDICTED BY RF-SCORE:    0.00 PKD
ROOT
HETATM    1  C   UNL     1     -10.640   6.589  71.576  1.00  0.00    -0.229 C  
HETATM    2  S   UNL     1     -10.206   8.344  71.914  1.00  0.00    -0.298 SA 
HETATM    3  C   UNL     1     -11.429   9.041  70.717  1.00  0.00    -0.282 C  
HETATM    4  C   UNL     1     -11.959  10.373  71.256  1.00  0.00    -0.425 C  
HETATM    5  C   UNL     1     -10.668   9.357  69.412  1.00  0.00    -0.234 C  
HETATM    6  CA  UNL     1     -12.484   7.925  70.515  1.00  0.00     0.353 C  
HETATM    7  N   UNL     1     -11.782   6.634  70.633  1.00  0.00    -0.383 N  
HETATM    8  C   UNL     1     -13.653   7.916  71.516  1.00  0.00    -0.310 C  
HETATM    9  C   UNL     1     -11.045   6.162  69.578  1.00  0.00    -0.420 C  
HETATM   10  O   UNL     1     -13.895   6.693  72.061  1.00  0.00    -0.139 OA 
HETATM   11  OXT UNL     1     -14.373   8.875  71.754  1.00  0.00    -0.352 OA 
HETATM   12  O   UNL     1     -11.270   6.196  68.391  1.00  0.00    -0.330 OA 
HETATM   13  CA  UNL     1      -9.833   5.853  70.478  1.00  0.00    -0.183 C  
ENDROOT
BRANCH  13  14
HETATM   14  N   UNL     1      -8.531   6.462  70.094  1.00  0.00    -0.133 N  
HETATM   15  H   UNL     1      -8.221   7.332  70.528  1.00  0.00     0.000 HD 
HETATM   16  C   UNL     1      -7.751   5.842  69.148  1.00  0.00    -0.091 C  
HETATM   17  O   UNL     1      -8.123   4.778  68.645  1.00  0.00    -0.083 OA 
BRANCH  16  18
HETATM   18  C   UNL     1      -6.348   6.463  68.847  1.00  0.00    -0.038 C  
HETATM   19  C   UNL     1      -5.901   5.975  67.454  1.00  0.00    -0.017 C  
HETATM   20  N   UNL     1      -5.410   5.940  69.870  1.00  0.00    -0.008 NA 
HETATM   21  C   UNL     1      -6.792   6.570  66.358  1.00  0.00    -0.061 C  
HETATM   22  H1  UNL     1      -4.495   6.345  69.673  1.00  0.00     0.000 HD 
HETATM   23  H2  UNL     1      -5.395   4.921  69.914  1.00  0.00     0.000 HD 
HETATM   24  C   UNL     1      -6.779   8.094  66.392  1.00  0.00    -0.062 C  
HETATM   25  C   UNL     1      -7.105   8.656  67.773  1.00  0.00    -0.079 C  
HETATM   26  C   UNL     1      -6.278   8.001  68.881  1.00  0.00    -0.040 C  
ENDBRANCH  16  18
ENDBRANCH  13  14
TORSDOF 2
ENDMDL
MODEL      131
REMARK 921   NORMALIZED FREE ENERGY PREDICTED BY IDOCK:   -3.56 KCAL/MOL
REMARK 922        TOTAL FREE ENERGY PREDICTED BY IDOCK:   -4.28 KCAL/MOL
REMARK 923 INTER-LIGAND FREE ENERGY PREDICTED BY IDOCK:   -4.35 KCAL/MOL
REMARK 924 INTRA-LIGAND FREE ENERGY PREDICTED BY IDOCK:    0.07 KCAL/MOL
REMARK 927      BINDING AFFINITY PREDICTED BY RF-SCORE:    0.00 PKD
ROOT
HETATM    1  C   UNL     1      -8.388  10.332  69.220  1.00  0.00    -0.163 C  
HETATM    2  S   UNL     1      -8.014   9.508  67.618  1.00  0.00    -0.106 SA 
HETATM    3  C   UNL     1      -9.709   9.746  66.920  1.00  0.00    -0.192 C  
HETATM    4  C   UNL     1      -9.605   9.956  65.407  1.00  0.00    -0.350 C  
HETATM    5  C   UNL     1     -10.484   8.430  67.138  1.00  0.00    -0.380 C  
HETATM    6  CA  UNL     1     -10.321  10.918  67.726  1.00  0.00    -0.187 C  
HETATM    7  N   UNL     1      -9.774  10.842  69.092  1.00  0.00    -0.167 N  
HETATM    8  C   UNL     1     -10.033  12.330  67.183  1.00  0.00    -0.205 C  
HETATM    9  C   UNL     1     -10.286   9.933  69.981  1.00  0.00    -0.271 C  
HETATM   10  O   UNL     1      -9.588  13.198  68.132  1.00  0.00    -0.217 OA 
HETATM   11  OXT UNL     1     -10.256  12.694  66.038  1.00  0.00    -0.260 OA 
HETATM   12  O   UNL     1     -11.427   9.582  70.167  1.00  0.00    -0.236 OA 
HETATM   13  CA  UNL     1      -8.883   9.437  70.384  1.00  0.00    -0.249 C  
ENDROOT
BRANCH  13  14
HETATM   14  N   UNL     1      -8.617   7.979  70.256  1.00  0.00    -0.131 N  
HETATM   15  H   UNL     1      -8.389   7.575  69.347  1.00  0.00     0.000 HD 
HETATM   16  C   UNL     1      -8.683   7.183  71.373  1.00  0.00    -0.124 C  
HETATM   17  O   UNL     1      -8.937   7.684  72.472  1.00  0.00    -0.126 OA 
BRANCH  16  18
HETATM   18  C   UNL     1      -8.300   5.676  71.211  1.00  0.00    -0.127 C  
HETATM   19  C   UNL     1      -7.544   5.238  72.483  1.00  0.00    -0.097 C  
HETATM   20  N   UNL     1      -7.387   5.580  70.047  1.00  0.00    -0.067 NA 
HETATM   21  C   UNL     1      -8.480   5.235  73.697  1.00  0.00    -0.112 C  
HETATM   22  H1  UNL     1      -7.137   4.597  69.941  1.00  0.00     0.000 HD 
HETATM   23  H2  UNL     1      -6.575   6.193  70.123  1.00  0.00     0.000 HD 
HETATM   24  C   UNL     1      -9.679   4.321  73.476  1.00  0.00    -0.144 C  
HETATM   25  C   UNL     1     -10.418   4.620  72.175  1.00  0.00    -0.219 C  
HETATM   26  C   UNL     1      -9.475   4.710  70.975  1.00  0.00    -0.227 C  
ENDBRANCH  16  18
ENDBRANCH  13  14
TORSDOF 2
ENDMDL
MODEL      132
REMARK 921   NORMALIZED FREE ENERGY PREDICTED BY IDOCK:   -3.56 KCAL/MOL
REMARK 922        TOTAL FREE ENERGY PREDICTED BY IDOCK:   -4.28 KCAL/MOL
REMARK 923 INTER-LIGAND FREE ENERGY PREDICTED BY IDOCK:   -3.92 KCAL/MOL
REMARK 924 INTRA-LIGAND FREE ENERGY PREDICTED BY IDOCK:   -0.36 KCAL/MOL
REMARK 927      BINDING AFFINITY PREDICTED BY RF-SCORE:    0.00 PKD
ROOT
HETATM    1  C   UNL     1      -8.505   8.302  70.399  1.00  0.00    -0.129 C  
HETATM    2  S   UNL     1     -10.265   8.237  69.868  1.00  0.00    -0.205 SA 
HETATM    3  C   UNL     1     -10.658   6.701  70.818  1.00  0.00    -0.226 C  
HETATM    4  C   UNL     1     -12.108   6.767  71.304  1.00  0.00    -0.421 C  
HETATM    5  C   UNL     1     -10.569   5.516  69.832  1.00  0.00    -0.387 C  
HETATM    6  CA  UNL     1      -9.576   6.615  71.922  1.00  0.00    -0.149 C  
HETATM    7  N   UNL     1      -8.338   7.192  71.367  1.00  0.00    -0.112 N  
HETATM    8  C   UNL     1      -9.893   7.359  73.233  1.00  0.00    -0.272 C  
HETATM    9  C   UNL     1      -7.562   6.448  70.517  1.00  0.00    -0.096 C  
HETATM   10  O   UNL     1      -8.878   8.155  73.667  1.00  0.00    -0.263 OA 
HETATM   11  OXT UNL     1     -10.910   7.204  73.892  1.00  0.00    -0.258 OA 
HETATM   12  O   UNL     1      -7.279   5.274  70.546  1.00  0.00    -0.061 OA 
HETATM   13  CA  UNL     1      -7.461   7.599  69.497  1.00  0.00    -0.092 C  
ENDROOT
BRANCH  13  14
HETATM   14  N   UNL     1      -7.884   7.305  68.101  1.00  0.00    -0.116 N  
HETATM   15  H   UNL     1      -8.316   6.410  67.871  1.00  0.00     0.000 HD 
HETATM   16  C   UNL     1      -7.687   8.252  67.126  1.00  0.00    -0.097 C  
HETATM   17  O   UNL     1      -7.185   9.342  67.417  1.00  0.00    -0.079 OA 
BRANCH  16  18
HETATM   18  C   UNL     1      -8.237   7.942  65.695  1.00  0.00    -0.137 C  
HETATM   19  C   UNL     1      -7.289   8.597  64.669  1.00  0.00    -0.094 C  
HETATM   20  N   UNL     1      -9.574   8.576  65.594  1.00  0.00    -0.444 NA 
HETATM   21  C   UNL     1      -5.920   7.908  64.678  1.00  0.00    -0.045 C  
HETATM   22  H1  UNL     1      -9.932   8.373  64.661  1.00  0.00     0.000 HD 
HETATM   23  H2  UNL     1      -9.562   9.572  65.810  1.00  0.00     0.000 HD 
HETATM   24  C   UNL     1      -6.042   6.417  64.380  1.00  0.00    -0.030 C  
HETATM   25  C   UNL     1      -7.050   5.716  65.286  1.00  0.00    -0.065 C  
HETATM   26  C   UNL     1      -8.390   6.450  65.348  1.00  0.00    -0.141 C  
ENDBRANCH  16  18
ENDBRANCH  13  14
TORSDOF 2
ENDMDL
MODEL      133
REMARK 921   NORMALIZED FREE ENERGY PREDICTED BY IDOCK:   -3.54 KCAL/MOL
REMARK 922        TOTAL FREE ENERGY PREDICTED BY IDOCK:   -4.26 KCAL/MOL
REMARK 923 INTER-LIGAND FREE ENERGY PREDICTED BY IDOCK:   -3.88 KCAL/MOL
REMARK 924 INTRA-LIGAND FREE ENERGY PREDICTED BY IDOCK:   -0.38 KCAL/MOL
REMARK 927      BINDING AFFINITY PREDICTED BY RF-SCORE:    0.00 PKD
ROOT
HETATM    1  C   UNL     1      -8.898   6.941  65.917  1.00  0.00    -0.105 C  
HETATM    2  S   UNL     1      -7.162   7.122  66.496  1.00  0.00    -0.080 SA 
HETATM    3  C   UNL     1      -6.945   5.333  66.904  1.00  0.00    -0.065 C  
HETATM    4  C   UNL     1      -5.494   4.926  66.633  1.00  0.00    -0.013 C  
HETATM    5  C   UNL     1      -7.179   5.175  68.421  1.00  0.00    -0.063 C  
HETATM    6  CA  UNL     1      -8.022   4.592  66.073  1.00  0.00    -0.099 C  
HETATM    7  N   UNL     1      -9.187   5.489  65.969  1.00  0.00    -0.159 N  
HETATM    8  C   UNL     1      -7.611   4.190  64.645  1.00  0.00    -0.077 C  
HETATM    9  C   UNL     1     -10.051   5.608  67.026  1.00  0.00    -0.188 C  
HETATM   10  O   UNL     1      -8.522   4.540  63.696  1.00  0.00    -0.105 OA 
HETATM   11  OXT UNL     1      -6.614   3.540  64.364  1.00  0.00    -0.036 OA 
HETATM   12  O   UNL     1     -10.470   4.769  67.789  1.00  0.00    -0.016 OA 
HETATM   13  CA  UNL     1     -10.024   7.147  66.961  1.00  0.00    -0.217 C  
ENDROOT
BRANCH  13  14
HETATM   14  N   UNL     1      -9.647   7.871  68.205  1.00  0.00    -0.150 N  
HETATM   15  H   UNL     1      -9.029   7.434  68.889  1.00  0.00     0.000 HD 
HETATM   16  C   UNL     1     -10.140   9.134  68.423  1.00  0.00    -0.196 C  
HETATM   17  O   UNL     1     -10.869   9.665  67.580  1.00  0.00    -0.286 OA 
BRANCH  16  18
HETATM   18  C   UNL     1      -9.640   9.897  69.693  1.00  0.00    -0.227 C  
HETATM   19  C   UNL     1     -10.814  10.739  70.235  1.00  0.00    -0.058 C  
HETATM   20  N   UNL     1      -8.552  10.804  69.258  1.00  0.00    -0.346 NA 
HETATM   21  C   UNL     1     -11.925   9.835  70.781  1.00  0.00    -0.382 C  
HETATM   22  H1  UNL     1      -8.225  11.301  70.087  1.00  0.00     0.000 HD 
HETATM   23  H2  UNL     1      -8.830  11.428  68.501  1.00  0.00     0.000 HD 
HETATM   24  C   UNL     1     -11.407   8.915  71.881  1.00  0.00    -0.446 C  
HETATM   25  C   UNL     1     -10.173   8.125  71.457  1.00  0.00    -0.261 C  
HETATM   26  C   UNL     1      -9.097   9.013  70.831  1.00  0.00    -0.309 C  
ENDBRANCH  16  18
ENDBRANCH  13  14
TORSDOF 2
ENDMDL
MODEL      134
REMARK 921   NORMALIZED FREE ENERGY PREDICTED BY IDOCK:   -3.53 KCAL/MOL
REMARK 922        TOTAL FREE ENERGY PREDICTED BY IDOCK:   -4.25 KCAL/MOL
REMARK 923 INTER-LIGAND FREE ENERGY PREDICTED BY IDOCK:   -3.91 KCAL/MOL
REMARK 924 INTRA-LIGAND FREE ENERGY PREDICTED BY IDOCK:   -0.34 KCAL/MOL
REMARK 927      BINDING AFFINITY PREDICTED BY RF-SCORE:    0.00 PKD
ROOT
HETATM    1  C   UNL     1     -10.798   7.064  68.886  1.00  0.00    -0.167 C  
HETATM    2  S   UNL     1      -9.833   5.513  69.103  1.00  0.00    -0.184 SA 
HETATM    3  C   UNL     1      -9.384   5.853  70.863  1.00  0.00    -0.161 C  
HETATM    4  C   UNL     1      -9.311   4.528  71.629  1.00  0.00    -0.196 C  
HETATM    5  C   UNL     1      -7.962   6.451  70.867  1.00  0.00    -0.112 C  
HETATM    6  CA  UNL     1     -10.440   6.868  71.365  1.00  0.00    -0.209 C  
HETATM    7  N   UNL     1     -10.812   7.715  70.217  1.00  0.00    -0.244 N  
HETATM    8  C   UNL     1     -11.733   6.264  71.940  1.00  0.00    -0.316 C  
HETATM    9  C   UNL     1      -9.983   8.734  69.826  1.00  0.00    -0.190 C  
HETATM   10  O   UNL     1     -12.867   6.821  71.435  1.00  0.00    -0.335 OA 
HETATM   11  OXT UNL     1     -11.775   5.428  72.831  1.00  0.00    -0.297 OA 
HETATM   12  O   UNL     1      -9.336   9.511  70.489  1.00  0.00    -0.252 OA 
HETATM   13  CA  UNL     1     -10.043   8.305  68.348  1.00  0.00    -0.201 C  
ENDROOT
BRANCH  13  14
HETATM   14  N   UNL     1      -8.747   8.045  67.665  1.00  0.00    -0.126 N  
HETATM   15  H   UNL     1      -8.085   7.374  68.055  1.00  0.00     0.000 HD 
HETATM   16  C   UNL     1      -8.452   8.717  66.504  1.00  0.00    -0.116 C  
HETATM   17  O   UNL     1      -9.269   9.510  66.027  1.00  0.00    -0.168 OA 
BRANCH  16  18
HETATM   18  C   UNL     1      -7.125   8.341  65.767  1.00  0.00    -0.071 C  
HETATM   19  C   UNL     1      -7.020   6.802  65.732  1.00  0.00    -0.064 C  
HETATM   20  N   UNL     1      -6.007   8.885  66.575  1.00  0.00    -0.055 NA 
HETATM   21  C   UNL     1      -8.106   6.204  64.830  1.00  0.00    -0.132 C  
HETATM   22  H1  UNL     1      -5.142   8.640  66.094  1.00  0.00     0.000 HD 
HETATM   23  H2  UNL     1      -6.027   8.574  67.546  1.00  0.00     0.000 HD 
HETATM   24  C   UNL     1      -8.019   6.754  63.411  1.00  0.00    -0.070 C  
HETATM   25  C   UNL     1      -8.005   8.279  63.369  1.00  0.00    -0.155 C  
HETATM   26  C   UNL     1      -6.982   8.881  64.332  1.00  0.00    -0.088 C  
ENDBRANCH  16  18
ENDBRANCH  13  14
TORSDOF 2
ENDMDL
MODEL      135
REMARK 921   NORMALIZED FREE ENERGY PREDICTED BY IDOCK:   -3.48 KCAL/MOL
REMARK 922        TOTAL FREE ENERGY PREDICTED BY IDOCK:   -4.19 KCAL/MOL
REMARK 923 INTER-LIGAND FREE ENERGY PREDICTED BY IDOCK:   -3.97 KCAL/MOL
REMARK 924 INTRA-LIGAND FREE ENERGY PREDICTED BY IDOCK:   -0.22 KCAL/MOL
REMARK 927      BINDING AFFINITY PREDICTED BY RF-SCORE:    0.00 PKD
ROOT
HETATM    1  C   UNL     1      -9.102  10.548  66.686  1.00  0.00    -0.155 C  
HETATM    2  S   UNL     1     -10.842  10.379  67.258  1.00  0.00    -0.228 SA 
HETATM    3  C   UNL     1     -10.562  11.242  68.868  1.00  0.00    -0.207 C  
HETATM    4  C   UNL     1     -11.827  12.015  69.251  1.00  0.00    -0.377 C  
HETATM    5  C   UNL     1     -10.359  10.154  69.943  1.00  0.00    -0.308 C  
HETATM    6  CA  UNL     1      -9.286  12.093  68.659  1.00  0.00    -0.015 C  
HETATM    7  N   UNL     1      -8.417  11.356  67.723  1.00  0.00    -0.124 N  
HETATM    8  C   UNL     1      -9.505  13.503  68.082  1.00  0.00    -0.214 C  
HETATM    9  C   UNL     1      -7.668  10.301  68.177  1.00  0.00    -0.092 C  
HETATM   10  O   UNL     1      -8.690  13.796  67.032  1.00  0.00    -0.224 OA 
HETATM   11  OXT UNL     1     -10.265  14.338  68.552  1.00  0.00    -0.234 OA 
HETATM   12  O   UNL     1      -7.063  10.164  69.214  1.00  0.00    -0.061 OA 
HETATM   13  CA  UNL     1      -8.126   9.393  67.020  1.00  0.00    -0.105 C  
ENDROOT
BRANCH  13  14
HETATM   14  N   UNL     1      -8.744   8.090  67.386  1.00  0.00    -0.124 N  
HETATM   15  H   UNL     1      -9.732   8.041  67.634  1.00  0.00     0.000 HD 
HETATM   16  C   UNL     1      -7.971   6.955  67.385  1.00  0.00    -0.112 C  
HETATM   17  O   UNL     1      -6.782   7.019  67.060  1.00  0.00    -0.055 OA 
BRANCH  16  18
HETATM   18  C   UNL     1      -8.683   5.594  67.678  1.00  0.00    -0.107 C  
HETATM   19  C   UNL     1      -8.297   5.153  69.105  1.00  0.00    -0.087 C  
HETATM   20  N   UNL     1      -8.157   4.607  66.705  1.00  0.00    -0.103 NA 
HETATM   21  C   UNL     1      -8.901   6.099  70.148  1.00  0.00    -0.144 C  
HETATM   22  H1  UNL     1      -8.622   3.719  66.897  1.00  0.00     0.000 HD 
HETATM   23  H2  UNL     1      -7.139   4.536  66.718  1.00  0.00     0.000 HD 
HETATM   24  C   UNL     1     -10.420   6.167  70.029  1.00  0.00    -0.294 C  
HETATM   25  C   UNL     1     -10.887   6.491  68.613  1.00  0.00    -0.357 C  
HETATM   26  C   UNL     1     -10.219   5.605  67.560  1.00  0.00    -0.246 C  
ENDBRANCH  16  18
ENDBRANCH  13  14
TORSDOF 2
ENDMDL
MODEL      136
REMARK 921   NORMALIZED FREE ENERGY PREDICTED BY IDOCK:   -3.47 KCAL/MOL
REMARK 922        TOTAL FREE ENERGY PREDICTED BY IDOCK:   -4.18 KCAL/MOL
REMARK 923 INTER-LIGAND FREE ENERGY PREDICTED BY IDOCK:   -3.89 KCAL/MOL
REMARK 924 INTRA-LIGAND FREE ENERGY PREDICTED BY IDOCK:   -0.28 KCAL/MOL
REMARK 927      BINDING AFFINITY PREDICTED BY RF-SCORE:    0.00 PKD
ROOT
HETATM    1  C   UNL     1     -10.401  10.587  65.328  1.00  0.00    -0.229 C  
HETATM    2  S   UNL     1     -10.980  11.015  67.021  1.00  0.00    -0.238 SA 
HETATM    3  C   UNL     1      -9.698  12.317  67.300  1.00  0.00    -0.195 C  
HETATM    4  C   UNL     1     -10.292  13.430  68.169  1.00  0.00    -0.249 C  
HETATM    5  C   UNL     1      -8.558  11.672  68.115  1.00  0.00    -0.158 C  
HETATM    6  CA  UNL     1      -9.230  12.739  65.885  1.00  0.00     0.117 C  
HETATM    7  N   UNL     1      -9.313  11.545  65.024  1.00  0.00    -0.148 N  
HETATM    8  C   UNL     1     -10.045  13.859  65.214  1.00  0.00    -0.303 C  
HETATM    9  C   UNL     1      -8.332  10.590  65.090  1.00  0.00    -0.150 C  
HETATM   10  O   UNL     1     -10.419  13.571  63.937  1.00  0.00    -0.196 OA 
HETATM   11  OXT UNL     1     -10.276  14.949  65.716  1.00  0.00    -0.294 OA 
HETATM   12  O   UNL     1      -7.135  10.708  65.210  1.00  0.00    -0.089 OA 
HETATM   13  CA  UNL     1      -9.360   9.447  65.197  1.00  0.00    -0.221 C  
ENDROOT
BRANCH  13  14
HETATM   14  N   UNL     1      -9.234   8.530  66.361  1.00  0.00    -0.185 N  
HETATM   15  H   UNL     1      -9.655   8.775  67.258  1.00  0.00     0.000 HD 
HETATM   16  C   UNL     1      -8.545   7.351  66.217  1.00  0.00    -0.142 C  
HETATM   17  O   UNL     1      -8.059   7.051  65.122  1.00  0.00    -0.120 OA 
BRANCH  16  18
HETATM   18  C   UNL     1      -8.522   6.372  67.436  1.00  0.00    -0.108 C  
HETATM   19  C   UNL     1      -9.964   5.880  67.678  1.00  0.00    -0.159 C  
HETATM   20  N   UNL     1      -8.070   7.151  68.613  1.00  0.00    -0.123 NA 
HETATM   21  C   UNL     1     -10.436   4.991  66.522  1.00  0.00    -0.325 C  
HETATM   22  H1  UNL     1      -8.055   6.513  69.408  1.00  0.00     0.000 HD 
HETATM   23  H2  UNL     1      -8.633   7.985  68.781  1.00  0.00     0.000 HD 
HETATM   24  C   UNL     1      -9.514   3.792  66.325  1.00  0.00    -0.190 C  
HETATM   25  C   UNL     1      -8.048   4.192  66.188  1.00  0.00    -0.098 C  
HETATM   26  C   UNL     1      -7.597   5.149  67.292  1.00  0.00    -0.091 C  
ENDBRANCH  16  18
ENDBRANCH  13  14
TORSDOF 2
ENDMDL
MODEL      137
REMARK 921   NORMALIZED FREE ENERGY PREDICTED BY IDOCK:   -3.46 KCAL/MOL
REMARK 922        TOTAL FREE ENERGY PREDICTED BY IDOCK:   -4.17 KCAL/MOL
REMARK 923 INTER-LIGAND FREE ENERGY PREDICTED BY IDOCK:   -3.89 KCAL/MOL
REMARK 924 INTRA-LIGAND FREE ENERGY PREDICTED BY IDOCK:   -0.28 KCAL/MOL
REMARK 927      BINDING AFFINITY PREDICTED BY RF-SCORE:    0.00 PKD
ROOT
HETATM    1  C   UNL     1     -10.223   5.824  66.802  1.00  0.00    -0.221 C  
HETATM    2  S   UNL     1      -8.698   6.793  66.455  1.00  0.00    -0.141 SA 
HETATM    3  C   UNL     1      -7.688   5.325  65.966  1.00  0.00    -0.091 C  
HETATM    4  C   UNL     1      -6.697   5.737  64.874  1.00  0.00    -0.047 C  
HETATM    5  C   UNL     1      -6.853   4.911  67.196  1.00  0.00    -0.056 C  
HETATM    6  CA  UNL     1      -8.715   4.235  65.572  1.00  0.00    -0.121 C  
HETATM    7  N   UNL     1      -9.905   4.428  66.422  1.00  0.00    -0.214 N  
HETATM    8  C   UNL     1      -9.181   4.249  64.105  1.00  0.00    -0.150 C  
HETATM    9  C   UNL     1      -9.894   3.983  67.718  1.00  0.00    -0.027 C  
HETATM   10  O   UNL     1     -10.533   4.191  63.961  1.00  0.00    -0.165 OA 
HETATM   11  OXT UNL     1      -8.434   4.224  63.137  1.00  0.00    -0.089 OA 
HETATM   12  O   UNL     1      -9.431   2.972  68.192  1.00  0.00    -0.201 OA 
HETATM   13  CA  UNL     1     -10.435   5.323  68.253  1.00  0.00    -0.069 C  
ENDROOT
BRANCH  13  14
HETATM   14  N   UNL     1      -9.638   6.002  69.310  1.00  0.00    -0.135 N  
HETATM   15  H   UNL     1      -8.684   5.700  69.509  1.00  0.00     0.000 HD 
HETATM   16  C   UNL     1     -10.199   7.038  70.014  1.00  0.00    -0.194 C  
HETATM   17  O   UNL     1     -11.346   7.413  69.750  1.00  0.00    -0.154 OA 
BRANCH  16  18
HETATM   18  C   UNL     1      -9.294   7.787  71.045  1.00  0.00    -0.152 C  
HETATM   19  C   UNL     1     -10.183   8.772  71.832  1.00  0.00    -0.415 C  
HETATM   20  N   UNL     1      -8.289   8.554  70.269  1.00  0.00    -0.119 NA 
HETATM   21  C   UNL     1     -11.177   8.016  72.720  1.00  0.00    -0.448 C  
HETATM   22  H1  UNL     1      -7.698   9.042  70.942  1.00  0.00     0.000 HD 
HETATM   23  H2  UNL     1      -8.708   9.177  69.578  1.00  0.00     0.000 HD 
HETATM   24  C   UNL     1     -10.462   7.085  73.694  1.00  0.00    -0.414 C  
HETATM   25  C   UNL     1      -9.477   6.150  72.999  1.00  0.00    -0.142 C  
HETATM   26  C   UNL     1      -8.539   6.891  72.045  1.00  0.00    -0.121 C  
ENDBRANCH  16  18
ENDBRANCH  13  14
TORSDOF 2
ENDMDL
MODEL      138
REMARK 921   NORMALIZED FREE ENERGY PREDICTED BY IDOCK:   -3.43 KCAL/MOL
REMARK 922        TOTAL FREE ENERGY PREDICTED BY IDOCK:   -4.14 KCAL/MOL
REMARK 923 INTER-LIGAND FREE ENERGY PREDICTED BY IDOCK:   -4.22 KCAL/MOL
REMARK 924 INTRA-LIGAND FREE ENERGY PREDICTED BY IDOCK:    0.09 KCAL/MOL
REMARK 927      BINDING AFFINITY PREDICTED BY RF-SCORE:    0.00 PKD
ROOT
HETATM    1  C   UNL     1     -10.496   7.752  69.629  1.00  0.00    -0.229 C  
HETATM    2  S   UNL     1     -11.961   7.084  70.519  1.00  0.00    -0.205 SA 
HETATM    3  C   UNL     1     -11.951   8.383  71.834  1.00  0.00    -0.338 C  
HETATM    4  C   UNL     1     -13.391   8.681  72.259  1.00  0.00    -0.412 C  
HETATM    5  C   UNL     1     -11.234   7.787  73.064  1.00  0.00    -0.380 C  
HETATM    6  CA  UNL     1     -11.164   9.572  71.227  1.00  0.00    -0.382 C  
HETATM    7  N   UNL     1     -10.138   9.005  70.333  1.00  0.00    -0.194 N  
HETATM    8  C   UNL     1     -11.993  10.579  70.410  1.00  0.00    -0.335 C  
HETATM    9  C   UNL     1      -8.987   8.484  70.863  1.00  0.00    -0.172 C  
HETATM   10  O   UNL     1     -11.453  10.872  69.195  1.00  0.00    -0.254 OA 
HETATM   11  OXT UNL     1     -12.996  11.148  70.817  1.00  0.00    -0.262 OA 
HETATM   12  O   UNL     1      -8.306   8.872  71.783  1.00  0.00    -0.321 OA 
HETATM   13  CA  UNL     1      -9.106   7.196  70.025  1.00  0.00    -0.145 C  
ENDROOT
BRANCH  13  14
HETATM   14  N   UNL     1      -9.096   5.904  70.763  1.00  0.00    -0.151 N  
HETATM   15  H   UNL     1      -9.965   5.512  71.126  1.00  0.00     0.000 HD 
HETATM   16  C   UNL     1      -7.905   5.246  70.951  1.00  0.00    -0.098 C  
HETATM   17  O   UNL     1      -6.862   5.717  70.489  1.00  0.00    -0.048 OA 
BRANCH  16  18
HETATM   18  C   UNL     1      -7.954   3.846  71.644  1.00  0.00    -0.066 C  
HETATM   19  C   UNL     1      -7.673   2.774  70.571  1.00  0.00    -0.043 C  
HETATM   20  N   UNL     1      -9.331   3.663  72.164  1.00  0.00    -0.119 NA 
HETATM   21  C   UNL     1      -6.227   2.870  70.073  1.00  0.00    -0.024 C  
HETATM   22  H1  UNL     1      -9.362   2.749  72.616  1.00  0.00     0.000 HD 
HETATM   23  H2  UNL     1     -10.047   3.779  71.448  1.00  0.00     0.000 HD 
HETATM   24  C   UNL     1      -5.230   2.720  71.216  1.00  0.00    -0.004 C  
HETATM   25  C   UNL     1      -5.510   3.676  72.372  1.00  0.00     0.000 C  
HETATM   26  C   UNL     1      -6.973   3.645  72.815  1.00  0.00    -0.044 C  
ENDBRANCH  16  18
ENDBRANCH  13  14
TORSDOF 2
ENDMDL
MODEL      139
REMARK 921   NORMALIZED FREE ENERGY PREDICTED BY IDOCK:   -3.41 KCAL/MOL
REMARK 922        TOTAL FREE ENERGY PREDICTED BY IDOCK:   -4.11 KCAL/MOL
REMARK 923 INTER-LIGAND FREE ENERGY PREDICTED BY IDOCK:   -4.15 KCAL/MOL
REMARK 924 INTRA-LIGAND FREE ENERGY PREDICTED BY IDOCK:    0.04 KCAL/MOL
REMARK 927      BINDING AFFINITY PREDICTED BY RF-SCORE:    0.00 PKD
ROOT
HETATM    1  C   UNL     1      -7.953  10.087  67.740  1.00  0.00    -0.105 C  
HETATM    2  S   UNL     1      -8.866  10.492  69.284  1.00  0.00    -0.071 SA 
HETATM    3  C   UNL     1     -10.416   9.619  68.783  1.00  0.00    -0.215 C  
HETATM    4  C   UNL     1     -11.084   9.025  70.026  1.00  0.00    -0.197 C  
HETATM    5  C   UNL     1     -11.382  10.683  68.220  1.00  0.00    -0.357 C  
HETATM    6  CA  UNL     1      -9.980   8.604  67.698  1.00  0.00    -0.194 C  
HETATM    7  N   UNL     1      -8.856   9.209  66.960  1.00  0.00    -0.122 N  
HETATM    8  C   UNL     1      -9.517   7.228  68.211  1.00  0.00    -0.141 C  
HETATM    9  C   UNL     1      -9.103  10.160  66.004  1.00  0.00    -0.154 C  
HETATM   10  O   UNL     1      -8.333   6.818  67.680  1.00  0.00    -0.121 OA 
HETATM   11  OXT UNL     1     -10.168   6.508  68.954  1.00  0.00    -0.162 OA 
HETATM   12  O   UNL     1      -9.985  10.228  65.181  1.00  0.00    -0.299 OA 
HETATM   13  CA  UNL     1      -8.030  11.107  66.577  1.00  0.00    -0.158 C  
ENDROOT
BRANCH  13  14
HETATM   14  N   UNL     1      -8.465  12.485  66.933  1.00  0.00    -0.321 N  
HETATM   15  H   UNL     1      -9.458  12.718  66.971  1.00  0.00     0.000 HD 
HETATM   16  C   UNL     1      -7.517  13.438  67.212  1.00  0.00    -0.046 C  
HETATM   17  O   UNL     1      -6.319  13.141  67.187  1.00  0.00    -0.257 OA 
BRANCH  16  18
HETATM   18  C   UNL     1      -8.019  14.844  67.679  1.00  0.00    -0.169 C  
HETATM   19  C   UNL     1      -7.871  14.916  69.213  1.00  0.00    -0.158 C  
HETATM   20  N   UNL     1      -9.456  14.934  67.325  1.00  0.00    -0.209 NA 
HETATM   21  C   UNL     1      -6.392  14.918  69.616  1.00  0.00    -0.142 C  
HETATM   22  H1  UNL     1      -9.783  15.851  67.629  1.00  0.00     0.000 HD 
HETATM   23  H2  UNL     1     -10.010  14.166  67.702  1.00  0.00     0.000 HD 
HETATM   24  C   UNL     1      -5.639  16.079  68.976  1.00  0.00    -0.113 C  
HETATM   25  C   UNL     1      -5.827  16.141  67.463  1.00  0.00    -0.180 C  
HETATM   26  C   UNL     1      -7.297  16.052  67.053  1.00  0.00    -0.258 C  
ENDBRANCH  16  18
ENDBRANCH  13  14
TORSDOF 2
ENDMDL
MODEL      140
REMARK 921   NORMALIZED FREE ENERGY PREDICTED BY IDOCK:   -3.38 KCAL/MOL
REMARK 922        TOTAL FREE ENERGY PREDICTED BY IDOCK:   -4.08 KCAL/MOL
REMARK 923 INTER-LIGAND FREE ENERGY PREDICTED BY IDOCK:   -3.67 KCAL/MOL
REMARK 924 INTRA-LIGAND FREE ENERGY PREDICTED BY IDOCK:   -0.41 KCAL/MOL
REMARK 927      BINDING AFFINITY PREDICTED BY RF-SCORE:    0.00 PKD
ROOT
HETATM    1  C   UNL     1      -7.333   6.529  68.383  1.00  0.00    -0.087 C  
HETATM    2  S   UNL     1      -7.411   4.742  68.813  1.00  0.00    -0.065 SA 
HETATM    3  C   UNL     1      -9.188   4.546  68.342  1.00  0.00    -0.133 C  
HETATM    4  C   UNL     1      -9.407   3.139  67.779  1.00  0.00    -0.252 C  
HETATM    5  C   UNL     1     -10.021   4.645  69.637  1.00  0.00    -0.281 C  
HETATM    6  CA  UNL     1      -9.485   5.717  67.372  1.00  0.00    -0.114 C  
HETATM    7  N   UNL     1      -8.654   6.858  67.798  1.00  0.00    -0.122 N  
HETATM    8  C   UNL     1      -9.188   5.450  65.886  1.00  0.00    -0.156 C  
HETATM    9  C   UNL     1      -9.041   7.617  68.872  1.00  0.00    -0.140 C  
HETATM   10  O   UNL     1      -8.458   6.432  65.290  1.00  0.00    -0.149 OA 
HETATM   11  OXT UNL     1      -9.626   4.504  65.247  1.00  0.00    -0.164 OA 
HETATM   12  O   UNL     1     -10.140   7.991  69.207  1.00  0.00    -0.188 OA 
HETATM   13  CA  UNL     1      -7.639   7.548  69.509  1.00  0.00    -0.095 C  
ENDROOT
BRANCH  13  14
HETATM   14  N   UNL     1      -7.554   7.037  70.904  1.00  0.00    -0.085 N  
HETATM   15  H   UNL     1      -7.223   6.090  71.086  1.00  0.00     0.000 HD 
HETATM   16  C   UNL     1      -7.927   7.855  71.943  1.00  0.00    -0.106 C  
HETATM   17  O   UNL     1      -8.304   9.008  71.715  1.00  0.00    -0.353 OA 
BRANCH  16  18
HETATM   18  C   UNL     1      -7.728   7.313  73.396  1.00  0.00    -0.093 C  
HETATM   19  C   UNL     1      -8.977   7.690  74.219  1.00  0.00    -0.183 C  
HETATM   20  N   UNL     1      -6.546   8.007  73.963  1.00  0.00    -0.106 NA 
HETATM   21  C   UNL     1     -10.206   6.922  73.723  1.00  0.00    -0.396 C  
HETATM   22  H1  UNL     1      -6.416   7.653  74.911  1.00  0.00     0.000 HD 
HETATM   23  H2  UNL     1      -6.620   9.023  73.922  1.00  0.00     0.000 HD 
HETATM   24  C   UNL     1      -9.988   5.414  73.788  1.00  0.00    -0.197 C  
HETATM   25  C   UNL     1      -8.707   4.973  73.087  1.00  0.00    -0.112 C  
HETATM   26  C   UNL     1      -7.492   5.796  73.517  1.00  0.00    -0.091 C  
ENDBRANCH  16  18
ENDBRANCH  13  14
TORSDOF 2
ENDMDL
MODEL      141
REMARK 921   NORMALIZED FREE ENERGY PREDICTED BY IDOCK:   -3.37 KCAL/MOL
REMARK 922        TOTAL FREE ENERGY PREDICTED BY IDOCK:   -4.07 KCAL/MOL
REMARK 923 INTER-LIGAND FREE ENERGY PREDICTED BY IDOCK:   -4.00 KCAL/MOL
REMARK 924 INTRA-LIGAND FREE ENERGY PREDICTED BY IDOCK:   -0.06 KCAL/MOL
REMARK 927      BINDING AFFINITY PREDICTED BY RF-SCORE:    0.00 PKD
ROOT
HETATM    1  C   UNL     1      -7.974   8.825  69.671  1.00  0.00    -0.096 C  
HETATM    2  S   UNL     1      -8.206   7.345  68.604  1.00  0.00    -0.126 SA 
HETATM    3  C   UNL     1      -9.908   7.814  68.054  1.00  0.00    -0.163 C  
HETATM    4  C   UNL     1     -10.120   7.338  66.614  1.00  0.00    -0.238 C  
HETATM    5  C   UNL     1     -10.906   7.034  68.936  1.00  0.00    -0.203 C  
HETATM    6  CA  UNL     1     -10.004   9.342  68.284  1.00  0.00    -0.174 C  
HETATM    7  N   UNL     1      -9.182   9.659  69.466  1.00  0.00    -0.189 N  
HETATM    8  C   UNL     1      -9.519  10.229  67.123  1.00  0.00    -0.158 C  
HETATM    9  C   UNL     1      -9.673   9.415  70.722  1.00  0.00    -0.264 C  
HETATM   10  O   UNL     1      -8.661  11.212  67.510  1.00  0.00    -0.128 OA 
HETATM   11  OXT UNL     1      -9.913  10.143  65.969  1.00  0.00    -0.229 OA 
HETATM   12  O   UNL     1     -10.787   9.565  71.167  1.00  0.00    -0.315 OA 
HETATM   13  CA  UNL     1      -8.380   8.701  71.161  1.00  0.00    -0.164 C  
ENDROOT
BRANCH  13  14
HETATM   14  N   UNL     1      -8.517   7.320  71.696  1.00  0.00    -0.112 N  
HETATM   15  H   UNL     1      -9.072   6.626  71.194  1.00  0.00     0.000 HD 
HETATM   16  C   UNL     1      -7.888   6.989  72.871  1.00  0.00    -0.098 C  
HETATM   17  O   UNL     1      -7.199   7.828  73.459  1.00  0.00    -0.095 OA 
BRANCH  16  18
HETATM   18  C   UNL     1      -7.977   5.501  73.345  1.00  0.00    -0.114 C  
HETATM   19  C   UNL     1      -9.001   5.429  74.496  1.00  0.00    -0.117 C  
HETATM   20  N   UNL     1      -6.638   5.127  73.861  1.00  0.00    -0.071 NA 
HETATM   21  C   UNL     1     -10.416   5.720  73.983  1.00  0.00    -0.286 C  
HETATM   22  H1  UNL     1      -6.696   4.156  74.170  1.00  0.00     0.000 HD 
HETATM   23  H2  UNL     1      -6.299   5.758  74.587  1.00  0.00     0.000 HD 
HETATM   24  C   UNL     1     -10.821   4.750  72.878  1.00  0.00    -0.306 C  
HETATM   25  C   UNL     1      -9.798   4.683  71.749  1.00  0.00    -0.247 C  
HETATM   26  C   UNL     1      -8.372   4.479  72.263  1.00  0.00    -0.110 C  
ENDBRANCH  16  18
ENDBRANCH  13  14
TORSDOF 2
ENDMDL
MODEL      142
REMARK 921   NORMALIZED FREE ENERGY PREDICTED BY IDOCK:   -3.34 KCAL/MOL
REMARK 922        TOTAL FREE ENERGY PREDICTED BY IDOCK:   -4.03 KCAL/MOL
REMARK 923 INTER-LIGAND FREE ENERGY PREDICTED BY IDOCK:   -4.05 KCAL/MOL
REMARK 924 INTRA-LIGAND FREE ENERGY PREDICTED BY IDOCK:    0.02 KCAL/MOL
REMARK 927      BINDING AFFINITY PREDICTED BY RF-SCORE:    0.00 PKD
ROOT
HETATM    1  C   UNL     1     -10.370   6.673  70.903  1.00  0.00    -0.208 C  
HETATM    2  S   UNL     1     -10.884   6.003  69.269  1.00  0.00    -0.362 SA 
HETATM    3  C   UNL     1      -9.290   5.124  68.952  1.00  0.00    -0.125 C  
HETATM    4  C   UNL     1      -9.571   3.840  68.166  1.00  0.00    -0.176 C  
HETATM    5  C   UNL     1      -8.438   6.032  68.040  1.00  0.00    -0.115 C  
HETATM    6  CA  UNL     1      -8.643   4.936  70.347  1.00  0.00    -0.099 C  
HETATM    7  N   UNL     1      -9.031   6.097  71.168  1.00  0.00    -0.143 N  
HETATM    8  C   UNL     1      -9.050   3.664  71.111  1.00  0.00    -0.109 C  
HETATM    9  C   UNL     1      -8.384   7.294  71.003  1.00  0.00    -0.119 C  
HETATM   10  O   UNL     1      -9.425   3.897  72.398  1.00  0.00    -0.118 OA 
HETATM   11  OXT UNL     1      -8.972   2.528  70.664  1.00  0.00    -0.077 OA 
HETATM   12  O   UNL     1      -7.215   7.528  70.807  1.00  0.00    -0.065 OA 
HETATM   13  CA  UNL     1      -9.711   8.075  70.924  1.00  0.00    -0.164 C  
ENDROOT
BRANCH  13  14
HETATM   14  N   UNL     1      -9.925   8.924  69.722  1.00  0.00    -0.186 N  
HETATM   15  H   UNL     1     -10.702   8.734  69.089  1.00  0.00     0.000 HD 
HETATM   16  C   UNL     1      -9.067   9.967  69.474  1.00  0.00    -0.220 C  
HETATM   17  O   UNL     1      -8.144  10.206  70.258  1.00  0.00    -0.134 OA 
BRANCH  16  18
HETATM   18  C   UNL     1      -9.388  10.894  68.256  1.00  0.00    -0.168 C  
HETATM   19  C   UNL     1      -8.102  11.035  67.414  1.00  0.00    -0.122 C  
HETATM   20  N   UNL     1      -9.758  12.222  68.802  1.00  0.00    -0.411 NA 
HETATM   21  C   UNL     1      -7.735   9.701  66.755  1.00  0.00    -0.098 C  
HETATM   22  H1  UNL     1      -9.968  12.826  68.008  1.00  0.00     0.000 HD 
HETATM   23  H2  UNL     1      -9.050  12.610  69.424  1.00  0.00     0.000 HD 
HETATM   24  C   UNL     1      -8.867   9.182  65.874  1.00  0.00    -0.209 C  
HETATM   25  C   UNL     1     -10.203   9.118  66.608  1.00  0.00    -0.328 C  
HETATM   26  C   UNL     1     -10.532  10.421  67.340  1.00  0.00    -0.299 C  
ENDBRANCH  16  18
ENDBRANCH  13  14
TORSDOF 2
ENDMDL
MODEL      143
REMARK 921   NORMALIZED FREE ENERGY PREDICTED BY IDOCK:   -3.31 KCAL/MOL
REMARK 922        TOTAL FREE ENERGY PREDICTED BY IDOCK:   -4.00 KCAL/MOL
REMARK 923 INTER-LIGAND FREE ENERGY PREDICTED BY IDOCK:   -3.62 KCAL/MOL
REMARK 924 INTRA-LIGAND FREE ENERGY PREDICTED BY IDOCK:   -0.38 KCAL/MOL
REMARK 927      BINDING AFFINITY PREDICTED BY RF-SCORE:    0.00 PKD
ROOT
HETATM    1  C   UNL     1      -8.150   7.128  70.966  1.00  0.00    -0.104 C  
HETATM    2  S   UNL     1      -9.707   8.107  71.011  1.00  0.00    -0.166 SA 
HETATM    3  C   UNL     1     -10.808   6.641  71.244  1.00  0.00    -0.238 C  
HETATM    4  C   UNL     1     -12.002   7.041  72.115  1.00  0.00    -0.299 C  
HETATM    5  C   UNL     1     -11.371   6.264  69.857  1.00  0.00    -0.504 C  
HETATM    6  CA  UNL     1      -9.893   5.531  71.817  1.00  0.00    -0.171 C  
HETATM    7  N   UNL     1      -8.551   5.728  71.239  1.00  0.00    -0.128 N  
HETATM    8  C   UNL     1      -9.744   5.507  73.349  1.00  0.00    -0.151 C  
HETATM    9  C   UNL     1      -8.295   5.311  69.958  1.00  0.00    -0.098 C  
HETATM   10  O   UNL     1      -8.452   5.430  73.770  1.00  0.00    -0.111 OA 
HETATM   11  OXT UNL     1     -10.676   5.470  74.139  1.00  0.00    -0.261 OA 
HETATM   12  O   UNL     1      -8.656   4.316  69.375  1.00  0.00    -0.077 OA 
HETATM   13  CA  UNL     1      -7.644   6.656  69.580  1.00  0.00    -0.098 C  
ENDROOT
BRANCH  13  14
HETATM   14  N   UNL     1      -8.199   7.367  68.397  1.00  0.00    -0.124 N  
HETATM   15  H   UNL     1      -9.204   7.376  68.226  1.00  0.00     0.000 HD 
HETATM   16  C   UNL     1      -7.343   8.010  67.537  1.00  0.00    -0.089 C  
HETATM   17  O   UNL     1      -6.129   8.014  67.764  1.00  0.00    -0.044 OA 
BRANCH  16  18
HETATM   18  C   UNL     1      -7.974   8.828  66.363  1.00  0.00    -0.103 C  
HETATM   19  C   UNL     1      -9.320   9.402  66.854  1.00  0.00    -0.188 C  
HETATM   20  N   UNL     1      -8.228   7.876  65.255  1.00  0.00    -0.142 NA 
HETATM   21  C   UNL     1      -9.095  10.461  67.939  1.00  0.00    -0.132 C  
HETATM   22  H1  UNL     1      -8.640   8.409  64.490  1.00  0.00     0.000 HD 
HETATM   23  H2  UNL     1      -8.796   7.076  65.537  1.00  0.00     0.000 HD 
HETATM   24  C   UNL     1      -8.208  11.596  67.438  1.00  0.00    -0.153 C  
HETATM   25  C   UNL     1      -6.898  11.098  66.834  1.00  0.00    -0.127 C  
HETATM   26  C   UNL     1      -7.113   9.980  65.813  1.00  0.00    -0.117 C  
ENDBRANCH  16  18
ENDBRANCH  13  14
TORSDOF 2
ENDMDL
MODEL      144
REMARK 921   NORMALIZED FREE ENERGY PREDICTED BY IDOCK:   -3.29 KCAL/MOL
REMARK 922        TOTAL FREE ENERGY PREDICTED BY IDOCK:   -3.98 KCAL/MOL
REMARK 923 INTER-LIGAND FREE ENERGY PREDICTED BY IDOCK:   -3.64 KCAL/MOL
REMARK 924 INTRA-LIGAND FREE ENERGY PREDICTED BY IDOCK:   -0.34 KCAL/MOL
REMARK 927      BINDING AFFINITY PREDICTED BY RF-SCORE:    0.00 PKD
ROOT
HETATM    1  C   UNL     1     -12.118  11.200  68.112  1.00  0.00     0.123 C  
HETATM    2  S   UNL     1     -13.091  10.456  69.485  1.00  0.00     1.636 SA 
HETATM    3  C   UNL     1     -12.100  11.249  70.828  1.00  0.00    -0.349 C  
HETATM    4  C   UNL     1     -13.017  11.560  72.014  1.00  0.00    -0.373 C  
HETATM    5  C   UNL     1     -11.071  10.208  71.316  1.00  0.00    -0.024 C  
HETATM    6  CA  UNL     1     -11.416  12.470  70.163  1.00  0.00     0.075 C  
HETATM    7  N   UNL     1     -11.142  12.107  68.761  1.00  0.00    -0.236 N  
HETATM    8  C   UNL     1     -12.228  13.777  70.160  1.00  0.00    -0.356 C  
HETATM    9  C   UNL     1     -10.067  11.311  68.461  1.00  0.00    -0.204 C  
HETATM   10  O   UNL     1     -12.283  14.382  68.942  1.00  0.00    -0.281 OA 
HETATM   11  OXT UNL     1     -12.715  14.297  71.154  1.00  0.00    -0.319 OA 
HETATM   12  O   UNL     1      -8.952  11.299  68.926  1.00  0.00    -0.142 OA 
HETATM   13  CA  UNL     1     -10.917  10.387  67.567  1.00  0.00    -0.295 C  
ENDROOT
BRANCH  13  14
HETATM   14  N   UNL     1     -10.902   8.934  67.887  1.00  0.00    -0.484 N  
HETATM   15  H   UNL     1     -11.326   8.593  68.750  1.00  0.00     0.000 HD 
HETATM   16  C   UNL     1     -10.312   8.059  67.009  1.00  0.00    -0.344 C  
HETATM   17  O   UNL     1      -9.823   8.478  65.956  1.00  0.00    -0.212 OA 
BRANCH  16  18
HETATM   18  C   UNL     1     -10.407   6.532  67.336  1.00  0.00    -0.208 C  
HETATM   19  C   UNL     1      -8.978   5.951  67.311  1.00  0.00    -0.108 C  
HETATM   20  N   UNL     1     -11.207   5.903  66.258  1.00  0.00    -0.697 NA 
HETATM   21  C   UNL     1      -8.144   6.508  68.469  1.00  0.00    -0.114 C  
HETATM   22  H1  UNL     1     -11.269   4.908  66.472  1.00  0.00     0.000 HD 
HETATM   23  H2  UNL     1     -10.838   6.090  65.326  1.00  0.00     0.000 HD 
HETATM   24  C   UNL     1      -8.791   6.212  69.818  1.00  0.00    -0.135 C  
HETATM   25  C   UNL     1     -10.248   6.660  69.884  1.00  0.00    -0.214 C  
HETATM   26  C   UNL     1     -11.063   6.178  68.684  1.00  0.00    -0.378 C  
ENDBRANCH  16  18
ENDBRANCH  13  14
TORSDOF 2
ENDMDL
MODEL      145
REMARK 921   NORMALIZED FREE ENERGY PREDICTED BY IDOCK:   -3.27 KCAL/MOL
REMARK 922        TOTAL FREE ENERGY PREDICTED BY IDOCK:   -3.96 KCAL/MOL
REMARK 923 INTER-LIGAND FREE ENERGY PREDICTED BY IDOCK:   -4.30 KCAL/MOL
REMARK 924 INTRA-LIGAND FREE ENERGY PREDICTED BY IDOCK:    0.34 KCAL/MOL
REMARK 927      BINDING AFFINITY PREDICTED BY RF-SCORE:    0.00 PKD
ROOT
HETATM    1  C   UNL     1     -10.293   8.762  69.251  1.00  0.00    -0.214 C  
HETATM    2  S   UNL     1     -11.241   7.211  69.530  1.00  0.00    -0.022 SA 
HETATM    3  C   UNL     1     -11.304   7.395  71.368  1.00  0.00    -0.256 C  
HETATM    4  C   UNL     1     -12.625   6.819  71.887  1.00  0.00    -0.328 C  
HETATM    5  C   UNL     1     -10.174   6.523  71.956  1.00  0.00    -0.212 C  
HETATM    6  CA  UNL     1     -11.070   8.902  71.636  1.00  0.00    -0.350 C  
HETATM    7  N   UNL     1     -10.164   9.397  70.583  1.00  0.00    -0.267 N  
HETATM    8  C   UNL     1     -12.328   9.789  71.627  1.00  0.00    -0.408 C  
HETATM    9  C   UNL     1      -8.819   9.149  70.671  1.00  0.00    -0.232 C  
HETATM   10  O   UNL     1     -12.201  10.907  70.862  1.00  0.00    -0.335 OA 
HETATM   11  OXT UNL     1     -13.327   9.587  72.302  1.00  0.00    -0.438 OA 
HETATM   12  O   UNL     1      -8.086   9.155  71.631  1.00  0.00    -0.346 OA 
HETATM   13  CA  UNL     1      -8.748   8.657  69.212  1.00  0.00    -0.133 C  
ENDROOT
BRANCH  13  14
HETATM   14  N   UNL     1      -8.183   7.300  68.982  1.00  0.00    -0.124 N  
HETATM   15  H   UNL     1      -8.155   6.618  69.741  1.00  0.00     0.000 HD 
HETATM   16  C   UNL     1      -7.701   6.974  67.738  1.00  0.00    -0.112 C  
HETATM   17  O   UNL     1      -7.761   7.797  66.819  1.00  0.00    -0.095 OA 
BRANCH  16  18
HETATM   18  C   UNL     1      -7.209   5.507  67.514  1.00  0.00    -0.075 C  
HETATM   19  C   UNL     1      -5.946   5.293  68.373  1.00  0.00    -0.021 C  
HETATM   20  N   UNL     1      -6.849   5.381  66.081  1.00  0.00    -0.057 NA 
HETATM   21  C   UNL     1      -6.292   5.323  69.865  1.00  0.00    -0.026 C  
HETATM   22  H1  UNL     1      -6.528   4.424  65.935  1.00  0.00     0.000 HD 
HETATM   23  H2  UNL     1      -6.173   6.081  65.775  1.00  0.00     0.000 HD 
HETATM   24  C   UNL     1      -7.335   4.269  70.220  1.00  0.00    -0.045 C  
HETATM   25  C   UNL     1      -8.576   4.346  69.335  1.00  0.00    -0.107 C  
HETATM   26  C   UNL     1      -8.229   4.403  67.846  1.00  0.00    -0.095 C  
ENDBRANCH  16  18
ENDBRANCH  13  14
TORSDOF 2
ENDMDL
MODEL      146
REMARK 921   NORMALIZED FREE ENERGY PREDICTED BY IDOCK:   -3.25 KCAL/MOL
REMARK 922        TOTAL FREE ENERGY PREDICTED BY IDOCK:   -3.93 KCAL/MOL
REMARK 923 INTER-LIGAND FREE ENERGY PREDICTED BY IDOCK:   -3.90 KCAL/MOL
REMARK 924 INTRA-LIGAND FREE ENERGY PREDICTED BY IDOCK:   -0.03 KCAL/MOL
REMARK 927      BINDING AFFINITY PREDICTED BY RF-SCORE:    0.00 PKD
ROOT
HETATM    1  C   UNL     1     -10.745   9.168  70.375  1.00  0.00    -0.238 C  
HETATM    2  S   UNL     1      -8.990   9.715  70.301  1.00  0.00    -0.158 SA 
HETATM    3  C   UNL     1      -8.780   9.328  68.506  1.00  0.00    -0.128 C  
HETATM    4  C   UNL     1      -7.817  10.342  67.882  1.00  0.00    -0.101 C  
HETATM    5  C   UNL     1      -8.100   7.946  68.410  1.00  0.00    -0.123 C  
HETATM    6  CA  UNL     1     -10.215   9.309  67.923  1.00  0.00    -0.214 C  
HETATM    7  N   UNL     1     -11.111   8.813  68.983  1.00  0.00     0.090 N  
HETATM    8  C   UNL     1     -10.763  10.664  67.441  1.00  0.00    -0.276 C  
HETATM    9  C   UNL     1     -11.174   7.470  69.248  1.00  0.00     0.163 C  
HETATM   10  O   UNL     1     -12.010  10.945  67.909  1.00  0.00    -0.585 OA 
HETATM   11  OXT UNL     1     -10.199  11.400  66.644  1.00  0.00    -0.210 OA 
HETATM   12  O   UNL     1     -11.161   6.525  68.494  1.00  0.00    -0.296 OA 
HETATM   13  CA  UNL     1     -11.017   7.694  70.764  1.00  0.00    -0.252 C  
ENDROOT
BRANCH  13  14
HETATM   14  N   UNL     1      -9.906   6.973  71.443  1.00  0.00    -0.177 N  
HETATM   15  H   UNL     1      -9.116   6.620  70.904  1.00  0.00     0.000 HD 
HETATM   16  C   UNL     1      -9.956   6.789  72.803  1.00  0.00    -0.173 C  
HETATM   17  O   UNL     1     -10.905   7.241  73.452  1.00  0.00    -0.374 OA 
BRANCH  16  18
HETATM   18  C   UNL     1      -8.723   6.116  73.488  1.00  0.00    -0.125 C  
HETATM   19  C   UNL     1      -7.710   5.744  72.385  1.00  0.00    -0.102 C  
HETATM   20  N   UNL     1      -9.208   4.876  74.140  1.00  0.00    -0.114 NA 
HETATM   21  C   UNL     1      -7.115   7.004  71.747  1.00  0.00    -0.070 C  
HETATM   22  H1  UNL     1      -8.403   4.437  74.587  1.00  0.00     0.000 HD 
HETATM   23  H2  UNL     1      -9.698   4.253  73.499  1.00  0.00     0.000 HD 
HETATM   24  C   UNL     1      -6.435   7.889  72.786  1.00  0.00    -0.071 C  
HETATM   25  C   UNL     1      -7.341   8.212  73.970  1.00  0.00    -0.216 C  
HETATM   26  C   UNL     1      -8.006   6.965  74.555  1.00  0.00    -0.151 C  
ENDBRANCH  16  18
ENDBRANCH  13  14
TORSDOF 2
ENDMDL
MODEL      147
REMARK 921   NORMALIZED FREE ENERGY PREDICTED BY IDOCK:   -3.25 KCAL/MOL
REMARK 922        TOTAL FREE ENERGY PREDICTED BY IDOCK:   -3.93 KCAL/MOL
REMARK 923 INTER-LIGAND FREE ENERGY PREDICTED BY IDOCK:   -4.40 KCAL/MOL
REMARK 924 INTRA-LIGAND FREE ENERGY PREDICTED BY IDOCK:    0.47 KCAL/MOL
REMARK 927      BINDING AFFINITY PREDICTED BY RF-SCORE:    0.00 PKD
ROOT
HETATM    1  C   UNL     1      -9.057  13.900  68.001  1.00  0.00    -0.192 C  
HETATM    2  S   UNL     1      -9.053  14.306  66.207  1.00  0.00     0.040 SA 
HETATM    3  C   UNL     1     -10.739  15.062  66.213  1.00  0.00    -0.322 C  
HETATM    4  C   UNL     1     -10.783  16.206  65.196  1.00  0.00    -0.391 C  
HETATM    5  C   UNL     1     -11.728  13.985  65.720  1.00  0.00    -0.368 C  
HETATM    6  CA  UNL     1     -11.004  15.457  67.687  1.00  0.00    -0.315 C  
HETATM    7  N   UNL     1     -10.319  14.464  68.535  1.00  0.00    -0.242 N  
HETATM    8  C   UNL     1     -10.511  16.853  68.108  1.00  0.00    -0.350 C  
HETATM    9  C   UNL     1     -10.888  13.234  68.738  1.00  0.00    -0.243 C  
HETATM   10  O   UNL     1      -9.790  16.852  69.262  1.00  0.00    -0.237 OA 
HETATM   11  OXT UNL     1     -10.796  17.894  67.535  1.00  0.00    -0.364 OA 
HETATM   12  O   UNL     1     -12.045  12.929  68.910  1.00  0.00    -0.270 OA 
HETATM   13  CA  UNL     1      -9.573  12.499  68.414  1.00  0.00    -0.176 C  
ENDROOT
BRANCH  13  14
HETATM   14  N   UNL     1      -9.619  11.469  67.342  1.00  0.00    -0.168 N  
HETATM   15  H   UNL     1     -10.515  11.146  66.976  1.00  0.00     0.000 HD 
HETATM   16  C   UNL     1      -8.444  10.958  66.849  1.00  0.00    -0.135 C  
HETATM   17  O   UNL     1      -7.363  11.371  67.281  1.00  0.00    -0.114 OA 
BRANCH  16  18
HETATM   18  C   UNL     1      -8.535   9.952  65.656  1.00  0.00    -0.144 C  
HETATM   19  C   UNL     1      -9.974   9.398  65.611  1.00  0.00    -0.210 C  
HETATM   20  N   UNL     1      -7.596   8.842  65.946  1.00  0.00    -0.092 NA 
HETATM   21  C   UNL     1     -10.968  10.497  65.222  1.00  0.00     0.304 C  
HETATM   22  H1  UNL     1      -7.656   8.187  65.167  1.00  0.00     0.000 HD 
HETATM   23  H2  UNL     1      -7.763   8.404  66.851  1.00  0.00     0.000 HD 
HETATM   24  C   UNL     1     -10.618  11.117  63.873  1.00  0.00    -0.431 C  
HETATM   25  C   UNL     1      -9.170  11.592  63.801  1.00  0.00     0.083 C  
HETATM   26  C   UNL     1      -8.180  10.526  64.271  1.00  0.00    -0.062 C  
ENDBRANCH  16  18
ENDBRANCH  13  14
TORSDOF 2
ENDMDL
MODEL      148
REMARK 921   NORMALIZED FREE ENERGY PREDICTED BY IDOCK:   -3.20 KCAL/MOL
REMARK 922        TOTAL FREE ENERGY PREDICTED BY IDOCK:   -3.88 KCAL/MOL
REMARK 923 INTER-LIGAND FREE ENERGY PREDICTED BY IDOCK:   -3.94 KCAL/MOL
REMARK 924 INTRA-LIGAND FREE ENERGY PREDICTED BY IDOCK:    0.05 KCAL/MOL
REMARK 927      BINDING AFFINITY PREDICTED BY RF-SCORE:    0.00 PKD
ROOT
HETATM    1  C   UNL     1     -10.521  14.810  67.287  1.00  0.00    -0.264 C  
HETATM    2  S   UNL     1     -12.161  14.009  67.521  1.00  0.00    -0.240 SA 
HETATM    3  C   UNL     1     -11.828  13.478  69.260  1.00  0.00    -0.341 C  
HETATM    4  C   UNL     1     -13.134  13.525  70.059  1.00  0.00     0.605 C  
HETATM    5  C   UNL     1     -11.384  12.001  69.213  1.00  0.00    -0.330 C  
HETATM    6  CA  UNL     1     -10.694  14.406  69.761  1.00  0.00     0.011 C  
HETATM    7  N   UNL     1      -9.841  14.718  68.600  1.00  0.00    -0.220 N  
HETATM    8  C   UNL     1     -11.144  15.740  70.384  1.00  0.00    -0.366 C  
HETATM    9  C   UNL     1      -8.925  13.797  68.162  1.00  0.00    -0.190 C  
HETATM   10  O   UNL     1     -10.482  16.823  69.892  1.00  0.00    -0.198 OA 
HETATM   11  OXT UNL     1     -11.950  15.846  71.297  1.00  0.00    -0.384 OA 
HETATM   12  O   UNL     1      -8.206  13.054  68.787  1.00  0.00    -0.038 OA 
HETATM   13  CA  UNL     1      -9.381  13.943  66.697  1.00  0.00    -0.268 C  
ENDROOT
BRANCH  13  14
HETATM   14  N   UNL     1      -9.794  12.700  65.990  1.00  0.00    -0.259 N  
HETATM   15  H   UNL     1      -9.631  11.787  66.415  1.00  0.00     0.000 HD 
HETATM   16  C   UNL     1     -10.396  12.796  64.759  1.00  0.00    -0.322 C  
HETATM   17  O   UNL     1     -10.610  13.906  64.262  1.00  0.00    -0.328 OA 
BRANCH  16  18
HETATM   18  C   UNL     1     -10.902  11.473  64.097  1.00  0.00    -0.372 C  
HETATM   19  C   UNL     1     -10.209  11.332  62.726  1.00  0.00    -0.075 C  
HETATM   20  N   UNL     1     -12.363  11.620  63.889  1.00  0.00    -0.356 NA 
HETATM   21  C   UNL     1      -8.706  11.085  62.900  1.00  0.00    -0.209 C  
HETATM   22  H1  UNL     1     -12.693  10.757  63.457  1.00  0.00     0.000 HD 
HETATM   23  H2  UNL     1     -12.609  12.454  63.356  1.00  0.00     0.000 HD 
HETATM   24  C   UNL     1      -8.437   9.840  63.739  1.00  0.00    -0.186 C  
HETATM   25  C   UNL     1      -9.180   9.855  65.071  1.00  0.00    -0.295 C  
HETATM   26  C   UNL     1     -10.664  10.186  64.909  1.00  0.00     0.690 C  
ENDBRANCH  16  18
ENDBRANCH  13  14
TORSDOF 2
ENDMDL
MODEL      149
REMARK 921   NORMALIZED FREE ENERGY PREDICTED BY IDOCK:   -3.20 KCAL/MOL
REMARK 922        TOTAL FREE ENERGY PREDICTED BY IDOCK:   -3.88 KCAL/MOL
REMARK 923 INTER-LIGAND FREE ENERGY PREDICTED BY IDOCK:   -3.96 KCAL/MOL
REMARK 924 INTRA-LIGAND FREE ENERGY PREDICTED BY IDOCK:    0.08 KCAL/MOL
REMARK 927      BINDING AFFINITY PREDICTED BY RF-SCORE:    0.00 PKD
ROOT
HETATM    1  C   UNL     1      -8.157   6.380  70.752  1.00  0.00    -0.120 C  
HETATM    2  S   UNL     1      -9.293   7.798  70.465  1.00  0.00    -0.163 SA 
HETATM    3  C   UNL     1     -10.701   7.065  71.411  1.00  0.00    -0.219 C  
HETATM    4  C   UNL     1     -11.488   8.188  72.093  1.00  0.00    -0.412 C  
HETATM    5  C   UNL     1     -11.652   6.410  70.387  1.00  0.00    -0.440 C  
HETATM    6  CA  UNL     1     -10.058   6.019  72.355  1.00  0.00    -0.175 C  
HETATM    7  N   UNL     1      -8.889   5.459  71.654  1.00  0.00    -0.135 N  
HETATM    8  C   UNL     1      -9.578   6.548  73.718  1.00  0.00    -0.188 C  
HETATM    9  C   UNL     1      -9.069   4.508  70.683  1.00  0.00    -0.119 C  
HETATM   10  O   UNL     1      -8.310   6.170  74.034  1.00  0.00    -0.115 OA 
HETATM   11  OXT UNL     1     -10.273   7.175  74.506  1.00  0.00    -0.085 OA 
HETATM   12  O   UNL     1      -9.836   3.575  70.637  1.00  0.00    -0.165 OA 
HETATM   13  CA  UNL     1      -8.147   5.248  69.694  1.00  0.00    -0.091 C  
ENDROOT
BRANCH  13  14
HETATM   14  N   UNL     1      -8.715   5.584  68.361  1.00  0.00    -0.105 N  
HETATM   15  H   UNL     1      -9.725   5.656  68.235  1.00  0.00     0.000 HD 
HETATM   16  C   UNL     1      -7.867   5.798  67.303  1.00  0.00    -0.102 C  
HETATM   17  O   UNL     1      -6.645   5.732  67.470  1.00  0.00    -0.052 OA 
BRANCH  16  18
HETATM   18  C   UNL     1      -8.501   6.246  65.946  1.00  0.00    -0.146 C  
HETATM   19  C   UNL     1     -10.014   5.953  66.008  1.00  0.00     0.050 C  
HETATM   20  N   UNL     1      -7.888   5.414  64.882  1.00  0.00    -0.096 NA 
HETATM   21  C   UNL     1     -10.701   6.860  67.034  1.00  0.00    -0.432 C  
HETATM   22  H1  UNL     1      -8.302   5.707  63.996  1.00  0.00     0.000 HD 
HETATM   23  H2  UNL     1      -7.980   4.413  65.054  1.00  0.00     0.000 HD 
HETATM   24  C   UNL     1     -10.480   8.335  66.714  1.00  0.00    -0.313 C  
HETATM   25  C   UNL     1      -9.006   8.683  66.527  1.00  0.00    -0.187 C  
HETATM   26  C   UNL     1      -8.296   7.725  65.570  1.00  0.00    -0.151 C  
ENDBRANCH  16  18
ENDBRANCH  13  14
TORSDOF 2
ENDMDL
MODEL      150
REMARK 921   NORMALIZED FREE ENERGY PREDICTED BY IDOCK:   -3.16 KCAL/MOL
REMARK 922        TOTAL FREE ENERGY PREDICTED BY IDOCK:   -3.84 KCAL/MOL
REMARK 923 INTER-LIGAND FREE ENERGY PREDICTED BY IDOCK:   -3.57 KCAL/MOL
REMARK 924 INTRA-LIGAND FREE ENERGY PREDICTED BY IDOCK:   -0.27 KCAL/MOL
REMARK 927      BINDING AFFINITY PREDICTED BY RF-SCORE:    0.00 PKD
ROOT
HETATM    1  C   UNL     1      -7.577   4.535  66.741  1.00  0.00    -0.086 C  
HETATM    2  S   UNL     1      -8.919   3.283  66.610  1.00  0.00    -0.164 SA 
HETATM    3  C   UNL     1      -9.515   3.865  64.961  1.00  0.00    -0.170 C  
HETATM    4  C   UNL     1     -10.024   2.664  64.157  1.00  0.00    -0.103 C  
HETATM    5  C   UNL     1     -10.729   4.785  65.209  1.00  0.00    -0.023 C  
HETATM    6  CA  UNL     1      -8.322   4.636  64.344  1.00  0.00    -0.118 C  
HETATM    7  N   UNL     1      -7.592   5.271  65.456  1.00  0.00    -0.081 N  
HETATM    8  C   UNL     1      -7.316   3.790  63.544  1.00  0.00    -0.051 C  
HETATM    9  C   UNL     1      -8.076   6.424  66.018  1.00  0.00    -0.120 C  
HETATM   10  O   UNL     1      -6.018   4.016  63.888  1.00  0.00    -0.014 OA 
HETATM   11  OXT UNL     1      -7.611   3.044  62.622  1.00  0.00    -0.052 OA 
HETATM   12  O   UNL     1      -8.597   7.385  65.502  1.00  0.00    -0.139 OA 
HETATM   13  CA  UNL     1      -7.915   5.871  67.448  1.00  0.00    -0.102 C  
ENDROOT
BRANCH  13  14
HETATM   14  N   UNL     1      -9.125   5.874  68.315  1.00  0.00    -0.118 N  
HETATM   15  H   UNL     1      -9.728   5.052  68.359  1.00  0.00     0.000 HD 
HETATM   16  C   UNL     1      -9.419   6.993  69.054  1.00  0.00    -0.138 C  
HETATM   17  O   UNL     1      -8.671   7.974  69.013  1.00  0.00    -0.136 OA 
BRANCH  16  18
HETATM   18  C   UNL     1     -10.642   6.916  70.026  1.00  0.00    -0.226 C  
HETATM   19  C   UNL     1     -10.308   5.892  71.130  1.00  0.00    -0.276 C  
HETATM   20  N   UNL     1     -11.797   6.422  69.238  1.00  0.00    -0.404 NA 
HETATM   21  C   UNL     1      -9.178   6.408  72.027  1.00  0.00    -0.148 C  
HETATM   22  H1  UNL     1     -12.594   6.373  69.872  1.00  0.00     0.000 HD 
HETATM   23  H2  UNL     1     -11.608   5.540  68.763  1.00  0.00     0.000 HD 
HETATM   24  C   UNL     1      -9.535   7.746  72.664  1.00  0.00    -0.251 C  
HETATM   25  C   UNL     1      -9.984   8.785  71.641  1.00  0.00    -0.381 C  
HETATM   26  C   UNL     1     -11.052   8.245  70.689  1.00  0.00    -0.269 C  
ENDBRANCH  16  18
ENDBRANCH  13  14
TORSDOF 2
ENDMDL
MODEL      151
REMARK 921   NORMALIZED FREE ENERGY PREDICTED BY IDOCK:   -3.13 KCAL/MOL
REMARK 922        TOTAL FREE ENERGY PREDICTED BY IDOCK:   -3.80 KCAL/MOL
REMARK 923 INTER-LIGAND FREE ENERGY PREDICTED BY IDOCK:   -3.37 KCAL/MOL
REMARK 924 INTRA-LIGAND FREE ENERGY PREDICTED BY IDOCK:   -0.43 KCAL/MOL
REMARK 927      BINDING AFFINITY PREDICTED BY RF-SCORE:    0.00 PKD
ROOT
HETATM    1  C   UNL     1      -8.070   7.359  68.083  1.00  0.00    -0.124 C  
HETATM    2  S   UNL     1      -7.985   8.797  69.227  1.00  0.00    -0.111 SA 
HETATM    3  C   UNL     1      -9.708   8.591  69.866  1.00  0.00    -0.179 C  
HETATM    4  C   UNL     1      -9.754   9.016  71.336  1.00  0.00    -0.369 C  
HETATM    5  C   UNL     1     -10.608   9.573  69.086  1.00  0.00    -0.237 C  
HETATM    6  CA  UNL     1     -10.076   7.115  69.576  1.00  0.00    -0.179 C  
HETATM    7  N   UNL     1      -9.388   6.729  68.330  1.00  0.00    -0.126 N  
HETATM    8  C   UNL     1      -9.683   6.098  70.662  1.00  0.00    -0.174 C  
HETATM    9  C   UNL     1      -9.901   7.120  67.121  1.00  0.00    -0.181 C  
HETATM   10  O   UNL     1      -9.029   5.007  70.178  1.00  0.00    -0.106 OA 
HETATM   11  OXT UNL     1      -9.991   6.186  71.842  1.00  0.00    -0.164 OA 
HETATM   12  O   UNL     1     -11.048   7.183  66.743  1.00  0.00    -0.254 OA 
HETATM   13  CA  UNL     1      -8.532   7.630  66.630  1.00  0.00    -0.130 C  
ENDROOT
BRANCH  13  14
HETATM   14  N   UNL     1      -8.463   9.042  66.166  1.00  0.00    -0.123 N  
HETATM   15  H   UNL     1      -8.472   9.807  66.841  1.00  0.00     0.000 HD 
HETATM   16  C   UNL     1      -8.385   9.304  64.820  1.00  0.00    -0.162 C  
HETATM   17  O   UNL     1      -8.351   8.372  64.012  1.00  0.00    -0.146 OA 
BRANCH  16  18
HETATM   18  C   UNL     1      -8.213  10.795  64.383  1.00  0.00     0.100 C  
HETATM   19  C   UNL     1      -8.761  10.936  62.947  1.00  0.00    -0.228 C  
HETATM   20  N   UNL     1      -6.759  11.084  64.378  1.00  0.00     0.013 NA 
HETATM   21  C   UNL     1     -10.280  10.735  62.924  1.00  0.00    -0.018 C  
HETATM   22  H1  UNL     1      -6.647  12.057  64.092  1.00  0.00     0.000 HD 
HETATM   23  H2  UNL     1      -6.224  10.435  63.802  1.00  0.00     0.000 HD 
HETATM   24  C   UNL     1     -10.991  11.726  63.840  1.00  0.00    -0.476 C  
HETATM   25  C   UNL     1     -10.428  11.725  65.258  1.00  0.00    -0.320 C  
HETATM   26  C   UNL     1      -8.903  11.839  65.282  1.00  0.00     0.324 C  
ENDBRANCH  16  18
ENDBRANCH  13  14
TORSDOF 2
ENDMDL
MODEL      152
REMARK 921   NORMALIZED FREE ENERGY PREDICTED BY IDOCK:   -3.11 KCAL/MOL
REMARK 922        TOTAL FREE ENERGY PREDICTED BY IDOCK:   -3.78 KCAL/MOL
REMARK 923 INTER-LIGAND FREE ENERGY PREDICTED BY IDOCK:   -3.48 KCAL/MOL
REMARK 924 INTRA-LIGAND FREE ENERGY PREDICTED BY IDOCK:   -0.30 KCAL/MOL
REMARK 927      BINDING AFFINITY PREDICTED BY RF-SCORE:    0.00 PKD
ROOT
HETATM    1  C   UNL     1      -7.480   6.696  67.958  1.00  0.00    -0.098 C  
HETATM    2  S   UNL     1      -8.225   5.092  67.452  1.00  0.00    -0.106 SA 
HETATM    3  C   UNL     1      -9.408   5.842  66.246  1.00  0.00    -0.156 C  
HETATM    4  C   UNL     1      -9.610   4.878  65.074  1.00  0.00     0.000 C  
HETATM    5  C   UNL     1     -10.770   5.973  66.959  1.00  0.00    -0.412 C  
HETATM    6  CA  UNL     1      -8.806   7.224  65.891  1.00  0.00    -0.109 C  
HETATM    7  N   UNL     1      -8.111   7.719  67.092  1.00  0.00    -0.116 N  
HETATM    8  C   UNL     1      -7.800   7.240  64.726  1.00  0.00    -0.126 C  
HETATM    9  C   UNL     1      -8.833   8.271  68.118  1.00  0.00    -0.139 C  
HETATM   10  O   UNL     1      -6.646   7.903  65.011  1.00  0.00    -0.050 OA 
HETATM   11  OXT UNL     1      -8.018   6.788  63.611  1.00  0.00    -0.120 OA 
HETATM   12  O   UNL     1      -9.796   9.001  68.089  1.00  0.00    -0.156 OA 
HETATM   13  CA  UNL     1      -8.105   7.420  69.176  1.00  0.00    -0.120 C  
ENDROOT
BRANCH  13  14
HETATM   14  N   UNL     1      -8.951   6.591  70.076  1.00  0.00    -0.143 N  
HETATM   15  H   UNL     1      -9.966   6.589  69.973  1.00  0.00     0.000 HD 
HETATM   16  C   UNL     1      -8.351   5.827  71.048  1.00  0.00    -0.123 C  
HETATM   17  O   UNL     1      -7.121   5.817  71.152  1.00  0.00    -0.064 OA 
BRANCH  16  18
HETATM   18  C   UNL     1      -9.269   4.896  71.905  1.00  0.00    -0.140 C  
HETATM   19  C   UNL     1      -8.636   4.763  73.306  1.00  0.00    -0.102 C  
HETATM   20  N   UNL     1      -9.277   3.566  71.248  1.00  0.00    -0.113 NA 
HETATM   21  C   UNL     1      -8.691   6.098  74.056  1.00  0.00    -0.121 C  
HETATM   22  H1  UNL     1      -9.876   2.959  71.808  1.00  0.00     0.000 HD 
HETATM   23  H2  UNL     1      -8.343   3.185  71.106  1.00  0.00     0.000 HD 
HETATM   24  C   UNL     1     -10.123   6.606  74.189  1.00  0.00    -0.390 C  
HETATM   25  C   UNL     1     -10.856   6.661  72.852  1.00  0.00    -0.293 C  
HETATM   26  C   UNL     1     -10.730   5.358  72.062  1.00  0.00    -0.281 C  
ENDBRANCH  16  18
ENDBRANCH  13  14
TORSDOF 2
ENDMDL
MODEL      153
REMARK 921   NORMALIZED FREE ENERGY PREDICTED BY IDOCK:   -3.11 KCAL/MOL
REMARK 922        TOTAL FREE ENERGY PREDICTED BY IDOCK:   -3.78 KCAL/MOL
REMARK 923 INTER-LIGAND FREE ENERGY PREDICTED BY IDOCK:   -3.90 KCAL/MOL
REMARK 924 INTRA-LIGAND FREE ENERGY PREDICTED BY IDOCK:    0.12 KCAL/MOL
REMARK 927      BINDING AFFINITY PREDICTED BY RF-SCORE:    0.00 PKD
ROOT
HETATM    1  C   UNL     1     -10.304   5.476  69.698  1.00  0.00    -0.289 C  
HETATM    2  S   UNL     1      -8.540   5.324  70.198  1.00  0.00    -0.119 SA 
HETATM    3  C   UNL     1      -8.166   7.123  69.999  1.00  0.00    -0.136 C  
HETATM    4  C   UNL     1      -7.128   7.540  71.045  1.00  0.00    -0.058 C  
HETATM    5  C   UNL     1      -7.506   7.305  68.616  1.00  0.00    -0.102 C  
HETATM    6  CA  UNL     1      -9.538   7.837  70.083  1.00  0.00    -0.168 C  
HETATM    7  N   UNL     1     -10.541   6.926  69.504  1.00  0.00    -0.225 N  
HETATM    8  C   UNL     1     -10.011   8.218  71.497  1.00  0.00    -0.199 C  
HETATM    9  C   UNL     1     -10.655   6.816  68.142  1.00  0.00    -0.230 C  
HETATM   10  O   UNL     1     -11.292   7.842  71.763  1.00  0.00    -0.248 OA 
HETATM   11  OXT UNL     1      -9.359   8.874  72.297  1.00  0.00    -0.360 OA 
HETATM   12  O   UNL     1     -10.587   7.663  67.283  1.00  0.00    -0.295 OA 
HETATM   13  CA  UNL     1     -10.640   5.276  68.199  1.00  0.00    -0.006 C  
ENDROOT
BRANCH  13  14
HETATM   14  N   UNL     1      -9.614   4.578  67.378  1.00  0.00    -0.165 N  
HETATM   15  H   UNL     1      -8.719   4.312  67.790  1.00  0.00     0.000 HD 
HETATM   16  C   UNL     1      -9.884   4.296  66.062  1.00  0.00    -0.222 C  
HETATM   17  O   UNL     1     -10.978   4.601  65.578  1.00  0.00    -0.255 OA 
BRANCH  16  18
HETATM   18  C   UNL     1      -8.818   3.474  65.265  1.00  0.00    -0.124 C  
HETATM   19  C   UNL     1      -9.555   2.350  64.507  1.00  0.00    -0.094 C  
HETATM   20  N   UNL     1      -7.900   2.870  66.259  1.00  0.00    -0.080 NA 
HETATM   21  C   UNL     1     -10.447   2.931  63.406  1.00  0.00    -0.211 C  
HETATM   22  H1  UNL     1      -7.205   2.334  65.739  1.00  0.00     0.000 HD 
HETATM   23  H2  UNL     1      -8.383   2.317  66.966  1.00  0.00     0.000 HD 
HETATM   24  C   UNL     1      -9.644   3.770  62.418  1.00  0.00    -0.107 C  
HETATM   25  C   UNL     1      -8.798   4.839  63.103  1.00  0.00    -0.117 C  
HETATM   26  C   UNL     1      -7.971   4.277  64.260  1.00  0.00    -0.090 C  
ENDBRANCH  16  18
ENDBRANCH  13  14
TORSDOF 2
ENDMDL
MODEL      154
REMARK 921   NORMALIZED FREE ENERGY PREDICTED BY IDOCK:   -3.04 KCAL/MOL
REMARK 922        TOTAL FREE ENERGY PREDICTED BY IDOCK:   -3.69 KCAL/MOL
REMARK 923 INTER-LIGAND FREE ENERGY PREDICTED BY IDOCK:   -3.31 KCAL/MOL
REMARK 924 INTRA-LIGAND FREE ENERGY PREDICTED BY IDOCK:   -0.38 KCAL/MOL
REMARK 927      BINDING AFFINITY PREDICTED BY RF-SCORE:    0.00 PKD
ROOT
HETATM    1  C   UNL     1      -9.415  13.029  66.080  1.00  0.00    -0.150 C  
HETATM    2  S   UNL     1      -9.691  12.484  64.345  1.00  0.00     0.168 SA 
HETATM    3  C   UNL     1     -11.479  12.950  64.317  1.00  0.00    -0.377 C  
HETATM    4  C   UNL     1     -11.855  13.421  62.909  1.00  0.00     0.711 C  
HETATM    5  C   UNL     1     -12.293  11.668  64.593  1.00  0.00     0.245 C  
HETATM    6  CA  UNL     1     -11.647  13.995  65.448  1.00  0.00    -0.328 C  
HETATM    7  N   UNL     1     -10.693  13.640  66.515  1.00  0.00    -0.283 N  
HETATM    8  C   UNL     1     -11.386  15.460  65.054  1.00  0.00    -0.333 C  
HETATM    9  C   UNL     1     -10.989  12.620  67.381  1.00  0.00    -0.254 C  
HETATM   10  O   UNL     1     -10.552  16.114  65.908  1.00  0.00    -0.327 OA 
HETATM   11  OXT UNL     1     -11.928  16.038  64.123  1.00  0.00    -0.671 OA 
HETATM   12  O   UNL     1     -12.039  12.314  67.896  1.00  0.00    -0.466 OA 
HETATM   13  CA  UNL     1      -9.603  11.973  67.198  1.00  0.00    -0.192 C  
ENDROOT
BRANCH  13  14
HETATM   14  N   UNL     1      -9.572  10.548  66.772  1.00  0.00    -0.166 N  
HETATM   15  H   UNL     1     -10.190  10.218  66.031  1.00  0.00     0.000 HD 
HETATM   16  C   UNL     1      -8.702   9.681  67.388  1.00  0.00    -0.128 C  
HETATM   17  O   UNL     1      -7.941  10.094  68.268  1.00  0.00    -0.098 OA 
BRANCH  16  18
HETATM   18  C   UNL     1      -8.632   8.217  66.843  1.00  0.00    -0.119 C  
HETATM   19  C   UNL     1      -8.304   7.284  68.027  1.00  0.00    -0.123 C  
HETATM   20  N   UNL     1      -7.519   8.169  65.864  1.00  0.00    -0.079 NA 
HETATM   21  C   UNL     1      -9.471   7.235  69.019  1.00  0.00    -0.147 C  
HETATM   22  H1  UNL     1      -7.474   7.214  65.508  1.00  0.00     0.000 HD 
HETATM   23  H2  UNL     1      -6.633   8.495  66.249  1.00  0.00     0.000 HD 
HETATM   24  C   UNL     1     -10.758   6.771  68.346  1.00  0.00    -0.284 C  
HETATM   25  C   UNL     1     -11.094   7.579  67.096  1.00  0.00     0.045 C  
HETATM   26  C   UNL     1      -9.904   7.704  66.143  1.00  0.00     0.044 C  
ENDBRANCH  16  18
ENDBRANCH  13  14
TORSDOF 2
ENDMDL
MODEL      155
REMARK 921   NORMALIZED FREE ENERGY PREDICTED BY IDOCK:   -3.02 KCAL/MOL
REMARK 922        TOTAL FREE ENERGY PREDICTED BY IDOCK:   -3.68 KCAL/MOL
REMARK 923 INTER-LIGAND FREE ENERGY PREDICTED BY IDOCK:   -3.38 KCAL/MOL
REMARK 924 INTRA-LIGAND FREE ENERGY PREDICTED BY IDOCK:   -0.30 KCAL/MOL
REMARK 927      BINDING AFFINITY PREDICTED BY RF-SCORE:    0.00 PKD
ROOT
HETATM    1  C   UNL     1      -8.750   5.691  69.668  1.00  0.00    -0.110 C  
HETATM    2  S   UNL     1      -7.232   6.176  70.587  1.00  0.00    -0.079 SA 
HETATM    3  C   UNL     1      -8.137   6.749  72.093  1.00  0.00    -0.100 C  
HETATM    4  C   UNL     1      -7.286   6.458  73.333  1.00  0.00    -0.086 C  
HETATM    5  C   UNL     1      -8.274   8.282  71.992  1.00  0.00    -0.211 C  
HETATM    6  CA  UNL     1      -9.514   6.041  72.036  1.00  0.00    -0.149 C  
HETATM    7  N   UNL     1      -9.873   5.898  70.613  1.00  0.00    -0.178 N  
HETATM    8  C   UNL     1      -9.578   4.644  72.678  1.00  0.00    -0.136 C  
HETATM    9  C   UNL     1     -10.371   6.974  69.926  1.00  0.00    -0.210 C  
HETATM   10  O   UNL     1     -10.159   3.704  71.883  1.00  0.00    -0.174 OA 
HETATM   11  OXT UNL     1      -9.233   4.387  73.823  1.00  0.00    -0.107 OA 
HETATM   12  O   UNL     1     -11.146   7.833  70.276  1.00  0.00    -0.257 OA 
HETATM   13  CA  UNL     1      -9.400   6.756  68.749  1.00  0.00    -0.132 C  
ENDROOT
BRANCH  13  14
HETATM   14  N   UNL     1      -8.539   7.906  68.360  1.00  0.00    -0.128 N  
HETATM   15  H   UNL     1      -7.591   7.987  68.727  1.00  0.00     0.000 HD 
HETATM   16  C   UNL     1      -9.035   8.856  67.501  1.00  0.00    -0.133 C  
HETATM   17  O   UNL     1     -10.175   8.737  67.043  1.00  0.00    -0.234 OA 
BRANCH  16  18
HETATM   18  C   UNL     1      -8.065   9.992  67.040  1.00  0.00    -0.117 C  
HETATM   19  C   UNL     1      -6.878   9.334  66.305  1.00  0.00    -0.082 C  
HETATM   20  N   UNL     1      -7.565  10.663  68.264  1.00  0.00    -0.094 NA 
HETATM   21  C   UNL     1      -7.338   8.706  64.984  1.00  0.00    -0.086 C  
HETATM   22  H1  UNL     1      -6.933  11.404  67.963  1.00  0.00     0.000 HD 
HETATM   23  H2  UNL     1      -7.138  10.018  68.928  1.00  0.00     0.000 HD 
HETATM   24  C   UNL     1      -7.994   9.738  64.073  1.00  0.00    -0.147 C  
HETATM   25  C   UNL     1      -9.111  10.512  64.767  1.00  0.00    -0.242 C  
HETATM   26  C   UNL     1      -8.682  11.066  66.125  1.00  0.00    -0.188 C  
ENDBRANCH  16  18
ENDBRANCH  13  14
TORSDOF 2
ENDMDL
MODEL      156
REMARK 921   NORMALIZED FREE ENERGY PREDICTED BY IDOCK:   -2.91 KCAL/MOL
REMARK 922        TOTAL FREE ENERGY PREDICTED BY IDOCK:   -3.56 KCAL/MOL
REMARK 923 INTER-LIGAND FREE ENERGY PREDICTED BY IDOCK:   -3.66 KCAL/MOL
REMARK 924 INTRA-LIGAND FREE ENERGY PREDICTED BY IDOCK:    0.10 KCAL/MOL
REMARK 927      BINDING AFFINITY PREDICTED BY RF-SCORE:    0.00 PKD
ROOT
HETATM    1  C   UNL     1      -9.945   7.801  69.490  1.00  0.00    -0.187 C  
HETATM    2  S   UNL     1      -8.657   7.560  68.199  1.00  0.00    -0.122 SA 
HETATM    3  C   UNL     1      -7.410   6.836  69.355  1.00  0.00    -0.092 C  
HETATM    4  C   UNL     1      -6.577   5.791  68.607  1.00  0.00    -0.048 C  
HETATM    5  C   UNL     1      -6.446   7.970  69.761  1.00  0.00    -0.037 C  
HETATM    6  CA  UNL     1      -8.227   6.313  70.562  1.00  0.00    -0.118 C  
HETATM    7  N   UNL     1      -9.384   7.212  70.729  1.00  0.00    -0.161 N  
HETATM    8  C   UNL     1      -8.765   4.876  70.438  1.00  0.00    -0.100 C  
HETATM    9  C   UNL     1      -9.217   8.429  71.338  1.00  0.00    -0.186 C  
HETATM   10  O   UNL     1     -10.086   4.760  70.744  1.00  0.00    -0.225 OA 
HETATM   11  OXT UNL     1      -8.081   3.896  70.180  1.00  0.00    -0.056 OA 
HETATM   12  O   UNL     1      -8.543   8.737  72.292  1.00  0.00    -0.377 OA 
HETATM   13  CA  UNL     1      -9.977   9.167  70.219  1.00  0.00    -0.208 C  
ENDROOT
BRANCH  13  14
HETATM   14  N   UNL     1      -9.270  10.291  69.548  1.00  0.00    -0.327 N  
HETATM   15  H   UNL     1      -8.275  10.445  69.713  1.00  0.00     0.000 HD 
HETATM   16  C   UNL     1      -9.971  11.119  68.706  1.00  0.00    -0.198 C  
HETATM   17  O   UNL     1     -11.170  10.912  68.495  1.00  0.00    -0.231 OA 
BRANCH  16  18
HETATM   18  C   UNL     1      -9.169  12.225  67.946  1.00  0.00    -0.190 C  
HETATM   19  C   UNL     1      -7.826  12.427  68.678  1.00  0.00    -0.049 C  
HETATM   20  N   UNL     1      -9.961  13.476  68.031  1.00  0.00    -0.241 NA 
HETATM   21  C   UNL     1      -6.938  11.186  68.535  1.00  0.00    -0.072 C  
HETATM   22  H1  UNL     1      -9.438  14.197  67.535  1.00  0.00     0.000 HD 
HETATM   23  H2  UNL     1     -10.193  13.738  68.989  1.00  0.00     0.000 HD 
HETATM   24  C   UNL     1      -6.675  10.852  67.070  1.00  0.00    -0.098 C  
HETATM   25  C   UNL     1      -7.958  10.744  66.251  1.00  0.00    -0.160 C  
HETATM   26  C   UNL     1      -8.886  11.942  66.459  1.00  0.00    -0.178 C  
ENDBRANCH  16  18
ENDBRANCH  13  14
TORSDOF 2
ENDMDL
MODEL      157
REMARK 921   NORMALIZED FREE ENERGY PREDICTED BY IDOCK:   -2.81 KCAL/MOL
REMARK 922        TOTAL FREE ENERGY PREDICTED BY IDOCK:   -3.44 KCAL/MOL
REMARK 923 INTER-LIGAND FREE ENERGY PREDICTED BY IDOCK:   -3.31 KCAL/MOL
REMARK 924 INTRA-LIGAND FREE ENERGY PREDICTED BY IDOCK:   -0.13 KCAL/MOL
REMARK 927      BINDING AFFINITY PREDICTED BY RF-SCORE:    0.00 PKD
ROOT
HETATM    1  C   UNL     1      -8.031   7.850  69.608  1.00  0.00    -0.118 C  
HETATM    2  S   UNL     1      -8.639   6.458  68.570  1.00  0.00    -0.122 SA 
HETATM    3  C   UNL     1     -10.338   7.155  68.355  1.00  0.00    -0.194 C  
HETATM    4  C   UNL     1     -10.866   6.774  66.969  1.00  0.00    -0.453 C  
HETATM    5  C   UNL     1     -11.252   6.464  69.388  1.00  0.00    -0.459 C  
HETATM    6  CA  UNL     1     -10.195   8.672  68.632  1.00  0.00    -0.194 C  
HETATM    7  N   UNL     1      -9.139   8.833  69.648  1.00  0.00    -0.147 N  
HETATM    8  C   UNL     1      -9.817   9.544  67.421  1.00  0.00    -0.170 C  
HETATM    9  C   UNL     1      -9.423   8.595  70.968  1.00  0.00    -0.207 C  
HETATM   10  O   UNL     1      -8.786  10.397  67.664  1.00  0.00    -0.119 OA 
HETATM   11  OXT UNL     1     -10.421   9.558  66.358  1.00  0.00    -0.199 OA 
HETATM   12  O   UNL     1     -10.410   8.859  71.613  1.00  0.00    -0.290 OA 
HETATM   13  CA  UNL     1      -8.174   7.710  71.145  1.00  0.00    -0.100 C  
ENDROOT
BRANCH  13  14
HETATM   14  N   UNL     1      -8.388   6.333  71.666  1.00  0.00    -0.128 N  
HETATM   15  H   UNL     1      -9.331   5.952  71.741  1.00  0.00     0.000 HD 
HETATM   16  C   UNL     1      -7.302   5.581  72.043  1.00  0.00    -0.093 C  
HETATM   17  O   UNL     1      -6.163   6.041  71.926  1.00  0.00    -0.039 OA 
BRANCH  16  18
HETATM   18  C   UNL     1      -7.564   4.106  72.491  1.00  0.00    -0.074 C  
HETATM   19  C   UNL     1      -7.629   3.229  71.223  1.00  0.00    -0.047 C  
HETATM   20  N   UNL     1      -8.885   4.082  73.165  1.00  0.00    -0.098 NA 
HETATM   21  C   UNL     1      -6.256   3.153  70.545  1.00  0.00    -0.023 C  
HETATM   22  H1  UNL     1      -9.055   3.119  73.457  1.00  0.00     0.000 HD 
HETATM   23  H2  UNL     1      -9.635   4.464  72.590  1.00  0.00     0.000 HD 
HETATM   24  C   UNL     1      -5.194   2.604  71.491  1.00  0.00    -0.004 C  
HETATM   25  C   UNL     1      -5.144   3.353  72.820  1.00  0.00     0.000 C  
HETATM   26  C   UNL     1      -6.526   3.507  73.457  1.00  0.00    -0.029 C  
ENDBRANCH  16  18
ENDBRANCH  13  14
TORSDOF 2
ENDMDL
MODEL      158
REMARK 921   NORMALIZED FREE ENERGY PREDICTED BY IDOCK:   -2.80 KCAL/MOL
REMARK 922        TOTAL FREE ENERGY PREDICTED BY IDOCK:   -3.43 KCAL/MOL
REMARK 923 INTER-LIGAND FREE ENERGY PREDICTED BY IDOCK:   -3.78 KCAL/MOL
REMARK 924 INTRA-LIGAND FREE ENERGY PREDICTED BY IDOCK:    0.35 KCAL/MOL
REMARK 927      BINDING AFFINITY PREDICTED BY RF-SCORE:    0.00 PKD
ROOT
HETATM    1  C   UNL     1     -10.145   5.086  66.818  1.00  0.00    -0.239 C  
HETATM    2  S   UNL     1      -8.790   5.847  65.833  1.00  0.00    -0.133 SA 
HETATM    3  C   UNL     1      -7.440   5.274  66.957  1.00  0.00    -0.087 C  
HETATM    4  C   UNL     1      -6.186   4.979  66.128  1.00  0.00    -0.035 C  
HETATM    5  C   UNL     1      -7.091   6.451  67.893  1.00  0.00    -0.085 C  
HETATM    6  CA  UNL     1      -8.036   4.075  67.734  1.00  0.00    -0.090 C  
HETATM    7  N   UNL     1      -9.475   4.339  67.908  1.00  0.00    -0.159 N  
HETATM    8  C   UNL     1      -7.891   2.699  67.060  1.00  0.00    -0.071 C  
HETATM    9  C   UNL     1      -9.894   5.208  68.882  1.00  0.00    -0.172 C  
HETATM   10  O   UNL     1      -9.050   1.988  67.016  1.00  0.00    -0.132 OA 
HETATM   11  OXT UNL     1      -6.834   2.221  66.672  1.00  0.00    -0.041 OA 
HETATM   12  O   UNL     1      -9.489   5.371  70.009  1.00  0.00    -0.147 OA 
HETATM   13  CA  UNL     1     -10.816   5.963  67.905  1.00  0.00    -0.233 C  
ENDROOT
BRANCH  13  14
HETATM   14  N   UNL     1     -10.617   7.433  67.784  1.00  0.00    -0.333 N  
HETATM   15  H   UNL     1     -10.287   7.837  66.908  1.00  0.00     0.000 HD 
HETATM   16  C   UNL     1     -10.883   8.238  68.865  1.00  0.00     0.034 C  
HETATM   17  O   UNL     1     -11.305   7.742  69.914  1.00  0.00    -0.139 OA 
BRANCH  16  18
HETATM   18  C   UNL     1     -10.756   9.783  68.664  1.00  0.00    -0.216 C  
HETATM   19  C   UNL     1      -9.409  10.232  69.268  1.00  0.00    -0.221 C  
HETATM   20  N   UNL     1     -11.863  10.415  69.422  1.00  0.00    -0.484 NA 
HETATM   21  C   UNL     1      -8.236   9.674  68.455  1.00  0.00    -0.105 C  
HETATM   22  H1  UNL     1     -11.780  11.423  69.290  1.00  0.00     0.000 HD 
HETATM   23  H2  UNL     1     -11.883  10.140  70.404  1.00  0.00     0.000 HD 
HETATM   24  C   UNL     1      -8.310  10.108  66.995  1.00  0.00    -0.125 C  
HETATM   25  C   UNL     1      -9.660   9.796  66.355  1.00  0.00    -0.256 C  
HETATM   26  C   UNL     1     -10.836  10.276  67.207  1.00  0.00    -0.312 C  
ENDBRANCH  16  18
ENDBRANCH  13  14
TORSDOF 2
ENDMDL
MODEL      159
REMARK 921   NORMALIZED FREE ENERGY PREDICTED BY IDOCK:   -2.79 KCAL/MOL
REMARK 922        TOTAL FREE ENERGY PREDICTED BY IDOCK:   -3.42 KCAL/MOL
REMARK 923 INTER-LIGAND FREE ENERGY PREDICTED BY IDOCK:   -3.06 KCAL/MOL
REMARK 924 INTRA-LIGAND FREE ENERGY PREDICTED BY IDOCK:   -0.36 KCAL/MOL
REMARK 927      BINDING AFFINITY PREDICTED BY RF-SCORE:    0.00 PKD
ROOT
HETATM    1  C   UNL     1      -9.464   4.604  65.324  1.00  0.00    -0.158 C  
HETATM    2  S   UNL     1      -7.854   5.444  65.033  1.00  0.00    -0.102 SA 
HETATM    3  C   UNL     1      -6.830   3.951  65.401  1.00  0.00    -0.053 C  
HETATM    4  C   UNL     1      -5.577   3.970  64.520  1.00  0.00    -0.014 C  
HETATM    5  C   UNL     1      -6.352   4.070  66.863  1.00  0.00    -0.040 C  
HETATM    6  CA  UNL     1      -7.780   2.744  65.201  1.00  0.00    -0.081 C  
HETATM    7  N   UNL     1      -9.132   3.184  65.588  1.00  0.00    -0.149 N  
HETATM    8  C   UNL     1      -7.862   2.183  63.769  1.00  0.00    -0.065 C  
HETATM    9  C   UNL     1      -9.469   3.260  66.915  1.00  0.00    -0.115 C  
HETATM   10  O   UNL     1      -9.136   2.010  63.324  1.00  0.00    -0.090 OA 
HETATM   11  OXT UNL     1      -6.899   1.833  63.103  1.00  0.00    -0.021 OA 
HETATM   12  O   UNL     1      -9.191   2.524  67.833  1.00  0.00    -0.172 OA 
HETATM   13  CA  UNL     1     -10.058   4.674  66.753  1.00  0.00    -0.213 C  
ENDROOT
BRANCH  13  14
HETATM   14  N   UNL     1      -9.517   5.738  67.641  1.00  0.00    -0.111 N  
HETATM   15  H   UNL     1      -8.662   5.579  68.175  1.00  0.00     0.000 HD 
HETATM   16  C   UNL     1     -10.180   6.937  67.735  1.00  0.00    -0.180 C  
HETATM   17  O   UNL     1     -11.201   7.131  67.068  1.00  0.00    -0.277 OA 
BRANCH  16  18
HETATM   18  C   UNL     1      -9.524   8.061  68.602  1.00  0.00    -0.147 C  
HETATM   19  C   UNL     1     -10.644   8.760  69.401  1.00  0.00    -0.218 C  
HETATM   20  N   UNL     1      -8.916   9.036  67.665  1.00  0.00    -0.124 NA 
HETATM   21  C   UNL     1     -11.238   7.810  70.447  1.00  0.00    -0.246 C  
HETATM   22  H1  UNL     1      -8.488   9.769  68.231  1.00  0.00     0.000 HD 
HETATM   23  H2  UNL     1      -9.577   9.397  66.978  1.00  0.00     0.000 HD 
HETATM   24  C   UNL     1     -10.171   7.296  71.407  1.00  0.00    -0.199 C  
HETATM   25  C   UNL     1      -8.972   6.687  70.685  1.00  0.00    -0.151 C  
HETATM   26  C   UNL     1      -8.431   7.596  69.581  1.00  0.00    -0.135 C  
ENDBRANCH  16  18
ENDBRANCH  13  14
TORSDOF 2
ENDMDL
MODEL      160
REMARK 921   NORMALIZED FREE ENERGY PREDICTED BY IDOCK:   -2.78 KCAL/MOL
REMARK 922        TOTAL FREE ENERGY PREDICTED BY IDOCK:   -3.41 KCAL/MOL
REMARK 923 INTER-LIGAND FREE ENERGY PREDICTED BY IDOCK:   -3.00 KCAL/MOL
REMARK 924 INTRA-LIGAND FREE ENERGY PREDICTED BY IDOCK:   -0.41 KCAL/MOL
REMARK 927      BINDING AFFINITY PREDICTED BY RF-SCORE:    0.00 PKD
ROOT
HETATM    1  C   UNL     1      -6.116   8.451  67.885  1.00  0.00    -0.048 C  
HETATM    2  S   UNL     1      -5.452   6.767  68.213  1.00  0.00    -0.017 SA 
HETATM    3  C   UNL     1      -6.583   5.918  67.023  1.00  0.00    -0.056 C  
HETATM    4  C   UNL     1      -5.853   4.724  66.401  1.00  0.00    -0.022 C  
HETATM    5  C   UNL     1      -7.763   5.347  67.837  1.00  0.00    -0.092 C  
HETATM    6  CA  UNL     1      -7.040   7.021  66.037  1.00  0.00    -0.073 C  
HETATM    7  N   UNL     1      -7.106   8.284  66.795  1.00  0.00    -0.076 N  
HETATM    8  C   UNL     1      -6.130   7.252  64.818  1.00  0.00    -0.037 C  
HETATM    9  C   UNL     1      -8.179   8.534  67.609  1.00  0.00    -0.118 C  
HETATM   10  O   UNL     1      -5.822   8.561  64.607  1.00  0.00    -0.061 OA 
HETATM   11  OXT UNL     1      -5.774   6.380  64.039  1.00  0.00    -0.022 OA 
HETATM   12  O   UNL     1      -9.354   8.299  67.447  1.00  0.00    -0.137 OA 
HETATM   13  CA  UNL     1      -7.274   8.950  68.785  1.00  0.00    -0.075 C  
ENDROOT
BRANCH  13  14
HETATM   14  N   UNL     1      -7.465   8.232  70.074  1.00  0.00    -0.063 N  
HETATM   15  H   UNL     1      -6.847   7.463  70.332  1.00  0.00     0.000 HD 
HETATM   16  C   UNL     1      -8.484   8.615  70.912  1.00  0.00    -0.166 C  
HETATM   17  O   UNL     1      -9.213   9.561  70.603  1.00  0.00    -0.245 OA 
BRANCH  16  18
HETATM   18  C   UNL     1      -8.587   7.900  72.299  1.00  0.00    -0.145 C  
HETATM   19  C   UNL     1     -10.000   8.156  72.862  1.00  0.00    -0.336 C  
HETATM   20  N   UNL     1      -7.586   8.532  73.192  1.00  0.00    -0.354 NA 
HETATM   21  C   UNL     1     -11.060   7.440  72.017  1.00  0.00    -0.279 C  
HETATM   22  H1  UNL     1      -7.654   8.065  74.096  1.00  0.00     0.000 HD 
HETATM   23  H2  UNL     1      -7.690   9.544  73.256  1.00  0.00     0.000 HD 
HETATM   24  C   UNL     1     -10.802   5.939  71.951  1.00  0.00    -0.307 C  
HETATM   25  C   UNL     1      -9.382   5.604  71.505  1.00  0.00    -0.166 C  
HETATM   26  C   UNL     1      -8.324   6.382  72.289  1.00  0.00    -0.107 C  
ENDBRANCH  16  18
ENDBRANCH  13  14
TORSDOF 2
ENDMDL
MODEL      161
REMARK 921   NORMALIZED FREE ENERGY PREDICTED BY IDOCK:   -2.77 KCAL/MOL
REMARK 922        TOTAL FREE ENERGY PREDICTED BY IDOCK:   -3.40 KCAL/MOL
REMARK 923 INTER-LIGAND FREE ENERGY PREDICTED BY IDOCK:   -3.00 KCAL/MOL
REMARK 924 INTRA-LIGAND FREE ENERGY PREDICTED BY IDOCK:   -0.40 KCAL/MOL
REMARK 927      BINDING AFFINITY PREDICTED BY RF-SCORE:    0.00 PKD
ROOT
HETATM    1  C   UNL     1     -10.447   5.895  68.747  1.00  0.00    -0.249 C  
HETATM    2  S   UNL     1      -9.635   4.250  68.888  1.00  0.00    -0.130 SA 
HETATM    3  C   UNL     1      -8.491   4.756  70.248  1.00  0.00    -0.083 C  
HETATM    4  C   UNL     1      -8.251   3.561  71.175  1.00  0.00    -0.078 C  
HETATM    5  C   UNL     1      -7.133   5.101  69.601  1.00  0.00    -0.055 C  
HETATM    6  CA  UNL     1      -9.153   5.996  70.898  1.00  0.00    -0.153 C  
HETATM    7  N   UNL     1      -9.865   6.721  69.830  1.00  0.00    -0.165 N  
HETATM    8  C   UNL     1     -10.163   5.707  72.022  1.00  0.00    -0.205 C  
HETATM    9  C   UNL     1      -9.163   7.520  68.965  1.00  0.00    -0.146 C  
HETATM   10  O   UNL     1     -11.343   6.369  71.879  1.00  0.00    -0.263 OA 
HETATM   11  OXT UNL     1      -9.930   5.024  73.010  1.00  0.00    -0.155 OA 
HETATM   12  O   UNL     1      -8.233   8.263  69.171  1.00  0.00    -0.118 OA 
HETATM   13  CA  UNL     1      -9.850   6.901  67.732  1.00  0.00    -0.136 C  
ENDROOT
BRANCH  13  14
HETATM   14  N   UNL     1      -8.965   6.332  66.680  1.00  0.00    -0.130 N  
HETATM   15  H   UNL     1      -8.728   5.340  66.688  1.00  0.00     0.000 HD 
HETATM   16  C   UNL     1      -8.473   7.156  65.697  1.00  0.00    -0.134 C  
HETATM   17  O   UNL     1      -8.785   8.350  65.682  1.00  0.00    -0.165 OA 
BRANCH  16  18
HETATM   18  C   UNL     1      -7.630   6.498  64.556  1.00  0.00    -0.101 C  
HETATM   19  C   UNL     1      -6.244   7.174  64.540  1.00  0.00    -0.037 C  
HETATM   20  N   UNL     1      -8.326   6.785  63.279  1.00  0.00    -0.336 NA 
HETATM   21  C   UNL     1      -5.454   6.826  65.806  1.00  0.00    -0.026 C  
HETATM   22  H1  UNL     1      -7.776   6.356  62.535  1.00  0.00     0.000 HD 
HETATM   23  H2  UNL     1      -8.494   7.780  63.129  1.00  0.00     0.000 HD 
HETATM   24  C   UNL     1      -5.285   5.319  65.963  1.00  0.00    -0.012 C  
HETATM   25  C   UNL     1      -6.609   4.565  65.880  1.00  0.00    -0.044 C  
HETATM   26  C   UNL     1      -7.439   4.974  64.662  1.00  0.00    -0.075 C  
ENDBRANCH  16  18
ENDBRANCH  13  14
TORSDOF 2
ENDMDL
MODEL      162
REMARK 921   NORMALIZED FREE ENERGY PREDICTED BY IDOCK:   -2.75 KCAL/MOL
REMARK 922        TOTAL FREE ENERGY PREDICTED BY IDOCK:   -3.38 KCAL/MOL
REMARK 923 INTER-LIGAND FREE ENERGY PREDICTED BY IDOCK:   -3.55 KCAL/MOL
REMARK 924 INTRA-LIGAND FREE ENERGY PREDICTED BY IDOCK:    0.18 KCAL/MOL
REMARK 927      BINDING AFFINITY PREDICTED BY RF-SCORE:    0.00 PKD
ROOT
HETATM    1  C   UNL     1     -10.364   8.823  68.172  1.00  0.00    -0.216 C  
HETATM    2  S   UNL     1      -9.244   9.531  69.447  1.00  0.00    -0.189 SA 
HETATM    3  C   UNL     1      -8.091  10.307  68.228  1.00  0.00    -0.107 C  
HETATM    4  C   UNL     1      -7.539  11.609  68.816  1.00  0.00    -0.119 C  
HETATM    5  C   UNL     1      -6.892   9.350  68.056  1.00  0.00    -0.074 C  
HETATM    6  CA  UNL     1      -8.911  10.447  66.922  1.00  0.00    -0.139 C  
HETATM    7  N   UNL     1      -9.849   9.311  66.871  1.00  0.00    -0.197 N  
HETATM    8  C   UNL     1      -9.734  11.740  66.781  1.00  0.00    -0.197 C  
HETATM    9  C   UNL     1      -9.399   8.075  66.484  1.00  0.00    -0.205 C  
HETATM   10  O   UNL     1     -11.027  11.527  66.414  1.00  0.00    -0.282 OA 
HETATM   11  OXT UNL     1      -9.280  12.870  66.892  1.00  0.00    -0.222 OA 
HETATM   12  O   UNL     1      -8.612   7.767  65.621  1.00  0.00    -0.144 OA 
HETATM   13  CA  UNL     1     -10.071   7.382  67.685  1.00  0.00    -0.186 C  
ENDROOT
BRANCH  13  14
HETATM   14  N   UNL     1      -9.200   6.553  68.562  1.00  0.00    -0.127 N  
HETATM   15  H   UNL     1      -8.185   6.623  68.495  1.00  0.00     0.000 HD 
HETATM   16  C   UNL     1      -9.778   5.692  69.463  1.00  0.00    -0.154 C  
HETATM   17  O   UNL     1     -11.008   5.630  69.554  1.00  0.00    -0.334 OA 
BRANCH  16  18
HETATM   18  C   UNL     1      -8.829   4.914  70.432  1.00  0.00    -0.104 C  
HETATM   19  C   UNL     1      -7.457   4.772  69.741  1.00  0.00    -0.055 C  
HETATM   20  N   UNL     1      -9.415   3.567  70.630  1.00  0.00    -0.162 NA 
HETATM   21  C   UNL     1      -6.775   6.137  69.601  1.00  0.00    -0.052 C  
HETATM   22  H1  UNL     1      -8.796   3.060  71.262  1.00  0.00     0.000 HD 
HETATM   23  H2  UNL     1      -9.585   3.072  69.754  1.00  0.00     0.000 HD 
HETATM   24  C   UNL     1      -6.596   6.815  70.955  1.00  0.00    -0.053 C  
HETATM   25  C   UNL     1      -7.896   6.895  71.750  1.00  0.00    -0.099 C  
HETATM   26  C   UNL     1      -8.623   5.551  71.819  1.00  0.00    -0.135 C  
ENDBRANCH  16  18
ENDBRANCH  13  14
TORSDOF 2
ENDMDL
MODEL      163
REMARK 921   NORMALIZED FREE ENERGY PREDICTED BY IDOCK:   -2.72 KCAL/MOL
REMARK 922        TOTAL FREE ENERGY PREDICTED BY IDOCK:   -3.34 KCAL/MOL
REMARK 923 INTER-LIGAND FREE ENERGY PREDICTED BY IDOCK:   -3.20 KCAL/MOL
REMARK 924 INTRA-LIGAND FREE ENERGY PREDICTED BY IDOCK:   -0.14 KCAL/MOL
REMARK 927      BINDING AFFINITY PREDICTED BY RF-SCORE:    0.00 PKD
ROOT
HETATM    1  C   UNL     1      -7.164   9.643  68.359  1.00  0.00    -0.074 C  
HETATM    2  S   UNL     1      -6.342   8.028  68.040  1.00  0.00    -0.052 SA 
HETATM    3  C   UNL     1      -6.815   7.962  66.254  1.00  0.00    -0.058 C  
HETATM    4  C   UNL     1      -5.703   7.266  65.464  1.00  0.00    -0.036 C  
HETATM    5  C   UNL     1      -8.069   7.069  66.145  1.00  0.00    -0.119 C  
HETATM    6  CA  UNL     1      -7.114   9.428  65.856  1.00  0.00    -0.091 C  
HETATM    7  N   UNL     1      -7.673  10.098  67.044  1.00  0.00    -0.095 N  
HETATM    8  C   UNL     1      -5.906  10.254  65.378  1.00  0.00    -0.110 C  
HETATM    9  C   UNL     1      -8.986   9.898  67.383  1.00  0.00    -0.135 C  
HETATM   10  O   UNL     1      -5.801  11.469  65.983  1.00  0.00    -0.152 OA 
HETATM   11  OXT UNL     1      -5.146   9.920  64.480  1.00  0.00    -0.056 OA 
HETATM   12  O   UNL     1      -9.967   9.808  66.683  1.00  0.00    -0.202 OA 
HETATM   13  CA  UNL     1      -8.632   9.610  68.854  1.00  0.00    -0.127 C  
ENDROOT
BRANCH  13  14
HETATM   14  N   UNL     1      -9.108   8.321  69.425  1.00  0.00    -0.153 N  
HETATM   15  H   UNL     1      -9.327   7.536  68.812  1.00  0.00     0.000 HD 
HETATM   16  C   UNL     1      -9.249   8.200  70.786  1.00  0.00    -0.150 C  
HETATM   17  O   UNL     1      -8.959   9.148  71.522  1.00  0.00    -0.319 OA 
BRANCH  16  18
HETATM   18  C   UNL     1      -9.656   6.799  71.350  1.00  0.00    -0.167 C  
HETATM   19  C   UNL     1      -8.388   5.923  71.407  1.00  0.00    -0.128 C  
HETATM   20  N   UNL     1     -10.615   6.204  70.388  1.00  0.00    -0.237 NA 
HETATM   21  C   UNL     1      -7.407   6.454  72.458  1.00  0.00    -0.087 C  
HETATM   22  H1  UNL     1     -10.881   5.290  70.756  1.00  0.00     0.000 HD 
HETATM   23  H2  UNL     1     -10.253   6.161  69.436  1.00  0.00     0.000 HD 
HETATM   24  C   UNL     1      -8.048   6.515  73.840  1.00  0.00    -0.112 C  
HETATM   25  C   UNL     1      -9.371   7.276  73.845  1.00  0.00    -0.304 C  
HETATM   26  C   UNL     1     -10.318   6.806  72.740  1.00  0.00    -0.233 C  
ENDBRANCH  16  18
ENDBRANCH  13  14
TORSDOF 2
ENDMDL
MODEL      164
REMARK 921   NORMALIZED FREE ENERGY PREDICTED BY IDOCK:   -2.64 KCAL/MOL
REMARK 922        TOTAL FREE ENERGY PREDICTED BY IDOCK:   -3.25 KCAL/MOL
REMARK 923 INTER-LIGAND FREE ENERGY PREDICTED BY IDOCK:   -2.81 KCAL/MOL
REMARK 924 INTRA-LIGAND FREE ENERGY PREDICTED BY IDOCK:   -0.44 KCAL/MOL
REMARK 927      BINDING AFFINITY PREDICTED BY RF-SCORE:    0.00 PKD
ROOT
HETATM    1  C   UNL     1      -7.050   9.409  69.537  1.00  0.00    -0.062 C  
HETATM    2  S   UNL     1      -6.607   8.523  67.987  1.00  0.00    -0.058 SA 
HETATM    3  C   UNL     1      -7.419   9.749  66.868  1.00  0.00    -0.091 C  
HETATM    4  C   UNL     1      -6.623   9.845  65.563  1.00  0.00    -0.092 C  
HETATM    5  C   UNL     1      -8.810   9.189  66.504  1.00  0.00    -0.156 C  
HETATM    6  CA  UNL     1      -7.521  11.054  67.696  1.00  0.00    -0.096 C  
HETATM    7  N   UNL     1      -7.712  10.663  69.105  1.00  0.00    -0.128 N  
HETATM    8  C   UNL     1      -6.300  11.988  67.631  1.00  0.00    -0.099 C  
HETATM    9  C   UNL     1      -8.950  10.263  69.538  1.00  0.00    -0.157 C  
HETATM   10  O   UNL     1      -5.865  12.404  68.852  1.00  0.00    -0.061 OA 
HETATM   11  OXT UNL     1      -5.799  12.409  66.598  1.00  0.00    -0.199 OA 
HETATM   12  O   UNL     1     -10.047  10.689  69.263  1.00  0.00    -0.217 OA 
HETATM   13  CA  UNL     1      -8.376   9.012  70.231  1.00  0.00    -0.157 C  
ENDROOT
BRANCH  13  14
HETATM   14  N   UNL     1      -8.957   7.698  69.845  1.00  0.00    -0.144 N  
HETATM   15  H   UNL     1      -9.414   7.582  68.940  1.00  0.00     0.000 HD 
HETATM   16  C   UNL     1      -8.871   6.642  70.719  1.00  0.00    -0.147 C  
HETATM   17  O   UNL     1      -8.296   6.784  71.803  1.00  0.00    -0.110 OA 
BRANCH  16  18
HETATM   18  C   UNL     1      -9.405   5.255  70.234  1.00  0.00    -0.158 C  
HETATM   19  C   UNL     1      -8.821   4.985  68.831  1.00  0.00    -0.111 C  
HETATM   20  N   UNL     1     -10.880   5.366  70.132  1.00  0.00    -0.235 NA 
HETATM   21  C   UNL     1      -7.305   4.772  68.906  1.00  0.00    -0.057 C  
HETATM   22  H1  UNL     1     -11.228   4.461  69.816  1.00  0.00     0.000 HD 
HETATM   23  H2  UNL     1     -11.183   6.140  69.541  1.00  0.00     0.000 HD 
HETATM   24  C   UNL     1      -6.947   3.620  69.838  1.00  0.00    -0.041 C  
HETATM   25  C   UNL     1      -7.582   3.759  71.219  1.00  0.00    -0.055 C  
HETATM   26  C   UNL     1      -9.080   4.058  71.146  1.00  0.00    -0.180 C  
ENDBRANCH  16  18
ENDBRANCH  13  14
TORSDOF 2
ENDMDL
MODEL      165
REMARK 921   NORMALIZED FREE ENERGY PREDICTED BY IDOCK:   -2.57 KCAL/MOL
REMARK 922        TOTAL FREE ENERGY PREDICTED BY IDOCK:   -3.17 KCAL/MOL
REMARK 923 INTER-LIGAND FREE ENERGY PREDICTED BY IDOCK:   -2.99 KCAL/MOL
REMARK 924 INTRA-LIGAND FREE ENERGY PREDICTED BY IDOCK:   -0.18 KCAL/MOL
REMARK 927      BINDING AFFINITY PREDICTED BY RF-SCORE:    0.00 PKD
ROOT
HETATM    1  C   UNL     1      -7.253   5.693  67.585  1.00  0.00    -0.076 C  
HETATM    2  S   UNL     1      -7.284   5.455  69.408  1.00  0.00    -0.066 SA 
HETATM    3  C   UNL     1      -8.787   4.379  69.400  1.00  0.00    -0.090 C  
HETATM    4  C   UNL     1      -8.671   3.343  70.522  1.00  0.00    -0.128 C  
HETATM    5  C   UNL     1      -9.996   5.275  69.740  1.00  0.00    -0.306 C  
HETATM    6  CA  UNL     1      -8.875   3.811  67.961  1.00  0.00    -0.113 C  
HETATM    7  N   UNL     1      -8.343   4.843  67.052  1.00  0.00    -0.107 N  
HETATM    8  C   UNL     1      -8.092   2.511  67.703  1.00  0.00    -0.068 C  
HETATM    9  C   UNL     1      -9.128   5.912  66.704  1.00  0.00    -0.134 C  
HETATM   10  O   UNL     1      -7.313   2.556  66.588  1.00  0.00    -0.066 OA 
HETATM   11  OXT UNL     1      -8.205   1.488  68.362  1.00  0.00    -0.055 OA 
HETATM   12  O   UNL     1     -10.308   5.963  66.450  1.00  0.00    -0.177 OA 
HETATM   13  CA  UNL     1      -8.005   6.921  67.013  1.00  0.00    -0.116 C  
ENDROOT
BRANCH  13  14
HETATM   14  N   UNL     1      -8.320   8.011  67.975  1.00  0.00    -0.125 N  
HETATM   15  H   UNL     1      -9.179   7.980  68.525  1.00  0.00     0.000 HD 
HETATM   16  C   UNL     1      -7.443   9.058  68.116  1.00  0.00    -0.084 C  
HETATM   17  O   UNL     1      -6.394   9.076  67.464  1.00  0.00    -0.061 OA 
BRANCH  16  18
HETATM   18  C   UNL     1      -7.764  10.129  69.209  1.00  0.00    -0.126 C  
HETATM   19  C   UNL     1      -8.021  11.473  68.497  1.00  0.00    -0.143 C  
HETATM   20  N   UNL     1      -6.559  10.255  70.064  1.00  0.00    -0.110 NA 
HETATM   21  C   UNL     1      -9.311  11.413  67.673  1.00  0.00    -0.159 C  
HETATM   22  H1  UNL     1      -6.769  10.954  70.777  1.00  0.00     0.000 HD 
HETATM   23  H2  UNL     1      -5.713  10.466  69.535  1.00  0.00     0.000 HD 
HETATM   24  C   UNL     1     -10.514  11.058  68.541  1.00  0.00    -0.210 C  
HETATM   25  C   UNL     1     -10.293   9.793  69.365  1.00  0.00    -0.232 C  
HETATM   26  C   UNL     1      -8.963   9.813  70.121  1.00  0.00    -0.235 C  
ENDBRANCH  16  18
ENDBRANCH  13  14
TORSDOF 2
ENDMDL
MODEL      166
REMARK 921   NORMALIZED FREE ENERGY PREDICTED BY IDOCK:   -2.56 KCAL/MOL
REMARK 922        TOTAL FREE ENERGY PREDICTED BY IDOCK:   -3.17 KCAL/MOL
REMARK 923 INTER-LIGAND FREE ENERGY PREDICTED BY IDOCK:   -2.97 KCAL/MOL
REMARK 924 INTRA-LIGAND FREE ENERGY PREDICTED BY IDOCK:   -0.20 KCAL/MOL
REMARK 927      BINDING AFFINITY PREDICTED BY RF-SCORE:    0.00 PKD
ROOT
HETATM    1  C   UNL     1      -8.463   8.576  66.093  1.00  0.00    -0.132 C  
HETATM    2  S   UNL     1     -10.263   8.758  66.424  1.00  0.00    -0.056 SA 
HETATM    3  C   UNL     1     -10.042   9.436  68.129  1.00  0.00    -0.181 C  
HETATM    4  C   UNL     1     -11.158  10.443  68.419  1.00  0.00    -0.322 C  
HETATM    5  C   UNL     1     -10.226   8.265  69.116  1.00  0.00    -0.223 C  
HETATM    6  CA  UNL     1      -8.598   9.997  68.161  1.00  0.00    -0.118 C  
HETATM    7  N   UNL     1      -7.780   9.146  67.278  1.00  0.00    -0.095 N  
HETATM    8  C   UNL     1      -8.433  11.454  67.693  1.00  0.00    -0.130 C  
HETATM    9  C   UNL     1      -7.341   7.926  67.724  1.00  0.00    -0.096 C  
HETATM   10  O   UNL     1      -7.433  11.625  66.785  1.00  0.00    -0.142 OA 
HETATM   11  OXT UNL     1      -9.060  12.404  68.139  1.00  0.00    -0.192 OA 
HETATM   12  O   UNL     1      -6.932   7.594  68.811  1.00  0.00    -0.066 OA 
HETATM   13  CA  UNL     1      -7.809   7.215  66.439  1.00  0.00    -0.109 C  
ENDROOT
BRANCH  13  14
HETATM   14  N   UNL     1      -8.732   6.060  66.603  1.00  0.00    -0.120 N  
HETATM   15  H   UNL     1      -9.554   6.138  67.203  1.00  0.00     0.000 HD 
HETATM   16  C   UNL     1      -8.468   4.888  65.938  1.00  0.00    -0.119 C  
HETATM   17  O   UNL     1      -7.484   4.809  65.196  1.00  0.00    -0.074 OA 
BRANCH  16  18
HETATM   18  C   UNL     1      -9.516   3.734  66.060  1.00  0.00    -0.173 C  
HETATM   19  C   UNL     1     -10.768   4.143  65.256  1.00  0.00    -0.045 C  
HETATM   20  N   UNL     1      -9.875   3.619  67.494  1.00  0.00    -0.206 NA 
HETATM   21  C   UNL     1     -10.461   4.183  63.756  1.00  0.00    -0.065 C  
HETATM   22  H1  UNL     1     -10.559   2.867  67.573  1.00  0.00     0.000 HD 
HETATM   23  H2  UNL     1     -10.200   4.498  67.896  1.00  0.00     0.000 HD 
HETATM   24  C   UNL     1      -9.949   2.838  63.252  1.00  0.00    -0.112 C  
HETATM   25  C   UNL     1      -8.774   2.311  64.071  1.00  0.00    -0.091 C  
HETATM   26  C   UNL     1      -9.045   2.350  65.575  1.00  0.00    -0.102 C  
ENDBRANCH  16  18
ENDBRANCH  13  14
TORSDOF 2
ENDMDL
MODEL      167
REMARK 921   NORMALIZED FREE ENERGY PREDICTED BY IDOCK:   -2.50 KCAL/MOL
REMARK 922        TOTAL FREE ENERGY PREDICTED BY IDOCK:   -3.10 KCAL/MOL
REMARK 923 INTER-LIGAND FREE ENERGY PREDICTED BY IDOCK:   -3.46 KCAL/MOL
REMARK 924 INTRA-LIGAND FREE ENERGY PREDICTED BY IDOCK:    0.36 KCAL/MOL
REMARK 927      BINDING AFFINITY PREDICTED BY RF-SCORE:    0.00 PKD
ROOT
HETATM    1  C   UNL     1      -8.028   5.417  69.228  1.00  0.00    -0.093 C  
HETATM    2  S   UNL     1      -7.393   4.123  70.370  1.00  0.00    -0.045 SA 
HETATM    3  C   UNL     1      -8.929   3.098  70.315  1.00  0.00    -0.097 C  
HETATM    4  C   UNL     1      -8.552   1.618  70.433  1.00  0.00    -0.088 C  
HETATM    5  C   UNL     1      -9.762   3.449  71.565  1.00  0.00    -0.233 C  
HETATM    6  CA  UNL     1      -9.649   3.510  69.007  1.00  0.00    -0.073 C  
HETATM    7  N   UNL     1      -9.356   4.937  68.779  1.00  0.00    -0.126 N  
HETATM    8  C   UNL     1      -9.236   2.739  67.740  1.00  0.00    -0.202 C  
HETATM    9  C   UNL     1     -10.039   5.893  69.484  1.00  0.00    -0.203 C  
HETATM   10  O   UNL     1      -8.947   3.544  66.681  1.00  0.00    -0.129 OA 
HETATM   11  OXT UNL     1      -9.242   1.521  67.633  1.00  0.00    -0.133 OA 
HETATM   12  O   UNL     1     -11.204   5.943  69.805  1.00  0.00    -0.389 OA 
HETATM   13  CA  UNL     1      -8.743   6.637  69.859  1.00  0.00    -0.141 C  
ENDROOT
BRANCH  13  14
HETATM   14  N   UNL     1      -8.493   6.874  71.306  1.00  0.00    -0.119 N  
HETATM   15  H   UNL     1      -9.037   6.377  72.012  1.00  0.00     0.000 HD 
HETATM   16  C   UNL     1      -7.522   7.770  71.683  1.00  0.00    -0.075 C  
HETATM   17  O   UNL     1      -6.852   8.350  70.824  1.00  0.00    -0.037 OA 
BRANCH  16  18
HETATM   18  C   UNL     1      -7.224   7.914  73.211  1.00  0.00    -0.107 C  
HETATM   19  C   UNL     1      -8.556   8.215  73.929  1.00  0.00    -0.288 C  
HETATM   20  N   UNL     1      -6.314   9.073  73.372  1.00  0.00    -0.321 NA 
HETATM   21  C   UNL     1      -9.493   7.004  73.866  1.00  0.00    -0.278 C  
HETATM   22  H1  UNL     1      -6.119   9.166  74.368  1.00  0.00     0.000 HD 
HETATM   23  H2  UNL     1      -6.678   9.928  72.953  1.00  0.00     0.000 HD 
HETATM   24  C   UNL     1      -8.851   5.766  74.482  1.00  0.00    -0.123 C  
HETATM   25  C   UNL     1      -7.473   5.464  73.898  1.00  0.00    -0.090 C  
HETATM   26  C   UNL     1      -6.564   6.694  73.881  1.00  0.00    -0.072 C  
ENDBRANCH  16  18
ENDBRANCH  13  14
TORSDOF 2
ENDMDL
MODEL      168
REMARK 921   NORMALIZED FREE ENERGY PREDICTED BY IDOCK:   -2.41 KCAL/MOL
REMARK 922        TOTAL FREE ENERGY PREDICTED BY IDOCK:   -2.99 KCAL/MOL
REMARK 923 INTER-LIGAND FREE ENERGY PREDICTED BY IDOCK:   -2.78 KCAL/MOL
REMARK 924 INTRA-LIGAND FREE ENERGY PREDICTED BY IDOCK:   -0.21 KCAL/MOL
REMARK 927      BINDING AFFINITY PREDICTED BY RF-SCORE:    0.00 PKD
ROOT
HETATM    1  C   UNL     1      -9.436   4.547  65.362  1.00  0.00    -0.172 C  
HETATM    2  S   UNL     1      -8.067   5.770  65.232  1.00  0.00    -0.136 SA 
HETATM    3  C   UNL     1      -6.721   4.504  65.278  1.00  0.00    -0.049 C  
HETATM    4  C   UNL     1      -5.554   4.979  64.408  1.00  0.00    -0.017 C  
HETATM    5  C   UNL     1      -6.201   4.439  66.730  1.00  0.00    -0.032 C  
HETATM    6  CA  UNL     1      -7.394   3.178  64.845  1.00  0.00    -0.071 C  
HETATM    7  N   UNL     1      -8.786   3.216  65.328  1.00  0.00    -0.128 N  
HETATM    8  C   UNL     1      -7.430   2.905  63.331  1.00  0.00    -0.062 C  
HETATM    9  C   UNL     1      -9.057   2.951  66.645  1.00  0.00    -0.145 C  
HETATM   10  O   UNL     1      -8.657   2.539  62.871  1.00  0.00    -0.080 OA 
HETATM   11  OXT UNL     1      -6.452   2.920  62.597  1.00  0.00    -0.017 OA 
HETATM   12  O   UNL     1      -8.575   2.132  67.391  1.00  0.00    -0.088 OA 
HETATM   13  CA  UNL     1      -9.950   4.199  66.781  1.00  0.00    -0.106 C  
ENDROOT
BRANCH  13  14
HETATM   14  N   UNL     1      -9.607   5.162  67.862  1.00  0.00    -0.130 N  
HETATM   15  H   UNL     1      -8.754   5.042  68.407  1.00  0.00     0.000 HD 
HETATM   16  C   UNL     1     -10.453   6.214  68.119  1.00  0.00    -0.230 C  
HETATM   17  O   UNL     1     -11.472   6.365  67.439  1.00  0.00    -0.157 OA 
BRANCH  16  18
HETATM   18  C   UNL     1     -10.005   7.256  69.195  1.00  0.00    -0.170 C  
HETATM   19  C   UNL     1      -8.478   7.129  69.374  1.00  0.00    -0.134 C  
HETATM   20  N   UNL     1     -10.675   6.887  70.465  1.00  0.00    -0.227 NA 
HETATM   21  C   UNL     1      -7.743   7.590  68.110  1.00  0.00    -0.120 C  
HETATM   22  H1  UNL     1     -10.383   7.568  71.167  1.00  0.00     0.000 HD 
HETATM   23  H2  UNL     1     -10.498   5.923  70.745  1.00  0.00     0.000 HD 
HETATM   24  C   UNL     1      -8.096   9.029  67.751  1.00  0.00    -0.109 C  
HETATM   25  C   UNL     1      -9.602   9.262  67.663  1.00  0.00    -0.172 C  
HETATM   26  C   UNL     1     -10.349   8.725  68.885  1.00  0.00    -0.229 C  
ENDBRANCH  16  18
ENDBRANCH  13  14
TORSDOF 2
ENDMDL
MODEL      169
REMARK 921   NORMALIZED FREE ENERGY PREDICTED BY IDOCK:   -2.02 KCAL/MOL
REMARK 922        TOTAL FREE ENERGY PREDICTED BY IDOCK:   -2.56 KCAL/MOL
REMARK 923 INTER-LIGAND FREE ENERGY PREDICTED BY IDOCK:   -2.65 KCAL/MOL
REMARK 924 INTRA-LIGAND FREE ENERGY PREDICTED BY IDOCK:    0.09 KCAL/MOL
REMARK 927      BINDING AFFINITY PREDICTED BY RF-SCORE:    0.00 PKD
ROOT
HETATM    1  C   UNL     1      -7.909  17.051  67.080  1.00  0.00    -0.175 C  
HETATM    2  S   UNL     1      -9.083  17.733  65.839  1.00  0.00     0.299 SA 
HETATM    3  C   UNL     1      -9.389  19.305  66.761  1.00  0.00    -0.329 C  
HETATM    4  C   UNL     1      -9.620  20.440  65.759  1.00  0.00    -0.025 C  
HETATM    5  C   UNL     1     -10.704  19.128  67.549  1.00  0.00    -0.555 C  
HETATM    6  CA  UNL     1      -8.170  19.471  67.702  1.00  0.00    -0.297 C  
HETATM    7  N   UNL     1      -7.733  18.118  68.092  1.00  0.00    -0.265 N  
HETATM    8  C   UNL     1      -6.954  20.202  67.104  1.00  0.00    -0.240 C  
HETATM    9  C   UNL     1      -8.419  17.436  69.063  1.00  0.00    -0.056 C  
HETATM   10  O   UNL     1      -5.776  19.549  67.297  1.00  0.00    -0.175 OA 
HETATM   11  OXT UNL     1      -6.994  21.306  66.580  1.00  0.00    -0.286 OA 
HETATM   12  O   UNL     1      -8.909  17.829  70.095  1.00  0.00     1.838 OA 
HETATM   13  CA  UNL     1      -8.497  16.159  68.203  1.00  0.00    -0.175 C  
ENDROOT
BRANCH  13  14
HETATM   14  N   UNL     1      -9.849  15.591  67.956  1.00  0.00    -0.212 N  
HETATM   15  H   UNL     1     -10.400  15.902  67.155  1.00  0.00     0.000 HD 
HETATM   16  C   UNL     1     -10.347  14.643  68.816  1.00  0.00    -0.248 C  
HETATM   17  O   UNL     1      -9.664  14.255  69.768  1.00  0.00     0.404 OA 
BRANCH  16  18
HETATM   18  C   UNL     1     -11.729  14.001  68.463  1.00  0.00    -0.352 C  
HETATM   19  C   UNL     1     -11.473  12.556  67.986  1.00  0.00    -0.368 C  
HETATM   20  N   UNL     1     -12.304  14.787  67.346  1.00  0.00    -0.450 NA 
HETATM   21  C   UNL     1     -10.964  11.685  69.139  1.00  0.00    -0.270 C  
HETATM   22  H1  UNL     1     -13.205  14.368  67.116  1.00  0.00     0.000 HD 
HETATM   23  H2  UNL     1     -11.679  14.857  66.543  1.00  0.00     0.000 HD 
HETATM   24  C   UNL     1     -11.946  11.670  70.305  1.00  0.00    -0.445 C  
HETATM   25  C   UNL     1     -12.335  13.072  70.766  1.00  0.00    -0.394 C  
HETATM   26  C   UNL     1     -12.762  13.971  69.605  1.00  0.00     0.123 C  
ENDBRANCH  16  18
ENDBRANCH  13  14
TORSDOF 2
ENDMDL
MODEL      170
REMARK 921   NORMALIZED FREE ENERGY PREDICTED BY IDOCK:   -1.69 KCAL/MOL
REMARK 922        TOTAL FREE ENERGY PREDICTED BY IDOCK:   -2.20 KCAL/MOL
REMARK 923 INTER-LIGAND FREE ENERGY PREDICTED BY IDOCK:   -2.07 KCAL/MOL
REMARK 924 INTRA-LIGAND FREE ENERGY PREDICTED BY IDOCK:   -0.12 KCAL/MOL
REMARK 927      BINDING AFFINITY PREDICTED BY RF-SCORE:    0.00 PKD
ROOT
HETATM    1  C   UNL     1      -7.298   7.090  65.719  1.00  0.00    -0.079 C  
HETATM    2  S   UNL     1      -8.903   6.201  65.847  1.00  0.00    -0.113 SA 
HETATM    3  C   UNL     1      -9.474   7.124  67.343  1.00  0.00    -0.131 C  
HETATM    4  C   UNL     1     -10.996   7.287  67.283  1.00  0.00    -0.284 C  
HETATM    5  C   UNL     1      -9.166   6.244  68.572  1.00  0.00    -0.123 C  
HETATM    6  CA  UNL     1      -8.653   8.436  67.351  1.00  0.00    -0.124 C  
HETATM    7  N   UNL     1      -7.331   8.128  66.776  1.00  0.00    -0.082 N  
HETATM    8  C   UNL     1      -9.249   9.608  66.551  1.00  0.00    -0.158 C  
HETATM    9  C   UNL     1      -6.384   7.502  67.545  1.00  0.00    -0.056 C  
HETATM   10  O   UNL     1      -8.359  10.206  65.713  1.00  0.00    -0.134 OA 
HETATM   11  OXT UNL     1     -10.383  10.044  66.695  1.00  0.00    -0.234 OA 
HETATM   12  O   UNL     1      -6.102   7.653  68.710  1.00  0.00    -0.030 OA 
HETATM   13  CA  UNL     1      -6.078   6.468  66.444  1.00  0.00    -0.033 C  
ENDROOT
BRANCH  13  14
HETATM   14  N   UNL     1      -6.191   5.031  66.815  1.00  0.00    -0.031 N  
HETATM   15  H   UNL     1      -6.356   4.761  67.784  1.00  0.00     0.000 HD 
HETATM   16  C   UNL     1      -6.070   4.074  65.838  1.00  0.00    -0.031 C  
HETATM   17  O   UNL     1      -5.894   4.410  64.663  1.00  0.00    -0.014 OA 
BRANCH  16  18
HETATM   18  C   UNL     1      -6.294   2.583  66.254  1.00  0.00    -0.024 C  
HETATM   19  C   UNL     1      -7.687   2.477  66.908  1.00  0.00    -0.071 C  
HETATM   20  N   UNL     1      -5.258   2.250  67.261  1.00  0.00    -0.008 NA 
HETATM   21  C   UNL     1      -8.793   2.724  65.876  1.00  0.00    -0.135 C  
HETATM   22  H1  UNL     1      -5.404   1.278  67.532  1.00  0.00     0.000 HD 
HETATM   23  H2  UNL     1      -5.251   2.890  68.055  1.00  0.00     0.000 HD 
HETATM   24  C   UNL     1      -8.701   1.745  64.711  1.00  0.00    -0.103 C  
HETATM   25  C   UNL     1      -7.313   1.711  64.078  1.00  0.00    -0.056 C  
HETATM   26  C   UNL     1      -6.200   1.551  65.115  1.00  0.00    -0.018 C  
ENDBRANCH  16  18
ENDBRANCH  13  14
TORSDOF 2
ENDMDL
MODEL      171
REMARK 921   NORMALIZED FREE ENERGY PREDICTED BY IDOCK:   -1.68 KCAL/MOL
REMARK 922        TOTAL FREE ENERGY PREDICTED BY IDOCK:   -2.18 KCAL/MOL
REMARK 923 INTER-LIGAND FREE ENERGY PREDICTED BY IDOCK:   -2.27 KCAL/MOL
REMARK 924 INTRA-LIGAND FREE ENERGY PREDICTED BY IDOCK:    0.10 KCAL/MOL
REMARK 927      BINDING AFFINITY PREDICTED BY RF-SCORE:    0.00 PKD
ROOT
HETATM    1  C   UNL     1      -9.607  10.184  65.477  1.00  0.00    -0.250 C  
HETATM    2  S   UNL     1      -9.526   9.792  67.272  1.00  0.00    -0.157 SA 
HETATM    3  C   UNL     1      -8.110  10.928  67.617  1.00  0.00    -0.115 C  
HETATM    4  C   UNL     1      -8.261  11.508  69.026  1.00  0.00     0.061 C  
HETATM    5  C   UNL     1      -6.825  10.073  67.619  1.00  0.00    -0.084 C  
HETATM    6  CA  UNL     1      -8.119  11.954  66.457  1.00  0.00     0.006 C  
HETATM    7  N   UNL     1      -8.604  11.252  65.255  1.00  0.00     0.025 N  
HETATM    8  C   UNL     1      -9.005  13.195  66.665  1.00  0.00    -0.125 C  
HETATM    9  C   UNL     1      -7.756  10.433  64.556  1.00  0.00    -0.051 C  
HETATM   10  O   UNL     1      -9.820  13.466  65.609  1.00  0.00    -0.248 OA 
HETATM   11  OXT UNL     1      -8.945  13.940  67.633  1.00  0.00    -0.174 OA 
HETATM   12  O   UNL     1      -6.585  10.569  64.289  1.00  0.00    -0.055 OA 
HETATM   13  CA  UNL     1      -8.788   9.290  64.513  1.00  0.00    -0.163 C  
ENDROOT
BRANCH  13  14
HETATM   14  N   UNL     1      -8.356   7.968  65.044  1.00  0.00    -0.240 N  
HETATM   15  H   UNL     1      -8.239   7.830  66.047  1.00  0.00     0.000 HD 
HETATM   16  C   UNL     1      -8.118   6.938  64.168  1.00  0.00    -0.026 C  
HETATM   17  O   UNL     1      -8.286   7.107  62.957  1.00  0.00    -0.068 OA 
BRANCH  16  18
HETATM   18  C   UNL     1      -7.764   5.540  64.774  1.00  0.00    -0.092 C  
HETATM   19  C   UNL     1      -9.001   4.630  64.626  1.00  0.00    -0.151 C  
HETATM   20  N   UNL     1      -7.483   5.748  66.215  1.00  0.00    -0.081 NA 
HETATM   21  C   UNL     1      -9.271   4.316  63.151  1.00  0.00    -0.140 C  
HETATM   22  H1  UNL     1      -7.251   4.836  66.610  1.00  0.00     0.000 HD 
HETATM   23  H2  UNL     1      -8.243   6.216  66.708  1.00  0.00     0.000 HD 
HETATM   24  C   UNL     1      -8.068   3.652  62.491  1.00  0.00    -0.071 C  
HETATM   25  C   UNL     1      -6.777   4.441  62.688  1.00  0.00    -0.030 C  
HETATM   26  C   UNL     1      -6.548   4.831  64.149  1.00  0.00    -0.042 C  
ENDBRANCH  16  18
ENDBRANCH  13  14
TORSDOF 2
ENDMDL
MODEL      172
REMARK 921   NORMALIZED FREE ENERGY PREDICTED BY IDOCK:   -1.62 KCAL/MOL
REMARK 922        TOTAL FREE ENERGY PREDICTED BY IDOCK:   -2.12 KCAL/MOL
REMARK 923 INTER-LIGAND FREE ENERGY PREDICTED BY IDOCK:   -2.53 KCAL/MOL
REMARK 924 INTRA-LIGAND FREE ENERGY PREDICTED BY IDOCK:    0.41 KCAL/MOL
REMARK 927      BINDING AFFINITY PREDICTED BY RF-SCORE:    0.00 PKD
ROOT
HETATM    1  C   UNL     1      -8.591   7.863  70.831  1.00  0.00    -0.128 C  
HETATM    2  S   UNL     1      -9.104   6.217  71.471  1.00  0.00    -0.142 SA 
HETATM    3  C   UNL     1      -7.396   5.692  71.940  1.00  0.00    -0.093 C  
HETATM    4  C   UNL     1      -7.466   4.808  73.189  1.00  0.00    -0.087 C  
HETATM    5  C   UNL     1      -6.856   4.808  70.796  1.00  0.00    -0.036 C  
HETATM    6  CA  UNL     1      -6.590   7.006  72.085  1.00  0.00    -0.056 C  
HETATM    7  N   UNL     1      -7.139   7.965  71.109  1.00  0.00    -0.052 N  
HETATM    8  C   UNL     1      -6.633   7.672  73.472  1.00  0.00    -0.077 C  
HETATM    9  C   UNL     1      -6.788   7.868  69.788  1.00  0.00    -0.042 C  
HETATM   10  O   UNL     1      -6.921   9.001  73.430  1.00  0.00    -0.336 OA 
HETATM   11  OXT UNL     1      -6.354   7.112  74.522  1.00  0.00    -0.082 OA 
HETATM   12  O   UNL     1      -5.723   7.604  69.281  1.00  0.00    -0.028 OA 
HETATM   13  CA  UNL     1      -8.254   7.969  69.323  1.00  0.00    -0.127 C  
ENDROOT
BRANCH  13  14
HETATM   14  N   UNL     1      -8.765   6.876  68.453  1.00  0.00    -0.125 N  
HETATM   15  H   UNL     1      -9.541   6.291  68.763  1.00  0.00     0.000 HD 
HETATM   16  C   UNL     1      -8.182   6.663  67.228  1.00  0.00    -0.121 C  
HETATM   17  O   UNL     1      -7.259   7.390  66.850  1.00  0.00    -0.083 OA 
BRANCH  16  18
HETATM   18  C   UNL     1      -8.814   5.570  66.305  1.00  0.00    -0.134 C  
HETATM   19  C   UNL     1      -8.260   5.771  64.880  1.00  0.00    -0.137 C  
HETATM   20  N   UNL     1     -10.279   5.802  66.294  1.00  0.00    -0.394 NA 
HETATM   21  C   UNL     1      -6.762   5.451  64.830  1.00  0.00    -0.047 C  
HETATM   22  H1  UNL     1     -10.691   5.089  65.693  1.00  0.00     0.000 HD 
HETATM   23  H2  UNL     1     -10.531   6.751  66.020  1.00  0.00     0.000 HD 
HETATM   24  C   UNL     1      -6.479   4.025  65.290  1.00  0.00    -0.036 C  
HETATM   25  C   UNL     1      -7.093   3.712  66.651  1.00  0.00    -0.059 C  
HETATM   26  C   UNL     1      -8.567   4.111  66.733  1.00  0.00    -0.108 C  
ENDBRANCH  16  18
ENDBRANCH  13  14
TORSDOF 2
ENDMDL
MODEL      173
REMARK 921   NORMALIZED FREE ENERGY PREDICTED BY IDOCK:   -1.59 KCAL/MOL
REMARK 922        TOTAL FREE ENERGY PREDICTED BY IDOCK:   -2.08 KCAL/MOL
REMARK 923 INTER-LIGAND FREE ENERGY PREDICTED BY IDOCK:   -2.00 KCAL/MOL
REMARK 924 INTRA-LIGAND FREE ENERGY PREDICTED BY IDOCK:   -0.07 KCAL/MOL
REMARK 927      BINDING AFFINITY PREDICTED BY RF-SCORE:    0.00 PKD
ROOT
HETATM    1  C   UNL     1      -6.262   9.094  69.325  1.00  0.00    -0.041 C  
HETATM    2  S   UNL     1      -5.380   9.433  67.747  1.00  0.00    -0.037 SA 
HETATM    3  C   UNL     1      -6.499  10.812  67.235  1.00  0.00    -0.070 C  
HETATM    4  C   UNL     1      -5.689  11.857  66.461  1.00  0.00     0.152 C  
HETATM    5  C   UNL     1      -7.531  10.226  66.250  1.00  0.00    -0.118 C  
HETATM    6  CA  UNL     1      -7.164  11.305  68.544  1.00  0.00    -0.094 C  
HETATM    7  N   UNL     1      -7.313  10.133  69.426  1.00  0.00    -0.092 N  
HETATM    8  C   UNL     1      -6.393  12.384  69.325  1.00  0.00    -0.106 C  
HETATM    9  C   UNL     1      -8.336   9.247  69.212  1.00  0.00    -0.124 C  
HETATM   10  O   UNL     1      -6.259  12.107  70.651  1.00  0.00    -0.233 OA 
HETATM   11  OXT UNL     1      -6.002  13.442  68.851  1.00  0.00    -0.072 OA 
HETATM   12  O   UNL     1      -9.484   9.444  68.890  1.00  0.00    -0.150 OA 
HETATM   13  CA  UNL     1      -7.391   8.033  69.298  1.00  0.00    -0.081 C  
ENDROOT
BRANCH  13  14
HETATM   14  N   UNL     1      -7.388   7.094  68.143  1.00  0.00    -0.094 N  
HETATM   15  H   UNL     1      -6.981   7.376  67.251  1.00  0.00     0.000 HD 
HETATM   16  C   UNL     1      -7.938   5.845  68.292  1.00  0.00    -0.109 C  
HETATM   17  O   UNL     1      -8.407   5.503  69.381  1.00  0.00    -0.099 OA 
BRANCH  16  18
HETATM   18  C   UNL     1      -7.825   4.857  67.085  1.00  0.00    -0.095 C  
HETATM   19  C   UNL     1      -6.457   4.149  67.177  1.00  0.00    -0.042 C  
HETATM   20  N   UNL     1      -7.868   5.671  65.847  1.00  0.00    -0.099 NA 
HETATM   21  C   UNL     1      -6.405   3.223  68.397  1.00  0.00    -0.033 C  
HETATM   22  H1  UNL     1      -7.794   5.026  65.061  1.00  0.00     0.000 HD 
HETATM   23  H2  UNL     1      -7.162   6.407  65.828  1.00  0.00     0.000 HD 
HETATM   24  C   UNL     1      -7.517   2.180  68.356  1.00  0.00    -0.047 C  
HETATM   25  C   UNL     1      -8.898   2.798  68.155  1.00  0.00    -0.164 C  
HETATM   26  C   UNL     1      -8.931   3.789  66.991  1.00  0.00    -0.157 C  
ENDBRANCH  16  18
ENDBRANCH  13  14
TORSDOF 2
ENDMDL
MODEL      174
REMARK 921   NORMALIZED FREE ENERGY PREDICTED BY IDOCK:   -1.04 KCAL/MOL
REMARK 922        TOTAL FREE ENERGY PREDICTED BY IDOCK:   -1.47 KCAL/MOL
REMARK 923 INTER-LIGAND FREE ENERGY PREDICTED BY IDOCK:   -1.21 KCAL/MOL
REMARK 924 INTRA-LIGAND FREE ENERGY PREDICTED BY IDOCK:   -0.26 KCAL/MOL
REMARK 927      BINDING AFFINITY PREDICTED BY RF-SCORE:    0.00 PKD
ROOT
HETATM    1  C   UNL     1      -9.981  14.603  68.933  1.00  0.00    -0.228 C  
HETATM    2  S   UNL     1      -9.442  15.203  70.586  1.00  0.00     1.645 SA 
HETATM    3  C   UNL     1     -11.147  15.613  71.168  1.00  0.00    -0.290 C  
HETATM    4  C   UNL     1     -11.239  15.359  72.676  1.00  0.00    -0.047 C  
HETATM    5  C   UNL     1     -11.353  17.127  70.956  1.00  0.00     1.122 C  
HETATM    6  CA  UNL     1     -12.095  14.770  70.280  1.00  0.00    -0.322 C  
HETATM    7  N   UNL     1     -11.462  14.653  68.954  1.00  0.00    -0.281 N  
HETATM    8  C   UNL     1     -12.399  13.347  70.782  1.00  0.00    -0.354 C  
HETATM    9  C   UNL     1     -11.529  15.700  68.073  1.00  0.00    -0.291 C  
HETATM   10  O   UNL     1     -12.246  12.388  69.829  1.00  0.00    -0.232 OA 
HETATM   11  OXT UNL     1     -12.825  13.078  71.896  1.00  0.00    -0.284 OA 
HETATM   12  O   UNL     1     -12.438  16.459  67.830  1.00  0.00     1.172 OA 
HETATM   13  CA  UNL     1     -10.018  15.635  67.777  1.00  0.00    -0.223 C  
ENDROOT
BRANCH  13  14
HETATM   14  N   UNL     1      -9.234  16.883  67.980  1.00  0.00    -0.230 N  
HETATM   15  H   UNL     1      -9.221  17.341  68.891  1.00  0.00     0.000 HD 
HETATM   16  C   UNL     1      -8.526  17.410  66.928  1.00  0.00    -0.241 C  
HETATM   17  O   UNL     1      -8.528  16.836  65.835  1.00  0.00    -0.484 OA 
BRANCH  16  18
HETATM   18  C   UNL     1      -7.637  18.665  67.210  1.00  0.00    -0.226 C  
HETATM   19  C   UNL     1      -7.385  18.737  68.730  1.00  0.00    -0.342 C  
HETATM   20  N   UNL     1      -8.416  19.855  66.790  1.00  0.00    -0.315 NA 
HETATM   21  C   UNL     1      -6.504  17.570  69.190  1.00  0.00    -0.240 C  
HETATM   22  H1  UNL     1      -7.835  20.674  66.974  1.00  0.00     0.000 HD 
HETATM   23  H2  UNL     1      -9.334  19.909  67.231  1.00  0.00     0.000 HD 
HETATM   24  C   UNL     1      -5.170  17.552  68.453  1.00  0.00    -0.143 C  
HETATM   25  C   UNL     1      -5.334  17.591  66.936  1.00  0.00    -0.183 C  
HETATM   26  C   UNL     1      -6.282  18.701  66.479  1.00  0.00    -0.195 C  
ENDBRANCH  16  18
ENDBRANCH  13  14
TORSDOF 2
ENDMDL
MODEL      175
REMARK 921   NORMALIZED FREE ENERGY PREDICTED BY IDOCK:   -0.93 KCAL/MOL
REMARK 922        TOTAL FREE ENERGY PREDICTED BY IDOCK:   -1.34 KCAL/MOL
REMARK 923 INTER-LIGAND FREE ENERGY PREDICTED BY IDOCK:   -2.75 KCAL/MOL
REMARK 924 INTRA-LIGAND FREE ENERGY PREDICTED BY IDOCK:    1.41 KCAL/MOL
REMARK 927      BINDING AFFINITY PREDICTED BY RF-SCORE:    0.00 PKD
ROOT
HETATM    1  C   UNL     1     -10.510   7.560  68.798  1.00  0.00    -0.194 C  
HETATM    2  S   UNL     1     -10.772   6.199  70.006  1.00  0.00    -0.338 SA 
HETATM    3  C   UNL     1      -9.203   6.508  70.933  1.00  0.00    -0.154 C  
HETATM    4  C   UNL     1      -9.421   6.182  72.414  1.00  0.00    -0.153 C  
HETATM    5  C   UNL     1      -8.152   5.510  70.404  1.00  0.00    -0.103 C  
HETATM    6  CA  UNL     1      -8.821   7.974  70.611  1.00  0.00    -0.143 C  
HETATM    7  N   UNL     1      -9.275   8.252  69.237  1.00  0.00    -0.151 N  
HETATM    8  C   UNL     1      -9.433   9.045  71.532  1.00  0.00    -0.246 C  
HETATM    9  C   UNL     1      -8.537   7.802  68.173  1.00  0.00    -0.123 C  
HETATM   10  O   UNL     1     -10.010  10.078  70.859  1.00  0.00     0.002 OA 
HETATM   11  OXT UNL     1      -9.348   9.046  72.752  1.00  0.00    -0.098 OA 
HETATM   12  O   UNL     1      -7.340   7.755  68.018  1.00  0.00    -0.096 OA 
HETATM   13  CA  UNL     1      -9.779   7.212  67.477  1.00  0.00    -0.142 C  
ENDROOT
BRANCH  13  14
HETATM   14  N   UNL     1      -9.729   5.771  67.110  1.00  0.00    -0.128 N  
HETATM   15  H   UNL     1     -10.576   5.203  67.135  1.00  0.00     0.000 HD 
HETATM   16  C   UNL     1      -8.531   5.213  66.736  1.00  0.00    -0.106 C  
HETATM   17  O   UNL     1      -7.515   5.913  66.685  1.00  0.00    -0.084 OA 
BRANCH  16  18
HETATM   18  C   UNL     1      -8.542   3.723  66.263  1.00  0.00    -0.113 C  
HETATM   19  C   UNL     1      -7.174   3.103  66.613  1.00  0.00    -0.062 C  
HETATM   20  N   UNL     1      -8.708   3.733  64.790  1.00  0.00    -0.112 NA 
HETATM   21  C   UNL     1      -7.001   2.989  68.132  1.00  0.00    -0.049 C  
HETATM   22  H1  UNL     1      -8.716   2.761  64.482  1.00  0.00     0.000 HD 
HETATM   23  H2  UNL     1      -8.007   4.298  64.312  1.00  0.00     0.000 HD 
HETATM   24  C   UNL     1      -8.113   2.158  68.761  1.00  0.00    -0.066 C  
HETATM   25  C   UNL     1      -9.506   2.644  68.371  1.00  0.00    -0.212 C  
HETATM   26  C   UNL     1      -9.655   2.841  66.861  1.00  0.00     0.119 C  
ENDBRANCH  16  18
ENDBRANCH  13  14
TORSDOF 2
ENDMDL
MODEL      176
REMARK 921   NORMALIZED FREE ENERGY PREDICTED BY IDOCK:   -0.29 KCAL/MOL
REMARK 922        TOTAL FREE ENERGY PREDICTED BY IDOCK:   -0.63 KCAL/MOL
REMARK 923 INTER-LIGAND FREE ENERGY PREDICTED BY IDOCK:   -0.42 KCAL/MOL
REMARK 924 INTRA-LIGAND FREE ENERGY PREDICTED BY IDOCK:   -0.21 KCAL/MOL
REMARK 927      BINDING AFFINITY PREDICTED BY RF-SCORE:    0.00 PKD
ROOT
HETATM    1  C   UNL     1      -6.166   9.428  68.818  1.00  0.00    -0.044 C  
HETATM    2  S   UNL     1      -5.174  10.631  67.841  1.00  0.00    -0.036 SA 
HETATM    3  C   UNL     1      -6.130  12.111  68.399  1.00  0.00    -0.051 C  
HETATM    4  C   UNL     1      -5.186  13.313  68.493  1.00  0.00    -0.076 C  
HETATM    5  C   UNL     1      -7.160  12.435  67.296  1.00  0.00    -0.128 C  
HETATM    6  CA  UNL     1      -6.814  11.681  69.720  1.00  0.00     0.053 C  
HETATM    7  N   UNL     1      -7.119  10.243  69.607  1.00  0.00    -0.108 N  
HETATM    8  C   UNL     1      -5.987  11.885  71.002  1.00  0.00     0.402 C  
HETATM    9  C   UNL     1      -8.208   9.834  68.882  1.00  0.00    -0.117 C  
HETATM   10  O   UNL     1      -5.950  10.788  71.808  1.00  0.00    -0.142 OA 
HETATM   11  OXT UNL     1      -5.475  12.943  71.340  1.00  0.00    -0.311 OA 
HETATM   12  O   UNL     1      -9.314  10.314  68.798  1.00  0.00    -0.150 OA 
HETATM   13  CA  UNL     1      -7.386   8.777  68.120  1.00  0.00    -0.087 C  
ENDROOT
BRANCH  13  14
HETATM   14  N   UNL     1      -7.411   8.842  66.634  1.00  0.00    -0.085 N  
HETATM   15  H   UNL     1      -6.868   9.551  66.140  1.00  0.00     0.000 HD 
HETATM   16  C   UNL     1      -8.171   7.939  65.933  1.00  0.00    -0.126 C  
HETATM   17  O   UNL     1      -8.807   7.069  66.537  1.00  0.00    -0.130 OA 
BRANCH  16  18
HETATM   18  C   UNL     1      -8.090   7.981  64.372  1.00  0.00    -0.123 C  
HETATM   19  C   UNL     1      -9.410   8.579  63.843  1.00  0.00     1.384 C  
HETATM   20  N   UNL     1      -7.970   6.579  63.903  1.00  0.00    -0.202 NA 
HETATM   21  C   UNL     1      -9.529  10.058  64.229  1.00  0.00    -0.336 C  
HETATM   22  H1  UNL     1      -7.917   6.607  62.885  1.00  0.00     0.000 HD 
HETATM   23  H2  UNL     1      -8.717   5.977  64.248  1.00  0.00     0.000 HD 
HETATM   24  C   UNL     1      -8.352  10.871  63.701  1.00  0.00     0.131 C  
HETATM   25  C   UNL     1      -7.002  10.276  64.091  1.00  0.00    -0.049 C  
HETATM   26  C   UNL     1      -6.911   8.780  63.786  1.00  0.00    -0.088 C  
ENDBRANCH  16  18
ENDBRANCH  13  14
TORSDOF 2
ENDMDL
MODEL      177
REMARK 921   NORMALIZED FREE ENERGY PREDICTED BY IDOCK:    6.73 KCAL/MOL
REMARK 922        TOTAL FREE ENERGY PREDICTED BY IDOCK:    7.21 KCAL/MOL
REMARK 923 INTER-LIGAND FREE ENERGY PREDICTED BY IDOCK:    5.50 KCAL/MOL
REMARK 924 INTRA-LIGAND FREE ENERGY PREDICTED BY IDOCK:    1.71 KCAL/MOL
REMARK 927      BINDING AFFINITY PREDICTED BY RF-SCORE:    0.00 PKD
ROOT
HETATM    1  C   UNL     1      -7.658  17.908  67.358  1.00  0.00    -0.206 C  
HETATM    2  S   UNL     1      -8.713  17.332  65.965  1.00  0.00     0.011 SA 
HETATM    3  C   UNL     1      -9.815  18.815  65.980  1.00  0.00    -0.198 C  
HETATM    4  C   UNL     1     -10.265  19.123  64.548  1.00  0.00     4.464 C  
HETATM    5  C   UNL     1     -11.082  18.439  66.776  1.00  0.00     0.280 C  
HETATM    6  CA  UNL     1      -8.997  19.925  66.686  1.00  0.00    -0.372 C  
HETATM    7  N   UNL     1      -8.146  19.266  67.693  1.00  0.00    -0.272 N  
HETATM    8  C   UNL     1      -8.082  20.766  65.778  1.00  0.00     0.653 C  
HETATM    9  C   UNL     1      -8.689  18.873  68.889  1.00  0.00    -0.227 C  
HETATM   10  O   UNL     1      -6.811  20.890  66.248  1.00  0.00    -0.221 OA 
HETATM   11  OXT UNL     1      -8.450  21.355  64.771  1.00  0.00     2.239 OA 
HETATM   12  O   UNL     1      -9.503  19.421  69.594  1.00  0.00    -0.045 OA 
HETATM   13  CA  UNL     1      -8.061  17.469  68.788  1.00  0.00    -0.232 C  
ENDROOT
BRANCH  13  14
HETATM   14  N   UNL     1      -8.983  16.306  68.887  1.00  0.00    -0.238 N  
HETATM   15  H   UNL     1      -8.867  15.503  68.268  1.00  0.00     0.000 HD 
HETATM   16  C   UNL     1      -9.991  16.325  69.819  1.00  0.00    -0.052 C  
HETATM   17  O   UNL     1     -10.110  17.291  70.579  1.00  0.00     1.165 OA 
BRANCH  16  18
HETATM   18  C   UNL     1     -10.874  15.042  69.956  1.00  0.00    -0.219 C  
HETATM   19  C   UNL     1     -12.141  15.242  69.098  1.00  0.00    -0.266 C  
HETATM   20  N   UNL     1     -11.266  14.932  71.382  1.00  0.00    -0.566 NA 
HETATM   21  C   UNL     1     -11.788  15.269  67.607  1.00  0.00    -0.076 C  
HETATM   22  H1  UNL     1     -11.842  14.094  71.471  1.00  0.00     0.000 HD 
HETATM   23  H2  UNL     1     -11.724  15.771  71.737  1.00  0.00     0.000 HD 
HETATM   24  C   UNL     1     -11.077  13.990  67.176  1.00  0.00    -0.313 C  
HETATM   25  C   UNL     1      -9.871  13.663  68.052  1.00  0.00    -0.244 C  
HETATM   26  C   UNL     1     -10.199  13.720  69.545  1.00  0.00     0.432 C  
ENDBRANCH  16  18
ENDBRANCH  13  14
TORSDOF 2
ENDMDL
MODEL      178
REMARK 921   NORMALIZED FREE ENERGY PREDICTED BY IDOCK:    7.48 KCAL/MOL
REMARK 922        TOTAL FREE ENERGY PREDICTED BY IDOCK:    8.05 KCAL/MOL
REMARK 923 INTER-LIGAND FREE ENERGY PREDICTED BY IDOCK:    3.74 KCAL/MOL
REMARK 924 INTRA-LIGAND FREE ENERGY PREDICTED BY IDOCK:    4.32 KCAL/MOL
REMARK 927      BINDING AFFINITY PREDICTED BY RF-SCORE:    0.00 PKD
ROOT
HETATM    1  C   UNL     1      -7.758  16.181  70.472  1.00  0.00     2.156 C  
HETATM    2  S   UNL     1      -6.262  16.275  69.406  1.00  0.00    -0.187 SA 
HETATM    3  C   UNL     1      -7.205  16.338  67.818  1.00  0.00    -0.134 C  
HETATM    4  C   UNL     1      -6.443  17.209  66.815  1.00  0.00    -0.254 C  
HETATM    5  C   UNL     1      -7.229  14.907  67.240  1.00  0.00    -0.142 C  
HETATM    6  CA  UNL     1      -8.622  16.830  68.203  1.00  0.00    -0.218 C  
HETATM    7  N   UNL     1      -8.913  16.309  69.552  1.00  0.00    -0.054 N  
HETATM    8  C   UNL     1      -8.817  18.356  68.238  1.00  0.00    -0.305 C  
HETATM    9  C   UNL     1      -9.298  15.003  69.708  1.00  0.00     0.080 C  
HETATM   10  O   UNL     1      -9.418  18.804  69.374  1.00  0.00    -0.047 OA 
HETATM   11  OXT UNL     1      -8.553  19.113  67.315  1.00  0.00    -0.276 OA 
HETATM   12  O   UNL     1     -10.029  14.319  69.032  1.00  0.00    -0.196 OA 
HETATM   13  CA  UNL     1      -8.282  14.771  70.844  1.00  0.00     2.518 C  
ENDROOT
BRANCH  13  14
HETATM   14  N   UNL     1      -7.324  13.645  70.677  1.00  0.00     1.176 N  
HETATM   15  H   UNL     1      -6.677  13.404  71.427  1.00  0.00     0.000 HD 
HETATM   16  C   UNL     1      -7.322  12.934  69.502  1.00  0.00     0.493 C  
HETATM   17  O   UNL     1      -8.125  13.217  68.608  1.00  0.00    -0.121 OA 
BRANCH  16  18
HETATM   18  C   UNL     1      -6.370  11.697  69.406  1.00  0.00    -0.106 C  
HETATM   19  C   UNL     1      -7.231  10.423  69.529  1.00  0.00    -0.130 C  
HETATM   20  N   UNL     1      -5.443  11.769  70.561  1.00  0.00    -0.137 NA 
HETATM   21  C   UNL     1      -8.141  10.262  68.306  1.00  0.00    -0.107 C  
HETATM   22  H1  UNL     1      -4.822  10.963  70.499  1.00  0.00     0.000 HD 
HETATM   23  H2  UNL     1      -5.925  11.834  71.458  1.00  0.00     0.000 HD 
HETATM   24  C   UNL     1      -7.335  10.211  67.012  1.00  0.00    -0.091 C  
HETATM   25  C   UNL     1      -6.373  11.387  66.869  1.00  0.00    -0.137 C  
HETATM   26  C   UNL     1      -5.524  11.603  68.123  1.00  0.00    -0.043 C  
ENDBRANCH  16  18
ENDBRANCH  13  14
TORSDOF 2
ENDMDL
MODEL      179
REMARK 921   NORMALIZED FREE ENERGY PREDICTED BY IDOCK:   11.18 KCAL/MOL
REMARK 922        TOTAL FREE ENERGY PREDICTED BY IDOCK:   12.19 KCAL/MOL
REMARK 923 INTER-LIGAND FREE ENERGY PREDICTED BY IDOCK:   12.37 KCAL/MOL
REMARK 924 INTRA-LIGAND FREE ENERGY PREDICTED BY IDOCK:   -0.18 KCAL/MOL
REMARK 927      BINDING AFFINITY PREDICTED BY RF-SCORE:    0.00 PKD
ROOT
HETATM    1  C   UNL     1      -7.414  15.977  69.788  1.00  0.00     0.145 C  
HETATM    2  S   UNL     1      -7.440  16.578  68.049  1.00  0.00    -0.160 SA 
HETATM    3  C   UNL     1      -8.877  17.714  68.299  1.00  0.00    -0.276 C  
HETATM    4  C   UNL     1      -8.706  18.946  67.404  1.00  0.00    -0.293 C  
HETATM    5  C   UNL     1     -10.139  16.974  67.806  1.00  0.00    -0.302 C  
HETATM    6  CA  UNL     1      -8.923  17.985  69.823  1.00  0.00     1.248 C  
HETATM    7  N   UNL     1      -8.449  16.763  70.498  1.00  0.00     3.089 N  
HETATM    8  C   UNL     1      -8.065  19.160  70.323  1.00  0.00     1.599 C  
HETATM    9  C   UNL     1      -9.293  15.692  70.639  1.00  0.00     1.494 C  
HETATM   10  O   UNL     1      -7.284  18.848  71.393  1.00  0.00     2.745 OA 
HETATM   11  OXT UNL     1      -8.120  20.300  69.884  1.00  0.00     0.549 OA 
HETATM   12  O   UNL     1     -10.474  15.658  70.897  1.00  0.00    -0.109 OA 
HETATM   13  CA  UNL     1      -8.233  14.704  70.115  1.00  0.00     0.865 C  
ENDROOT
BRANCH  13  14
HETATM   14  N   UNL     1      -8.617  13.849  68.959  1.00  0.00    -0.358 N  
HETATM   15  H   UNL     1      -9.381  14.128  68.344  1.00  0.00     0.000 HD 
HETATM   16  C   UNL     1      -7.931  12.682  68.730  1.00  0.00     0.068 C  
HETATM   17  O   UNL     1      -6.992  12.364  69.465  1.00  0.00     0.007 OA 
BRANCH  16  18
HETATM   18  C   UNL     1      -8.301  11.865  67.448  1.00  0.00    -0.163 C  
HETATM   19  C   UNL     1      -7.653  12.565  66.235  1.00  0.00     1.047 C  
HETATM   20  N   UNL     1      -9.776  11.917  67.308  1.00  0.00    -0.183 NA 
HETATM   21  C   UNL     1      -6.126  12.453  66.296  1.00  0.00     1.647 C  
HETATM   22  H1  UNL     1     -10.017  11.384  66.472  1.00  0.00     0.000 HD 
HETATM   23  H2  UNL     1     -10.144  12.868  67.295  1.00  0.00     0.000 HD 
HETATM   24  C   UNL     1      -5.673  10.998  66.347  1.00  0.00    -0.132 C  
HETATM   25  C   UNL     1      -6.357  10.206  67.458  1.00  0.00    -0.059 C  
HETATM   26  C   UNL     1      -7.875  10.385  67.454  1.00  0.00    -0.103 C  
ENDBRANCH  16  18
ENDBRANCH  13  14
TORSDOF 2
ENDMDL
MODEL      180
REMARK 921   NORMALIZED FREE ENERGY PREDICTED BY IDOCK:   30.53 KCAL/MOL
REMARK 922        TOTAL FREE ENERGY PREDICTED BY IDOCK:   33.80 KCAL/MOL
REMARK 923 INTER-LIGAND FREE ENERGY PREDICTED BY IDOCK:   30.74 KCAL/MOL
REMARK 924 INTRA-LIGAND FREE ENERGY PREDICTED BY IDOCK:    3.06 KCAL/MOL
REMARK 927      BINDING AFFINITY PREDICTED BY RF-SCORE:    0.00 PKD
ROOT
HETATM    1  C   UNL     1      -7.409  17.264  71.584  1.00  0.00     7.680 C  
HETATM    2  S   UNL     1      -6.192  17.743  70.290  1.00  0.00     0.416 SA 
HETATM    3  C   UNL     1      -7.465  18.326  69.085  1.00  0.00    -0.094 C  
HETATM    4  C   UNL     1      -6.899  19.501  68.282  1.00  0.00    -0.320 C  
HETATM    5  C   UNL     1      -7.711  17.177  68.084  1.00  0.00    -0.204 C  
HETATM    6  CA  UNL     1      -8.724  18.630  69.935  1.00  0.00     1.335 C  
HETATM    7  N   UNL     1      -8.732  17.677  71.059  1.00  0.00     6.454 N  
HETATM    8  C   UNL     1      -8.809  20.050  70.524  1.00  0.00     1.649 C  
HETATM    9  C   UNL     1      -9.153  16.388  70.855  1.00  0.00     3.904 C  
HETATM   10  O   UNL     1      -9.106  20.072  71.852  1.00  0.00     1.944 OA 
HETATM   11  OXT UNL     1      -8.714  21.081  69.873  1.00  0.00     2.480 OA 
HETATM   12  O   UNL     1     -10.061  15.962  70.181  1.00  0.00    -0.220 OA 
HETATM   13  CA  UNL     1      -7.923  15.802  71.574  1.00  0.00     5.348 C  
ENDROOT
BRANCH  13  14
HETATM   14  N   UNL     1      -7.102  14.818  70.818  1.00  0.00     0.035 N  
HETATM   15  H   UNL     1      -6.175  14.555  71.154  1.00  0.00     0.000 HD 
HETATM   16  C   UNL     1      -7.605  14.268  69.665  1.00  0.00     0.241 C  
HETATM   17  O   UNL     1      -8.736  14.574  69.279  1.00  0.00    -0.038 OA 
BRANCH  16  18
HETATM   18  C   UNL     1      -6.751  13.166  68.957  1.00  0.00    -0.103 C  
HETATM   19  C   UNL     1      -7.511  11.828  69.073  1.00  0.00    -0.030 C  
HETATM   20  N   UNL     1      -5.470  13.062  69.697  1.00  0.00    -0.083 NA 
HETATM   21  C   UNL     1      -8.800  11.862  68.244  1.00  0.00    -0.174 C  
HETATM   22  H1  UNL     1      -4.914  12.343  69.235  1.00  0.00     0.000 HD 
HETATM   23  H2  UNL     1      -5.597  12.890  70.694  1.00  0.00     0.000 HD 
HETATM   24  C   UNL     1      -8.514  12.160  66.776  1.00  0.00    -0.138 C  
HETATM   25  C   UNL     1      -7.667  13.415  66.584  1.00  0.00     0.785 C  
HETATM   26  C   UNL     1      -6.424  13.424  67.474  1.00  0.00    -0.129 C  
ENDBRANCH  16  18
ENDBRANCH  13  14
TORSDOF 2
ENDMDL
MODEL      181
REMARK 921   NORMALIZED FREE ENERGY PREDICTED BY IDOCK:   32.84 KCAL/MOL
REMARK 922        TOTAL FREE ENERGY PREDICTED BY IDOCK:   36.38 KCAL/MOL
REMARK 923 INTER-LIGAND FREE ENERGY PREDICTED BY IDOCK:   36.18 KCAL/MOL
REMARK 924 INTRA-LIGAND FREE ENERGY PREDICTED BY IDOCK:    0.20 KCAL/MOL
REMARK 927      BINDING AFFINITY PREDICTED BY RF-SCORE:    0.00 PKD
ROOT
HETATM    1  C   UNL     1      -6.777  17.529  68.214  1.00  0.00    -0.197 C  
HETATM    2  S   UNL     1      -7.108  16.088  67.119  1.00  0.00    -0.197 SA 
HETATM    3  C   UNL     1      -8.605  16.830  66.331  1.00  0.00    -0.303 C  
HETATM    4  C   UNL     1      -8.690  16.368  64.873  1.00  0.00     3.767 C  
HETATM    5  C   UNL     1      -9.840  16.254  67.056  1.00  0.00    -0.247 C  
HETATM    6  CA  UNL     1      -8.467  18.357  66.550  1.00  0.00    -0.270 C  
HETATM    7  N   UNL     1      -7.780  18.553  67.839  1.00  0.00    -0.247 N  
HETATM    8  C   UNL     1      -7.674  19.122  65.475  1.00  0.00     0.257 C  
HETATM    9  C   UNL     1      -8.480  18.425  69.010  1.00  0.00    -0.042 C  
HETATM   10  O   UNL     1      -6.724  19.951  65.985  1.00  0.00    -0.216 OA 
HETATM   11  OXT UNL     1      -7.908  19.080  64.276  1.00  0.00     3.094 OA 
HETATM   12  O   UNL     1      -9.603  18.774  69.290  1.00  0.00    -0.189 OA 
HETATM   13  CA  UNL     1      -7.406  17.509  69.629  1.00  0.00     0.432 C  
ENDROOT
BRANCH  13  14
HETATM   14  N   UNL     1      -7.856  16.183  70.133  1.00  0.00     0.881 N  
HETATM   15  H   UNL     1      -8.481  15.603  69.572  1.00  0.00     0.000 HD 
HETATM   16  C   UNL     1      -7.422  15.749  71.362  1.00  0.00     3.943 C  
HETATM   17  O   UNL     1      -6.648  16.446  72.024  1.00  0.00     3.359 OA 
BRANCH  16  18
HETATM   18  C   UNL     1      -7.839  14.309  71.809  1.00  0.00     5.313 C  
HETATM   19  C   UNL     1      -9.118  13.923  71.038  1.00  0.00     6.102 C  
HETATM   20  N   UNL     1      -8.145  14.374  73.258  1.00  0.00     5.912 NA 
HETATM   21  C   UNL     1      -8.822  13.756  69.544  1.00  0.00     1.032 C  
HETATM   22  H1  UNL     1      -8.417  13.435  73.550  1.00  0.00     0.000 HD 
HETATM   23  H2  UNL     1      -8.843  15.081  73.488  1.00  0.00     0.000 HD 
HETATM   24  C   UNL     1      -7.744  12.706  69.301  1.00  0.00     0.454 C  
HETATM   25  C   UNL     1      -6.480  12.958  70.117  1.00  0.00     0.170 C  
HETATM   26  C   UNL     1      -6.780  13.212  71.595  1.00  0.00     3.374 C  
ENDBRANCH  16  18
ENDBRANCH  13  14
TORSDOF 2
ENDMDL
MODEL      182
REMARK 921   NORMALIZED FREE ENERGY PREDICTED BY IDOCK:   35.98 KCAL/MOL
REMARK 922        TOTAL FREE ENERGY PREDICTED BY IDOCK:   39.88 KCAL/MOL
REMARK 923 INTER-LIGAND FREE ENERGY PREDICTED BY IDOCK:   39.67 KCAL/MOL
REMARK 924 INTRA-LIGAND FREE ENERGY PREDICTED BY IDOCK:    0.22 KCAL/MOL
REMARK 927      BINDING AFFINITY PREDICTED BY RF-SCORE:    0.00 PKD
ROOT
HETATM    1  C   UNL     1      -9.359   5.095  69.234  1.00  0.00    -0.123 C  
HETATM    2  S   UNL     1      -9.418   3.703  70.435  1.00  0.00    -0.183 SA 
HETATM    3  C   UNL     1     -11.006   3.010  69.793  1.00  0.00     5.034 C  
HETATM    4  C   UNL     1     -10.983   1.485  69.934  1.00  0.00     3.070 C  
HETATM    5  C   UNL     1     -12.137   3.527  70.707  1.00  0.00    10.958 C  
HETATM    6  CA  UNL     1     -11.135   3.554  68.349  1.00  0.00     5.995 C  
HETATM    7  N   UNL     1     -10.515   4.892  68.330  1.00  0.00     0.043 N  
HETATM    8  C   UNL     1     -10.465   2.711  67.250  1.00  0.00     3.185 C  
HETATM    9  C   UNL     1     -11.205   5.969  68.823  1.00  0.00    -0.132 C  
HETATM   10  O   UNL     1      -9.680   3.436  66.408  1.00  0.00    -0.109 OA 
HETATM   11  OXT UNL     1     -10.667   1.519  67.067  1.00  0.00     2.940 OA 
HETATM   12  O   UNL     1     -12.375   6.254  68.731  1.00  0.00     1.942 OA 
HETATM   13  CA  UNL     1     -10.001   6.437  69.664  1.00  0.00    -0.164 C  
ENDROOT
BRANCH  13  14
HETATM   14  N   UNL     1     -10.227   6.624  71.123  1.00  0.00    -0.193 N  
HETATM   15  H   UNL     1     -11.174   6.624  71.502  1.00  0.00     0.000 HD 
HETATM   16  C   UNL     1      -9.147   6.797  71.953  1.00  0.00    -0.142 C  
HETATM   17  O   UNL     1      -8.003   6.773  71.490  1.00  0.00    -0.101 OA 
BRANCH  16  18
HETATM   18  C   UNL     1      -9.423   6.890  73.490  1.00  0.00    -0.178 C  
HETATM   19  C   UNL     1      -8.063   6.893  74.218  1.00  0.00    -0.144 C  
HETATM   20  N   UNL     1     -10.177   5.672  73.873  1.00  0.00    -0.223 NA 
HETATM   21  C   UNL     1      -7.290   8.182  73.920  1.00  0.00    -0.207 C  
HETATM   22  H1  UNL     1     -10.357   5.733  74.875  1.00  0.00     0.000 HD 
HETATM   23  H2  UNL     1      -9.705   4.809  73.603  1.00  0.00     0.000 HD 
HETATM   24  C   UNL     1      -8.087   9.418  74.324  1.00  0.00     1.950 C  
HETATM   25  C   UNL     1      -9.492   9.434  73.729  1.00  0.00     5.117 C  
HETATM   26  C   UNL     1     -10.235   8.116  73.949  1.00  0.00     1.333 C  
ENDBRANCH  16  18
ENDBRANCH  13  14
TORSDOF 2
ENDMDL
MODEL      183
REMARK 921   NORMALIZED FREE ENERGY PREDICTED BY IDOCK:   40.26 KCAL/MOL
REMARK 922        TOTAL FREE ENERGY PREDICTED BY IDOCK:   44.67 KCAL/MOL
REMARK 923 INTER-LIGAND FREE ENERGY PREDICTED BY IDOCK:   44.05 KCAL/MOL
REMARK 924 INTRA-LIGAND FREE ENERGY PREDICTED BY IDOCK:    0.62 KCAL/MOL
REMARK 927      BINDING AFFINITY PREDICTED BY RF-SCORE:    0.00 PKD
ROOT
HETATM    1  C   UNL     1      -9.359   5.095  69.234  1.00  0.00    -0.123 C  
HETATM    2  S   UNL     1      -9.415   3.721  70.455  1.00  0.00    -0.190 SA 
HETATM    3  C   UNL     1     -11.010   3.024  69.834  1.00  0.00     4.893 C  
HETATM    4  C   UNL     1     -10.992   1.502  69.996  1.00  0.00     2.965 C  
HETATM    5  C   UNL     1     -12.132   3.559  70.748  1.00  0.00    10.958 C  
HETATM    6  CA  UNL     1     -11.147   3.549  68.383  1.00  0.00     5.995 C  
HETATM    7  N   UNL     1     -10.522   4.884  68.341  1.00  0.00     0.041 N  
HETATM    8  C   UNL     1     -10.488   2.688  67.291  1.00  0.00     3.185 C  
HETATM    9  C   UNL     1     -11.204   5.970  68.823  1.00  0.00    -0.132 C  
HETATM   10  O   UNL     1      -9.706   3.398  66.434  1.00  0.00    -0.109 OA 
HETATM   11  OXT UNL     1     -10.695   1.494  67.126  1.00  0.00     2.892 OA 
HETATM   12  O   UNL     1     -12.374   6.259  68.736  1.00  0.00     1.942 OA 
HETATM   13  CA  UNL     1      -9.993   6.446  69.650  1.00  0.00    -0.164 C  
ENDROOT
BRANCH  13  14
HETATM   14  N   UNL     1     -10.208   6.654  71.107  1.00  0.00    -0.193 N  
HETATM   15  H   UNL     1      -9.618   6.176  71.788  1.00  0.00     0.000 HD 
HETATM   16  C   UNL     1     -11.209   7.496  71.526  1.00  0.00    -0.243 C  
HETATM   17  O   UNL     1     -11.904   8.088  70.695  1.00  0.00    -0.223 OA 
BRANCH  16  18
HETATM   18  C   UNL     1     -11.335   7.763  73.061  1.00  0.00    -0.273 C  
HETATM   19  C   UNL     1     -12.392   8.868  73.266  1.00  0.00     1.522 C  
HETATM   20  N   UNL     1     -10.018   8.258  73.528  1.00  0.00     0.097 NA 
HETATM   21  C   UNL     1     -13.787   8.364  72.881  1.00  0.00     0.129 C  
HETATM   22  H1  UNL     1     -10.100   8.432  74.530  1.00  0.00     0.000 HD 
HETATM   23  H2  UNL     1      -9.688   9.070  73.007  1.00  0.00     0.000 HD 
HETATM   24  C   UNL     1     -14.178   7.129  73.685  1.00  0.00     4.145 C  
HETATM   25  C   UNL     1     -13.125   6.026  73.622  1.00  0.00     4.818 C  
HETATM   26  C   UNL     1     -11.718   6.544  73.921  1.00  0.00     2.115 C  
ENDBRANCH  16  18
ENDBRANCH  13  14
TORSDOF 2
ENDMDL
MODEL      184
REMARK 921   NORMALIZED FREE ENERGY PREDICTED BY IDOCK:   42.15 KCAL/MOL
REMARK 922        TOTAL FREE ENERGY PREDICTED BY IDOCK:   46.78 KCAL/MOL
REMARK 923 INTER-LIGAND FREE ENERGY PREDICTED BY IDOCK:   46.66 KCAL/MOL
REMARK 924 INTRA-LIGAND FREE ENERGY PREDICTED BY IDOCK:    0.11 KCAL/MOL
REMARK 927      BINDING AFFINITY PREDICTED BY RF-SCORE:    0.00 PKD
ROOT
HETATM    1  C   UNL     1      -7.409  17.264  71.584  1.00  0.00     7.680 C  
HETATM    2  S   UNL     1      -6.192  17.743  70.290  1.00  0.00     0.416 SA 
HETATM    3  C   UNL     1      -7.465  18.326  69.085  1.00  0.00    -0.094 C  
HETATM    4  C   UNL     1      -6.899  19.501  68.282  1.00  0.00    -0.320 C  
HETATM    5  C   UNL     1      -7.711  17.177  68.084  1.00  0.00    -0.204 C  
HETATM    6  CA  UNL     1      -8.724  18.630  69.935  1.00  0.00     1.335 C  
HETATM    7  N   UNL     1      -8.732  17.677  71.059  1.00  0.00     6.454 N  
HETATM    8  C   UNL     1      -8.809  20.050  70.524  1.00  0.00     1.649 C  
HETATM    9  C   UNL     1      -9.153  16.388  70.855  1.00  0.00     3.904 C  
HETATM   10  O   UNL     1      -9.106  20.072  71.852  1.00  0.00     1.944 OA 
HETATM   11  OXT UNL     1      -8.714  21.081  69.873  1.00  0.00     2.480 OA 
HETATM   12  O   UNL     1     -10.061  15.962  70.181  1.00  0.00    -0.220 OA 
HETATM   13  CA  UNL     1      -7.923  15.802  71.574  1.00  0.00     5.348 C  
ENDROOT
BRANCH  13  14
HETATM   14  N   UNL     1      -7.102  14.818  70.818  1.00  0.00     0.035 N  
HETATM   15  H   UNL     1      -6.346  15.136  70.211  1.00  0.00     0.000 HD 
HETATM   16  C   UNL     1      -7.372  13.478  70.946  1.00  0.00     3.142 C  
HETATM   17  O   UNL     1      -8.273  13.100  71.701  1.00  0.00     9.461 OA 
BRANCH  16  18
HETATM   18  C   UNL     1      -6.422  12.475  70.213  1.00  0.00     0.313 C  
HETATM   19  C   UNL     1      -5.643  11.687  71.286  1.00  0.00     0.132 C  
HETATM   20  N   UNL     1      -5.468  13.281  69.415  1.00  0.00    -0.077 NA 
HETATM   21  C   UNL     1      -6.583  10.769  72.075  1.00  0.00     2.765 C  
HETATM   22  H1  UNL     1      -4.849  12.627  68.936  1.00  0.00     0.000 HD 
HETATM   23  H2  UNL     1      -4.965  13.973  69.971  1.00  0.00     0.000 HD 
HETATM   24  C   UNL     1      -7.315   9.795  71.158  1.00  0.00     0.376 C  
HETATM   25  C   UNL     1      -8.023  10.494  70.001  1.00  0.00     0.226 C  
HETATM   26  C   UNL     1      -7.111  11.476  69.265  1.00  0.00    -0.077 C  
ENDBRANCH  16  18
ENDBRANCH  13  14
TORSDOF 2
ENDMDL
