MODEL        1
REMARK 921   NORMALIZED FREE ENERGY PREDICTED BY IDOCK:   -6.70 KCAL/MOL
REMARK 922        TOTAL FREE ENERGY PREDICTED BY IDOCK:   -8.71 KCAL/MOL
REMARK 923 INTER-LIGAND FREE ENERGY PREDICTED BY IDOCK:   -8.26 KCAL/MOL
REMARK 924 INTRA-LIGAND FREE ENERGY PREDICTED BY IDOCK:   -0.45 KCAL/MOL
REMARK 927      BINDING AFFINITY PREDICTED BY RF-SCORE:    0.00 PKD
ROOT
HETATM    1  C   UNL     1     -12.252  14.705  64.563  1.00  0.00    -0.456 C  
HETATM    2  N   UNL     1     -12.695  13.453  65.179  1.00  0.00    -0.675 NA 
HETATM    3  C   UNL     1     -12.146  12.315  64.441  1.00  0.00    -0.399 C  
ENDROOT
BRANCH   2   4
HETATM    4  C   UNL     1     -12.329  13.428  66.613  1.00  0.00    -0.266 C  
BRANCH   4   5
HETATM    5  C   UNL     1     -11.453  12.223  66.997  1.00  0.00    -0.419 C  
BRANCH   5   6
HETATM    6  C   UNL     1     -12.004  11.420  68.155  1.00  0.00    -0.201 C  
BRANCH   6   7
HETATM    7  C   UNL     1     -11.612  11.499  69.445  1.00  0.00    -0.388 A  
HETATM    8  C   UNL     1     -10.671  10.489  69.987  1.00  0.00    -0.282 A  
HETATM    9  C   UNL     1      -9.346  10.450  69.531  1.00  0.00    -0.150 A  
HETATM   10  C   UNL     1      -8.422   9.587  70.120  1.00  0.00    -0.227 A  
HETATM   11  C   UNL     1      -8.818   8.746  71.156  1.00  0.00    -0.275 A  
HETATM   12  C   UNL     1     -10.141   8.761  71.603  1.00  0.00    -0.390 A  
HETATM   13  C   UNL     1     -11.076   9.644  71.042  1.00  0.00    -0.438 A  
HETATM   14  C   UNL     1     -12.456   9.608  71.565  1.00  0.00    -0.476 A  
HETATM   15  C   UNL     1     -13.278  10.656  71.748  1.00  0.00    -0.526 A  
HETATM   16  C   UNL     1     -12.977  12.072  71.467  1.00  0.00    -0.407 A  
HETATM   17  C   UNL     1     -13.522  13.047  72.315  1.00  0.00    -0.645 A  
HETATM   18  C   UNL     1     -13.274  14.406  72.096  1.00  0.00    -0.472 A  
HETATM   19  C   UNL     1     -12.479  14.810  71.028  1.00  0.00    -0.400 A  
HETATM   20  C   UNL     1     -11.941  13.855  70.168  1.00  0.00    -0.402 A  
HETATM   21  C   UNL     1     -12.206  12.491  70.366  1.00  0.00    -0.368 A  
ENDBRANCH   6   7
ENDBRANCH   5   6
ENDBRANCH   4   5
ENDBRANCH   2   4
TORSDOF 4
ENDMDL
MODEL        2
REMARK 921   NORMALIZED FREE ENERGY PREDICTED BY IDOCK:   -6.61 KCAL/MOL
REMARK 922        TOTAL FREE ENERGY PREDICTED BY IDOCK:   -8.60 KCAL/MOL
REMARK 923 INTER-LIGAND FREE ENERGY PREDICTED BY IDOCK:   -8.13 KCAL/MOL
REMARK 924 INTRA-LIGAND FREE ENERGY PREDICTED BY IDOCK:   -0.48 KCAL/MOL
REMARK 927      BINDING AFFINITY PREDICTED BY RF-SCORE:    0.00 PKD
ROOT
HETATM    1  C   UNL     1     -10.260  19.934  68.039  1.00  0.00    -0.436 C  
HETATM    2  N   UNL     1     -10.605  18.659  67.406  1.00  0.00    -0.434 NA 
HETATM    3  C   UNL     1     -10.532  18.792  65.950  1.00  0.00    -0.376 C  
ENDROOT
BRANCH   2   4
HETATM    4  C   UNL     1      -9.736  17.578  67.921  1.00  0.00    -0.278 C  
BRANCH   4   5
HETATM    5  C   UNL     1     -10.167  17.056  69.302  1.00  0.00    -0.246 C  
BRANCH   5   6
HETATM    6  C   UNL     1     -10.252  15.547  69.379  1.00  0.00    -0.262 C  
BRANCH   6   7
HETATM    7  C   UNL     1     -11.359  14.796  69.196  1.00  0.00    -0.302 A  
HETATM    8  C   UNL     1     -12.265  14.537  70.341  1.00  0.00    -0.394 A  
HETATM    9  C   UNL     1     -13.006  15.588  70.900  1.00  0.00    -0.526 A  
HETATM   10  C   UNL     1     -13.950  15.336  71.895  1.00  0.00    -0.644 A  
HETATM   11  C   UNL     1     -14.150  14.037  72.350  1.00  0.00    -0.576 A  
HETATM   12  C   UNL     1     -13.402  12.985  71.816  1.00  0.00    -0.468 A  
HETATM   13  C   UNL     1     -12.469  13.216  70.794  1.00  0.00    -0.389 A  
HETATM   14  C   UNL     1     -11.716  12.058  70.274  1.00  0.00    -0.267 A  
HETATM   15  C   UNL     1     -11.352  11.837  69.000  1.00  0.00    -0.338 A  
HETATM   16  C   UNL     1     -11.631  12.705  67.840  1.00  0.00    -0.401 A  
HETATM   17  C   UNL     1     -11.879  12.099  66.601  1.00  0.00    -0.314 A  
HETATM   18  C   UNL     1     -12.146  12.871  65.466  1.00  0.00    -0.507 A  
HETATM   19  C   UNL     1     -12.169  14.259  65.553  1.00  0.00    -0.408 A  
HETATM   20  C   UNL     1     -11.910  14.879  66.773  1.00  0.00    -0.187 A  
HETATM   21  C   UNL     1     -11.617  14.112  67.912  1.00  0.00    -0.370 A  
ENDBRANCH   6   7
ENDBRANCH   5   6
ENDBRANCH   4   5
ENDBRANCH   2   4
TORSDOF 4
ENDMDL
MODEL        3
REMARK 921   NORMALIZED FREE ENERGY PREDICTED BY IDOCK:   -6.44 KCAL/MOL
REMARK 922        TOTAL FREE ENERGY PREDICTED BY IDOCK:   -8.40 KCAL/MOL
REMARK 923 INTER-LIGAND FREE ENERGY PREDICTED BY IDOCK:   -7.82 KCAL/MOL
REMARK 924 INTRA-LIGAND FREE ENERGY PREDICTED BY IDOCK:   -0.57 KCAL/MOL
REMARK 927      BINDING AFFINITY PREDICTED BY RF-SCORE:    0.00 PKD
ROOT
HETATM    1  C   UNL     1     -13.865  15.408  71.326  1.00  0.00    -0.434 C  
HETATM    2  N   UNL     1     -12.726  15.754  72.178  1.00  0.00    -0.429 NA 
HETATM    3  C   UNL     1     -12.731  14.915  73.378  1.00  0.00    -0.513 C  
ENDROOT
BRANCH   2   4
HETATM    4  C   UNL     1     -11.462  15.647  71.417  1.00  0.00    -0.421 C  
BRANCH   4   5
HETATM    5  C   UNL     1     -11.675  15.463  69.905  1.00  0.00    -0.357 C  
BRANCH   5   6
HETATM    6  C   UNL     1     -10.882  14.317  69.317  1.00  0.00    -0.241 C  
BRANCH   6   7
HETATM    7  C   UNL     1     -11.382  13.154  68.844  1.00  0.00    -0.335 A  
HETATM    8  C   UNL     1     -11.629  12.031  69.779  1.00  0.00    -0.348 A  
HETATM    9  C   UNL     1     -12.638  12.133  70.747  1.00  0.00    -0.305 A  
HETATM   10  C   UNL     1     -12.960  11.040  71.551  1.00  0.00    -0.553 A  
HETATM   11  C   UNL     1     -12.267   9.841  71.404  1.00  0.00    -0.486 A  
HETATM   12  C   UNL     1     -11.245   9.735  70.458  1.00  0.00    -0.381 A  
HETATM   13  C   UNL     1     -10.928  10.816  69.622  1.00  0.00    -0.320 A  
HETATM   14  C   UNL     1      -9.838  10.632  68.643  1.00  0.00    -0.183 A  
HETATM   15  C   UNL     1      -9.786  11.121  67.392  1.00  0.00    -0.191 A  
HETATM   16  C   UNL     1     -10.810  11.947  66.724  1.00  0.00    -0.307 A  
HETATM   17  C   UNL     1     -11.012  11.769  65.348  1.00  0.00    -0.352 A  
HETATM   18  C   UNL     1     -11.966  12.526  64.661  1.00  0.00    -0.468 A  
HETATM   19  C   UNL     1     -12.732  13.469  65.338  1.00  0.00    -0.495 A  
HETATM   20  C   UNL     1     -12.535  13.669  66.702  1.00  0.00    -0.291 A  
HETATM   21  C   UNL     1     -11.561  12.931  67.395  1.00  0.00    -0.414 A  
ENDBRANCH   6   7
ENDBRANCH   5   6
ENDBRANCH   4   5
ENDBRANCH   2   4
TORSDOF 4
ENDMDL
MODEL        4
REMARK 921   NORMALIZED FREE ENERGY PREDICTED BY IDOCK:   -6.44 KCAL/MOL
REMARK 922        TOTAL FREE ENERGY PREDICTED BY IDOCK:   -8.40 KCAL/MOL
REMARK 923 INTER-LIGAND FREE ENERGY PREDICTED BY IDOCK:   -7.93 KCAL/MOL
REMARK 924 INTRA-LIGAND FREE ENERGY PREDICTED BY IDOCK:   -0.46 KCAL/MOL
REMARK 927      BINDING AFFINITY PREDICTED BY RF-SCORE:    0.00 PKD
ROOT
HETATM    1  C   UNL     1     -10.420  10.900  64.555  1.00  0.00    -0.323 C  
HETATM    2  N   UNL     1     -11.107  12.151  64.885  1.00  0.00    -0.311 NA 
HETATM    3  C   UNL     1     -12.223  12.362  63.962  1.00  0.00    -0.490 C  
ENDROOT
BRANCH   2   4
HETATM    4  C   UNL     1     -11.536  12.145  66.300  1.00  0.00    -0.374 C  
BRANCH   4   5
HETATM    5  C   UNL     1     -10.863  11.043  67.137  1.00  0.00    -0.336 C  
BRANCH   5   6
HETATM    6  C   UNL     1     -11.677  10.612  68.337  1.00  0.00    -0.168 C  
BRANCH   6   7
HETATM    7  C   UNL     1     -11.388  10.859  69.633  1.00  0.00    -0.362 A  
HETATM    8  C   UNL     1     -10.483   9.941  70.367  1.00  0.00    -0.347 A  
HETATM    9  C   UNL     1      -9.126   9.871  70.022  1.00  0.00    -0.217 A  
HETATM   10  C   UNL     1      -8.243   9.105  70.782  1.00  0.00    -0.226 A  
HETATM   11  C   UNL     1      -8.710   8.392  71.883  1.00  0.00    -0.258 A  
HETATM   12  C   UNL     1     -10.064   8.438  72.222  1.00  0.00    -0.382 A  
HETATM   13  C   UNL     1     -10.961   9.226  71.486  1.00  0.00    -0.446 A  
HETATM   14  C   UNL     1     -12.377   9.230  71.903  1.00  0.00    -0.454 A  
HETATM   15  C   UNL     1     -13.221  10.276  71.890  1.00  0.00    -0.550 A  
HETATM   16  C   UNL     1     -12.911  11.652  71.458  1.00  0.00    -0.463 A  
HETATM   17  C   UNL     1     -13.529  12.715  72.133  1.00  0.00    -0.561 A  
HETATM   18  C   UNL     1     -13.277  14.040  71.765  1.00  0.00    -0.454 A  
HETATM   19  C   UNL     1     -12.405  14.323  70.719  1.00  0.00    -0.427 A  
HETATM   20  C   UNL     1     -11.793  13.280  70.028  1.00  0.00    -0.365 A  
HETATM   21  C   UNL     1     -12.060  11.945  70.375  1.00  0.00    -0.421 A  
ENDBRANCH   6   7
ENDBRANCH   5   6
ENDBRANCH   4   5
ENDBRANCH   2   4
TORSDOF 4
ENDMDL
MODEL        5
REMARK 921   NORMALIZED FREE ENERGY PREDICTED BY IDOCK:   -6.25 KCAL/MOL
REMARK 922        TOTAL FREE ENERGY PREDICTED BY IDOCK:   -8.17 KCAL/MOL
REMARK 923 INTER-LIGAND FREE ENERGY PREDICTED BY IDOCK:   -7.72 KCAL/MOL
REMARK 924 INTRA-LIGAND FREE ENERGY PREDICTED BY IDOCK:   -0.44 KCAL/MOL
REMARK 927      BINDING AFFINITY PREDICTED BY RF-SCORE:    0.00 PKD
ROOT
HETATM    1  C   UNL     1     -10.488  12.928  64.147  1.00  0.00    -0.406 C  
HETATM    2  N   UNL     1     -11.925  13.205  64.102  1.00  0.00    -0.410 NA 
HETATM    3  C   UNL     1     -12.631  12.071  63.505  1.00  0.00    -0.507 C  
ENDROOT
BRANCH   2   4
HETATM    4  C   UNL     1     -12.428  13.537  65.453  1.00  0.00    -0.497 C  
BRANCH   4   5
HETATM    5  C   UNL     1     -11.452  13.152  66.578  1.00  0.00    -0.378 C  
BRANCH   5   6
HETATM    6  C   UNL     1     -12.134  12.572  67.798  1.00  0.00    -0.116 C  
BRANCH   6   7
HETATM    7  C   UNL     1     -11.633  12.526  69.052  1.00  0.00    -0.365 A  
HETATM    8  C   UNL     1     -10.978  11.286  69.532  1.00  0.00    -0.249 A  
HETATM    9  C   UNL     1      -9.760  10.874  68.972  1.00  0.00    -0.181 A  
HETATM   10  C   UNL     1      -9.075   9.779  69.498  1.00  0.00    -0.227 A  
HETATM   11  C   UNL     1      -9.608   9.077  70.575  1.00  0.00    -0.264 A  
HETATM   12  C   UNL     1     -10.832   9.465  71.126  1.00  0.00    -0.427 A  
HETATM   13  C   UNL     1     -11.520  10.581  70.628  1.00  0.00    -0.418 A  
HETATM   14  C   UNL     1     -12.806  10.936  71.261  1.00  0.00    -0.536 A  
HETATM   15  C   UNL     1     -13.278  12.172  71.493  1.00  0.00    -0.270 A  
HETATM   16  C   UNL     1     -12.611  13.447  71.168  1.00  0.00    -0.430 A  
HETATM   17  C   UNL     1     -12.785  14.529  72.041  1.00  0.00    -0.410 A  
HETATM   18  C   UNL     1     -12.179  15.763  71.783  1.00  0.00    -0.525 A  
HETATM   19  C   UNL     1     -11.391  15.933  70.649  1.00  0.00    -0.421 A  
HETATM   20  C   UNL     1     -11.219  14.872  69.763  1.00  0.00    -0.308 A  
HETATM   21  C   UNL     1     -11.844  13.638  70.002  1.00  0.00    -0.378 A  
ENDBRANCH   6   7
ENDBRANCH   5   6
ENDBRANCH   4   5
ENDBRANCH   2   4
TORSDOF 4
ENDMDL
MODEL        6
REMARK 921   NORMALIZED FREE ENERGY PREDICTED BY IDOCK:   -6.15 KCAL/MOL
REMARK 922        TOTAL FREE ENERGY PREDICTED BY IDOCK:   -8.04 KCAL/MOL
REMARK 923 INTER-LIGAND FREE ENERGY PREDICTED BY IDOCK:   -7.62 KCAL/MOL
REMARK 924 INTRA-LIGAND FREE ENERGY PREDICTED BY IDOCK:   -0.42 KCAL/MOL
REMARK 927      BINDING AFFINITY PREDICTED BY RF-SCORE:    0.00 PKD
ROOT
HETATM    1  C   UNL     1     -11.716   8.181  72.628  1.00  0.00    -0.355 C  
HETATM    2  N   UNL     1     -12.508   8.705  71.514  1.00  0.00    -0.314 NA 
HETATM    3  C   UNL     1     -13.901   8.275  71.649  1.00  0.00    -0.377 C  
ENDROOT
BRANCH   2   4
HETATM    4  C   UNL     1     -12.375  10.177  71.436  1.00  0.00    -0.416 C  
BRANCH   4   5
HETATM    5  C   UNL     1     -12.321  10.708  69.993  1.00  0.00    -0.341 C  
BRANCH   5   6
HETATM    6  C   UNL     1     -11.443  11.929  69.830  1.00  0.00    -0.264 C  
BRANCH   6   7
HETATM    7  C   UNL     1     -11.857  13.185  69.556  1.00  0.00    -0.383 A  
HETATM    8  C   UNL     1     -11.635  13.748  68.202  1.00  0.00    -0.370 A  
HETATM    9  C   UNL     1     -12.326  13.222  67.102  1.00  0.00    -0.163 A  
HETATM   10  C   UNL     1     -12.217  13.822  65.848  1.00  0.00    -0.501 A  
HETATM   11  C   UNL     1     -11.407  14.941  65.679  1.00  0.00    -0.325 A  
HETATM   12  C   UNL     1     -10.697  15.459  66.764  1.00  0.00    -0.310 A  
HETATM   13  C   UNL     1     -10.816  14.887  68.039  1.00  0.00    -0.263 A  
HETATM   14  C   UNL     1     -10.039  15.489  69.140  1.00  0.00    -0.239 A  
HETATM   15  C   UNL     1     -10.430  15.637  70.418  1.00  0.00    -0.211 A  
HETATM   16  C   UNL     1     -11.724  15.231  70.997  1.00  0.00    -0.394 A  
HETATM   17  C   UNL     1     -12.280  16.031  72.005  1.00  0.00    -0.582 A  
HETATM   18  C   UNL     1     -13.503  15.694  72.593  1.00  0.00    -0.655 A  
HETATM   19  C   UNL     1     -14.188  14.555  72.183  1.00  0.00    -0.619 A  
HETATM   20  C   UNL     1     -13.644  13.742  71.192  1.00  0.00    -0.091 A  
HETATM   21  C   UNL     1     -12.405  14.059  70.614  1.00  0.00    -0.446 A  
ENDBRANCH   6   7
ENDBRANCH   5   6
ENDBRANCH   4   5
ENDBRANCH   2   4
TORSDOF 4
ENDMDL
MODEL        7
REMARK 921   NORMALIZED FREE ENERGY PREDICTED BY IDOCK:   -6.11 KCAL/MOL
REMARK 922        TOTAL FREE ENERGY PREDICTED BY IDOCK:   -7.99 KCAL/MOL
REMARK 923 INTER-LIGAND FREE ENERGY PREDICTED BY IDOCK:   -7.31 KCAL/MOL
REMARK 924 INTRA-LIGAND FREE ENERGY PREDICTED BY IDOCK:   -0.69 KCAL/MOL
REMARK 927      BINDING AFFINITY PREDICTED BY RF-SCORE:    0.00 PKD
ROOT
HETATM    1  C   UNL     1     -10.221  11.553  63.334  1.00  0.00    -0.420 C  
HETATM    2  N   UNL     1     -11.113  12.672  63.643  1.00  0.00    -0.451 NA 
HETATM    3  C   UNL     1     -12.505  12.221  63.610  1.00  0.00    -0.541 C  
ENDROOT
BRANCH   2   4
HETATM    4  C   UNL     1     -10.745  13.280  64.941  1.00  0.00    -0.351 C  
BRANCH   4   5
HETATM    5  C   UNL     1     -11.862  13.189  65.994  1.00  0.00    -0.457 C  
BRANCH   5   6
HETATM    6  C   UNL     1     -11.452  12.449  67.248  1.00  0.00    -0.421 C  
BRANCH   6   7
HETATM    7  C   UNL     1     -11.069  13.003  68.419  1.00  0.00    -0.292 A  
HETATM    8  C   UNL     1     -11.896  12.796  69.632  1.00  0.00    -0.384 A  
HETATM    9  C   UNL     1     -11.992  11.521  70.205  1.00  0.00    -0.455 A  
HETATM   10  C   UNL     1     -12.666  11.338  71.412  1.00  0.00    -0.501 A  
HETATM   11  C   UNL     1     -13.263  12.423  72.047  1.00  0.00    -0.514 A  
HETATM   12  C   UNL     1     -13.193  13.694  71.473  1.00  0.00    -0.409 A  
HETATM   13  C   UNL     1     -12.494  13.901  70.274  1.00  0.00    -0.380 A  
HETATM   14  C   UNL     1     -12.458  15.272  69.726  1.00  0.00    -0.223 A  
HETATM   15  C   UNL     1     -11.425  15.866  69.104  1.00  0.00    -0.377 A  
HETATM   16  C   UNL     1     -10.100  15.277  68.836  1.00  0.00    -0.225 A  
HETATM   17  C   UNL     1      -8.978  16.116  68.889  1.00  0.00    -0.247 A  
HETATM   18  C   UNL     1      -7.697  15.614  68.641  1.00  0.00    -0.150 A  
HETATM   19  C   UNL     1      -7.518  14.269  68.336  1.00  0.00    -0.122 A  
HETATM   20  C   UNL     1      -8.623  13.424  68.265  1.00  0.00    -0.169 A  
HETATM   21  C   UNL     1      -9.915  13.925  68.488  1.00  0.00    -0.221 A  
ENDBRANCH   6   7
ENDBRANCH   5   6
ENDBRANCH   4   5
ENDBRANCH   2   4
TORSDOF 4
ENDMDL
MODEL        8
REMARK 921   NORMALIZED FREE ENERGY PREDICTED BY IDOCK:   -6.09 KCAL/MOL
REMARK 922        TOTAL FREE ENERGY PREDICTED BY IDOCK:   -7.97 KCAL/MOL
REMARK 923 INTER-LIGAND FREE ENERGY PREDICTED BY IDOCK:   -7.47 KCAL/MOL
REMARK 924 INTRA-LIGAND FREE ENERGY PREDICTED BY IDOCK:   -0.49 KCAL/MOL
REMARK 927      BINDING AFFINITY PREDICTED BY RF-SCORE:    0.00 PKD
ROOT
HETATM    1  C   UNL     1     -12.769  10.306  71.623  1.00  0.00    -0.456 C  
HETATM    2  N   UNL     1     -11.394   9.922  71.299  1.00  0.00    -0.368 NA 
HETATM    3  C   UNL     1     -11.016   8.734  72.067  1.00  0.00    -0.368 C  
ENDROOT
BRANCH   2   4
HETATM    4  C   UNL     1     -11.244   9.724  69.841  1.00  0.00    -0.229 C  
BRANCH   4   5
HETATM    5  C   UNL     1     -11.858  10.861  69.006  1.00  0.00    -0.370 C  
BRANCH   5   6
HETATM    6  C   UNL     1     -11.016  12.118  68.983  1.00  0.00    -0.255 C  
BRANCH   6   7
HETATM    7  C   UNL     1     -11.461  13.378  68.788  1.00  0.00    -0.344 A  
HETATM    8  C   UNL     1     -11.362  13.988  67.440  1.00  0.00    -0.350 A  
HETATM    9  C   UNL     1     -12.143  13.492  66.388  1.00  0.00    -0.467 A  
HETATM   10  C   UNL     1     -12.149  14.134  65.149  1.00  0.00    -0.416 A  
HETATM   11  C   UNL     1     -11.363  15.265  64.948  1.00  0.00    -0.387 A  
HETATM   12  C   UNL     1     -10.564  15.754  65.984  1.00  0.00    -0.334 A  
HETATM   13  C   UNL     1     -10.568  15.139  67.244  1.00  0.00    -0.286 A  
HETATM   14  C   UNL     1      -9.702  15.711  68.294  1.00  0.00    -0.201 A  
HETATM   15  C   UNL     1      -9.980  15.814  69.604  1.00  0.00    -0.284 A  
HETATM   16  C   UNL     1     -11.216  15.377  70.280  1.00  0.00    -0.328 A  
HETATM   17  C   UNL     1     -11.686  16.138  71.360  1.00  0.00    -0.506 A  
HETATM   18  C   UNL     1     -12.851  15.771  72.041  1.00  0.00    -0.511 A  
HETATM   19  C   UNL     1     -13.562  14.640  71.653  1.00  0.00    -0.475 A  
HETATM   20  C   UNL     1     -13.102  13.864  70.592  1.00  0.00    -0.140 A  
HETATM   21  C   UNL     1     -11.920  14.212  69.919  1.00  0.00    -0.398 A  
ENDBRANCH   6   7
ENDBRANCH   5   6
ENDBRANCH   4   5
ENDBRANCH   2   4
TORSDOF 4
ENDMDL
MODEL        9
REMARK 921   NORMALIZED FREE ENERGY PREDICTED BY IDOCK:   -6.09 KCAL/MOL
REMARK 922        TOTAL FREE ENERGY PREDICTED BY IDOCK:   -7.96 KCAL/MOL
REMARK 923 INTER-LIGAND FREE ENERGY PREDICTED BY IDOCK:   -7.39 KCAL/MOL
REMARK 924 INTRA-LIGAND FREE ENERGY PREDICTED BY IDOCK:   -0.57 KCAL/MOL
REMARK 927      BINDING AFFINITY PREDICTED BY RF-SCORE:    0.00 PKD
ROOT
HETATM    1  C   UNL     1     -14.073  14.908  71.556  1.00  0.00    -0.505 C  
HETATM    2  N   UNL     1     -12.883  15.600  72.053  1.00  0.00    -0.417 NA 
HETATM    3  C   UNL     1     -12.746  15.381  73.494  1.00  0.00    -0.559 C  
ENDROOT
BRANCH   2   4
HETATM    4  C   UNL     1     -11.685  15.169  71.299  1.00  0.00    -0.359 C  
BRANCH   4   5
HETATM    5  C   UNL     1     -11.996  14.737  69.856  1.00  0.00    -0.378 C  
BRANCH   5   6
HETATM    6  C   UNL     1     -11.733  15.818  68.830  1.00  0.00    -0.404 C  
BRANCH   6   7
HETATM    7  C   UNL     1     -11.037  15.682  67.681  1.00  0.00    -0.305 A  
HETATM    8  C   UNL     1     -11.145  14.422  66.905  1.00  0.00    -0.325 A  
HETATM    9  C   UNL     1     -12.353  14.088  66.277  1.00  0.00    -0.482 A  
HETATM   10  C   UNL     1     -12.431  12.970  65.447  1.00  0.00    -0.531 A  
HETATM   11  C   UNL     1     -11.310  12.170  65.250  1.00  0.00    -0.386 A  
HETATM   12  C   UNL     1     -10.108  12.481  65.889  1.00  0.00    -0.270 A  
HETATM   13  C   UNL     1     -10.003  13.618  66.704  1.00  0.00    -0.283 A  
HETATM   14  C   UNL     1      -8.701  13.889  67.346  1.00  0.00    -0.208 A  
HETATM   15  C   UNL     1      -8.134  15.090  67.549  1.00  0.00    -0.200 A  
HETATM   16  C   UNL     1      -8.691  16.403  67.171  1.00  0.00    -0.207 A  
HETATM   17  C   UNL     1      -7.804  17.406  66.756  1.00  0.00    -0.273 A  
HETATM   18  C   UNL     1      -8.274  18.670  66.389  1.00  0.00    -0.295 A  
HETATM   19  C   UNL     1      -9.636  18.951  66.431  1.00  0.00    -0.377 A  
HETATM   20  C   UNL     1     -10.530  17.971  66.854  1.00  0.00    -0.350 A  
HETATM   21  C   UNL     1     -10.064  16.707  67.248  1.00  0.00    -0.279 A  
ENDBRANCH   6   7
ENDBRANCH   5   6
ENDBRANCH   4   5
ENDBRANCH   2   4
TORSDOF 4
ENDMDL
MODEL       10
REMARK 921   NORMALIZED FREE ENERGY PREDICTED BY IDOCK:   -6.07 KCAL/MOL
REMARK 922        TOTAL FREE ENERGY PREDICTED BY IDOCK:   -7.95 KCAL/MOL
REMARK 923 INTER-LIGAND FREE ENERGY PREDICTED BY IDOCK:   -7.31 KCAL/MOL
REMARK 924 INTRA-LIGAND FREE ENERGY PREDICTED BY IDOCK:   -0.64 KCAL/MOL
REMARK 927      BINDING AFFINITY PREDICTED BY RF-SCORE:    0.00 PKD
ROOT
HETATM    1  C   UNL     1     -13.552  13.714  72.448  1.00  0.00    -0.602 C  
HETATM    2  N   UNL     1     -13.295  15.153  72.525  1.00  0.00    -0.398 NA 
HETATM    3  C   UNL     1     -12.599  15.467  73.774  1.00  0.00    -0.611 C  
ENDROOT
BRANCH   2   4
HETATM    4  C   UNL     1     -12.547  15.606  71.332  1.00  0.00    -0.457 C  
BRANCH   4   5
HETATM    5  C   UNL     1     -11.842  14.461  70.583  1.00  0.00    -0.361 C  
BRANCH   5   6
HETATM    6  C   UNL     1     -12.208  14.382  69.117  1.00  0.00    -0.255 C  
BRANCH   6   7
HETATM    7  C   UNL     1     -11.400  14.665  68.072  1.00  0.00    -0.329 A  
HETATM    8  C   UNL     1     -11.384  13.764  66.895  1.00  0.00    -0.345 A  
HETATM    9  C   UNL     1     -12.512  13.671  66.068  1.00  0.00    -0.477 A  
HETATM   10  C   UNL     1     -12.467  12.922  64.893  1.00  0.00    -0.540 A  
HETATM   11  C   UNL     1     -11.301  12.247  64.542  1.00  0.00    -0.385 A  
HETATM   12  C   UNL     1     -10.179  12.315  65.371  1.00  0.00    -0.297 A  
HETATM   13  C   UNL     1     -10.197  13.087  66.542  1.00  0.00    -0.270 A  
HETATM   14  C   UNL     1      -8.974  13.116  67.368  1.00  0.00    -0.201 A  
HETATM   15  C   UNL     1      -8.477  14.168  68.040  1.00  0.00    -0.171 A  
HETATM   16  C   UNL     1      -9.047  15.527  68.095  1.00  0.00    -0.184 A  
HETATM   17  C   UNL     1      -8.165  16.615  68.156  1.00  0.00    -0.192 A  
HETATM   18  C   UNL     1      -8.647  17.926  68.213  1.00  0.00    -0.277 A  
HETATM   19  C   UNL     1     -10.016  18.170  68.211  1.00  0.00    -0.380 A  
HETATM   20  C   UNL     1     -10.908  17.101  68.165  1.00  0.00    -0.316 A  
HETATM   21  C   UNL     1     -10.432  15.780  68.133  1.00  0.00    -0.263 A  
ENDBRANCH   6   7
ENDBRANCH   5   6
ENDBRANCH   4   5
ENDBRANCH   2   4
TORSDOF 4
ENDMDL
MODEL       11
REMARK 921   NORMALIZED FREE ENERGY PREDICTED BY IDOCK:   -6.03 KCAL/MOL
REMARK 922        TOTAL FREE ENERGY PREDICTED BY IDOCK:   -7.89 KCAL/MOL
REMARK 923 INTER-LIGAND FREE ENERGY PREDICTED BY IDOCK:   -7.22 KCAL/MOL
REMARK 924 INTRA-LIGAND FREE ENERGY PREDICTED BY IDOCK:   -0.67 KCAL/MOL
REMARK 927      BINDING AFFINITY PREDICTED BY RF-SCORE:    0.00 PKD
ROOT
HETATM    1  C   UNL     1      -7.760  18.386  68.475  1.00  0.00    -0.303 C  
HETATM    2  N   UNL     1      -8.264  17.092  68.010  1.00  0.00    -0.210 NA 
HETATM    3  C   UNL     1      -7.821  16.852  66.636  1.00  0.00    -0.263 C  
ENDROOT
BRANCH   2   4
HETATM    4  C   UNL     1      -7.849  16.015  68.935  1.00  0.00    -0.202 C  
BRANCH   4   5
HETATM    5  C   UNL     1      -9.025  15.375  69.692  1.00  0.00    -0.156 C  
BRANCH   5   6
HETATM    6  C   UNL     1     -10.377  15.707  69.101  1.00  0.00    -0.241 C  
BRANCH   6   7
HETATM    7  C   UNL     1     -11.421  14.862  68.959  1.00  0.00    -0.322 A  
HETATM    8  C   UNL     1     -12.260  14.530  70.136  1.00  0.00    -0.399 A  
HETATM    9  C   UNL     1     -13.068  15.516  70.720  1.00  0.00    -0.446 A  
HETATM   10  C   UNL     1     -13.951  15.187  71.748  1.00  0.00    -0.627 A  
HETATM   11  C   UNL     1     -14.022  13.876  72.212  1.00  0.00    -0.663 A  
HETATM   12  C   UNL     1     -13.205  12.892  71.652  1.00  0.00    -0.416 A  
HETATM   13  C   UNL     1     -12.332  13.199  70.598  1.00  0.00    -0.405 A  
HETATM   14  C   UNL     1     -11.500  12.108  70.052  1.00  0.00    -0.156 A  
HETATM   15  C   UNL     1     -11.164  11.914  68.765  1.00  0.00    -0.314 A  
HETATM   16  C   UNL     1     -11.558  12.750  67.616  1.00  0.00    -0.412 A  
HETATM   17  C   UNL     1     -11.796  12.119  66.387  1.00  0.00    -0.321 A  
HETATM   18  C   UNL     1     -12.169  12.861  65.262  1.00  0.00    -0.524 A  
HETATM   19  C   UNL     1     -12.309  14.242  65.347  1.00  0.00    -0.421 A  
HETATM   20  C   UNL     1     -12.063  14.887  66.557  1.00  0.00     0.005 A  
HETATM   21  C   UNL     1     -11.664  14.153  67.685  1.00  0.00    -0.421 A  
ENDBRANCH   6   7
ENDBRANCH   5   6
ENDBRANCH   4   5
ENDBRANCH   2   4
TORSDOF 4
ENDMDL
MODEL       12
REMARK 921   NORMALIZED FREE ENERGY PREDICTED BY IDOCK:   -6.02 KCAL/MOL
REMARK 922        TOTAL FREE ENERGY PREDICTED BY IDOCK:   -7.88 KCAL/MOL
REMARK 923 INTER-LIGAND FREE ENERGY PREDICTED BY IDOCK:   -6.88 KCAL/MOL
REMARK 924 INTRA-LIGAND FREE ENERGY PREDICTED BY IDOCK:   -0.99 KCAL/MOL
REMARK 927      BINDING AFFINITY PREDICTED BY RF-SCORE:    0.00 PKD
ROOT
HETATM    1  C   UNL     1      -9.144  15.890  66.235  1.00  0.00    -0.344 C  
HETATM    2  N   UNL     1      -8.908  16.031  67.673  1.00  0.00    -0.184 NA 
HETATM    3  C   UNL     1     -10.035  16.729  68.295  1.00  0.00    -0.273 C  
ENDROOT
BRANCH   2   4
HETATM    4  C   UNL     1      -8.656  14.708  68.285  1.00  0.00    -0.167 C  
BRANCH   4   5
HETATM    5  C   UNL     1      -8.050  13.689  67.306  1.00  0.00    -0.152 C  
BRANCH   5   6
HETATM    6  C   UNL     1      -8.624  12.297  67.448  1.00  0.00    -0.178 C  
BRANCH   6   7
HETATM    7  C   UNL     1      -9.929  11.955  67.372  1.00  0.00    -0.201 A  
HETATM    8  C   UNL     1     -10.669  12.171  66.105  1.00  0.00    -0.307 A  
HETATM    9  C   UNL     1     -10.349  11.414  64.969  1.00  0.00    -0.342 A  
HETATM   10  C   UNL     1     -11.117  11.521  63.810  1.00  0.00    -0.471 A  
HETATM   11  C   UNL     1     -12.199  12.396  63.770  1.00  0.00    -0.626 A  
HETATM   12  C   UNL     1     -12.512  13.171  64.889  1.00  0.00    -0.490 A  
HETATM   13  C   UNL     1     -11.769  13.055  66.073  1.00  0.00    -0.442 A  
HETATM   14  C   UNL     1     -12.158  13.903  67.217  1.00  0.00    -0.403 A  
HETATM   15  C   UNL     1     -12.143  13.562  68.517  1.00  0.00    -0.303 A  
HETATM   16  C   UNL     1     -11.734  12.263  69.084  1.00  0.00    -0.377 A  
HETATM   17  C   UNL     1     -12.410  11.791  70.217  1.00  0.00    -0.320 A  
HETATM   18  C   UNL     1     -12.065  10.568  70.799  1.00  0.00    -0.470 A  
HETATM   19  C   UNL     1     -11.040   9.799  70.258  1.00  0.00    -0.349 A  
HETATM   20  C   UNL     1     -10.348  10.259  69.141  1.00  0.00    -0.241 A  
HETATM   21  C   UNL     1     -10.672  11.497  68.565  1.00  0.00    -0.242 A  
ENDBRANCH   6   7
ENDBRANCH   5   6
ENDBRANCH   4   5
ENDBRANCH   2   4
TORSDOF 4
ENDMDL
MODEL       13
REMARK 921   NORMALIZED FREE ENERGY PREDICTED BY IDOCK:   -6.02 KCAL/MOL
REMARK 922        TOTAL FREE ENERGY PREDICTED BY IDOCK:   -7.88 KCAL/MOL
REMARK 923 INTER-LIGAND FREE ENERGY PREDICTED BY IDOCK:   -7.17 KCAL/MOL
REMARK 924 INTRA-LIGAND FREE ENERGY PREDICTED BY IDOCK:   -0.71 KCAL/MOL
REMARK 927      BINDING AFFINITY PREDICTED BY RF-SCORE:    0.00 PKD
ROOT
HETATM    1  C   UNL     1     -11.730  15.545  64.219  1.00  0.00    -0.190 C  
HETATM    2  N   UNL     1     -12.595  14.380  64.408  1.00  0.00    -0.675 NA 
HETATM    3  C   UNL     1     -12.141  13.280  63.556  1.00  0.00    -0.482 C  
ENDROOT
BRANCH   2   4
HETATM    4  C   UNL     1     -12.646  14.004  65.838  1.00  0.00    -0.449 C  
BRANCH   4   5
HETATM    5  C   UNL     1     -11.833  12.740  66.166  1.00  0.00    -0.484 C  
BRANCH   5   6
HETATM    6  C   UNL     1     -11.885  12.349  67.627  1.00  0.00    -0.363 C  
BRANCH   6   7
HETATM    7  C   UNL     1     -11.297  13.001  68.653  1.00  0.00    -0.329 A  
HETATM    8  C   UNL     1     -12.082  13.301  69.875  1.00  0.00    -0.377 A  
HETATM    9  C   UNL     1     -12.507  12.258  70.709  1.00  0.00    -0.356 A  
HETATM   10  C   UNL     1     -13.139  12.535  71.921  1.00  0.00    -0.473 A  
HETATM   11  C   UNL     1     -13.367  13.854  72.301  1.00  0.00    -0.599 A  
HETATM   12  C   UNL     1     -12.968  14.901  71.466  1.00  0.00    -0.419 A  
HETATM   13  C   UNL     1     -12.305  14.641  70.258  1.00  0.00    -0.406 A  
HETATM   14  C   UNL     1     -11.909  15.796  69.427  1.00  0.00    -0.361 A  
HETATM   15  C   UNL     1     -10.785  15.921  68.701  1.00  0.00    -0.274 A  
HETATM   16  C   UNL     1      -9.699  14.931  68.579  1.00  0.00    -0.215 A  
HETATM   17  C   UNL     1      -8.383  15.400  68.460  1.00  0.00    -0.151 A  
HETATM   18  C   UNL     1      -7.314  14.507  68.338  1.00  0.00    -0.114 A  
HETATM   19  C   UNL     1      -7.542  13.135  68.333  1.00  0.00    -0.133 A  
HETATM   20  C   UNL     1      -8.845  12.652  68.436  1.00  0.00    -0.119 A  
HETATM   21  C   UNL     1      -9.927  13.541  68.533  1.00  0.00    -0.202 A  
ENDBRANCH   6   7
ENDBRANCH   5   6
ENDBRANCH   4   5
ENDBRANCH   2   4
TORSDOF 4
ENDMDL
MODEL       14
REMARK 921   NORMALIZED FREE ENERGY PREDICTED BY IDOCK:   -6.01 KCAL/MOL
REMARK 922        TOTAL FREE ENERGY PREDICTED BY IDOCK:   -7.86 KCAL/MOL
REMARK 923 INTER-LIGAND FREE ENERGY PREDICTED BY IDOCK:   -7.27 KCAL/MOL
REMARK 924 INTRA-LIGAND FREE ENERGY PREDICTED BY IDOCK:   -0.59 KCAL/MOL
REMARK 927      BINDING AFFINITY PREDICTED BY RF-SCORE:    0.00 PKD
ROOT
HETATM    1  C   UNL     1     -10.075  19.099  68.227  1.00  0.00    -0.416 C  
HETATM    2  N   UNL     1     -10.740  18.077  67.417  1.00  0.00    -0.366 NA 
HETATM    3  C   UNL     1     -10.076  17.965  66.117  1.00  0.00    -0.320 C  
ENDROOT
BRANCH   2   4
HETATM    4  C   UNL     1     -10.782  16.790  68.144  1.00  0.00    -0.361 C  
BRANCH   4   5
HETATM    5  C   UNL     1     -10.750  15.564  67.216  1.00  0.00    -0.308 C  
BRANCH   5   6
HETATM    6  C   UNL     1     -11.670  14.447  67.657  1.00  0.00    -0.421 C  
BRANCH   6   7
HETATM    7  C   UNL     1     -11.533  13.134  67.371  1.00  0.00    -0.375 A  
HETATM    8  C   UNL     1     -11.344  12.162  68.475  1.00  0.00    -0.324 A  
HETATM    9  C   UNL     1     -12.390  11.912  69.375  1.00  0.00    -0.056 A  
HETATM   10  C   UNL     1     -12.267  10.913  70.341  1.00  0.00    -0.453 A  
HETATM   11  C   UNL     1     -11.094  10.168  70.425  1.00  0.00    -0.393 A  
HETATM   12  C   UNL     1     -10.038  10.424  69.548  1.00  0.00    -0.246 A  
HETATM   13  C   UNL     1     -10.156  11.404  68.552  1.00  0.00    -0.211 A  
HETATM   14  C   UNL     1      -9.001  11.619  67.657  1.00  0.00    -0.166 A  
HETATM   15  C   UNL     1      -9.038  11.903  66.344  1.00  0.00    -0.208 A  
HETATM   16  C   UNL     1     -10.245  12.059  65.509  1.00  0.00    -0.290 A  
HETATM   17  C   UNL     1     -10.191  11.624  64.178  1.00  0.00    -0.372 A  
HETATM   18  C   UNL     1     -11.303  11.750  63.338  1.00  0.00    -0.437 A  
HETATM   19  C   UNL     1     -12.482  12.310  63.817  1.00  0.00    -0.619 A  
HETATM   20  C   UNL     1     -12.549  12.759  65.133  1.00  0.00    -0.513 A  
HETATM   21  C   UNL     1     -11.430  12.660  65.975  1.00  0.00    -0.414 A  
ENDBRANCH   6   7
ENDBRANCH   5   6
ENDBRANCH   4   5
ENDBRANCH   2   4
TORSDOF 4
ENDMDL
MODEL       15
REMARK 921   NORMALIZED FREE ENERGY PREDICTED BY IDOCK:   -6.00 KCAL/MOL
REMARK 922        TOTAL FREE ENERGY PREDICTED BY IDOCK:   -7.86 KCAL/MOL
REMARK 923 INTER-LIGAND FREE ENERGY PREDICTED BY IDOCK:   -7.43 KCAL/MOL
REMARK 924 INTRA-LIGAND FREE ENERGY PREDICTED BY IDOCK:   -0.43 KCAL/MOL
REMARK 927      BINDING AFFINITY PREDICTED BY RF-SCORE:    0.00 PKD
ROOT
HETATM    1  C   UNL     1      -9.600  11.455  62.887  1.00  0.00    -0.339 C  
HETATM    2  N   UNL     1     -10.721  11.473  63.828  1.00  0.00    -0.377 NA 
HETATM    3  C   UNL     1     -10.376  10.706  65.027  1.00  0.00    -0.271 C  
ENDROOT
BRANCH   2   4
HETATM    4  C   UNL     1     -11.109  12.866  64.140  1.00  0.00    -0.399 C  
BRANCH   4   5
HETATM    5  C   UNL     1     -12.364  12.966  65.023  1.00  0.00    -0.541 C  
BRANCH   5   6
HETATM    6  C   UNL     1     -12.298  14.080  66.044  1.00  0.00    -0.504 C  
BRANCH   6   7
HETATM    7  C   UNL     1     -11.499  14.125  67.133  1.00  0.00    -0.373 A  
HETATM    8  C   UNL     1     -11.783  13.236  68.285  1.00  0.00    -0.388 A  
HETATM    9  C   UNL     1     -11.622  11.850  68.157  1.00  0.00    -0.400 A  
HETATM   10  C   UNL     1     -11.768  11.016  69.266  1.00  0.00    -0.397 A  
HETATM   11  C   UNL     1     -12.091  11.559  70.506  1.00  0.00    -0.472 A  
HETATM   12  C   UNL     1     -12.277  12.936  70.640  1.00  0.00    -0.386 A  
HETATM   13  C   UNL     1     -12.105  13.793  69.542  1.00  0.00    -0.386 A  
HETATM   14  C   UNL     1     -12.314  15.238  69.756  1.00  0.00    -0.288 A  
HETATM   15  C   UNL     1     -11.618  16.246  69.202  1.00  0.00    -0.213 A  
HETATM   16  C   UNL     1     -10.491  16.125  68.258  1.00  0.00    -0.276 A  
HETATM   17  C   UNL     1      -9.455  17.065  68.339  1.00  0.00    -0.269 A  
HETATM   18  C   UNL     1      -8.362  17.002  67.468  1.00  0.00    -0.199 A  
HETATM   19  C   UNL     1      -8.289  16.000  66.506  1.00  0.00    -0.348 A  
HETATM   20  C   UNL     1      -9.317  15.066  66.403  1.00  0.00    -0.334 A  
HETATM   21  C   UNL     1     -10.430  15.137  67.256  1.00  0.00    -0.271 A  
ENDBRANCH   6   7
ENDBRANCH   5   6
ENDBRANCH   4   5
ENDBRANCH   2   4
TORSDOF 4
ENDMDL
MODEL       16
REMARK 921   NORMALIZED FREE ENERGY PREDICTED BY IDOCK:   -5.96 KCAL/MOL
REMARK 922        TOTAL FREE ENERGY PREDICTED BY IDOCK:   -7.81 KCAL/MOL
REMARK 923 INTER-LIGAND FREE ENERGY PREDICTED BY IDOCK:   -7.10 KCAL/MOL
REMARK 924 INTRA-LIGAND FREE ENERGY PREDICTED BY IDOCK:   -0.70 KCAL/MOL
REMARK 927      BINDING AFFINITY PREDICTED BY RF-SCORE:    0.00 PKD
ROOT
HETATM    1  C   UNL     1     -10.506  13.068  64.300  1.00  0.00    -0.402 C  
HETATM    2  N   UNL     1     -11.944  13.220  64.074  1.00  0.00    -0.440 NA 
HETATM    3  C   UNL     1     -12.486  11.998  63.479  1.00  0.00    -0.540 C  
ENDROOT
BRANCH   2   4
HETATM    4  C   UNL     1     -12.627  13.587  65.334  1.00  0.00    -0.483 C  
BRANCH   4   5
HETATM    5  C   UNL     1     -11.799  14.530  66.224  1.00  0.00    -0.354 C  
BRANCH   5   6
HETATM    6  C   UNL     1     -11.984  14.284  67.704  1.00  0.00    -0.400 C  
BRANCH   6   7
HETATM    7  C   UNL     1     -11.251  13.454  68.478  1.00  0.00    -0.316 A  
HETATM    8  C   UNL     1      -9.826  13.215  68.147  1.00  0.00    -0.228 A  
HETATM    9  C   UNL     1      -8.892  14.252  68.281  1.00  0.00    -0.185 A  
HETATM   10  C   UNL     1      -7.532  14.008  68.091  1.00  0.00    -0.131 A  
HETATM   11  C   UNL     1      -7.096  12.731  67.750  1.00  0.00    -0.132 A  
HETATM   12  C   UNL     1      -8.020  11.695  67.592  1.00  0.00    -0.136 A  
HETATM   13  C   UNL     1      -9.389  11.917  67.808  1.00  0.00    -0.184 A  
HETATM   14  C   UNL     1     -10.308  10.776  67.626  1.00  0.00    -0.236 A  
HETATM   15  C   UNL     1     -11.401  10.495  68.357  1.00  0.00    -0.328 A  
HETATM   16  C   UNL     1     -11.918  11.266  69.503  1.00  0.00    -0.421 A  
HETATM   17  C   UNL     1     -12.518  10.564  70.558  1.00  0.00    -0.433 A  
HETATM   18  C   UNL     1     -13.029  11.242  71.669  1.00  0.00    -0.537 A  
HETATM   19  C   UNL     1     -12.947  12.629  71.743  1.00  0.00    -0.417 A  
HETATM   20  C   UNL     1     -12.366  13.343  70.697  1.00  0.00    -0.423 A  
HETATM   21  C   UNL     1     -11.874  12.672  69.567  1.00  0.00    -0.376 A  
ENDBRANCH   6   7
ENDBRANCH   5   6
ENDBRANCH   4   5
ENDBRANCH   2   4
TORSDOF 4
ENDMDL
MODEL       17
REMARK 921   NORMALIZED FREE ENERGY PREDICTED BY IDOCK:   -5.91 KCAL/MOL
REMARK 922        TOTAL FREE ENERGY PREDICTED BY IDOCK:   -7.75 KCAL/MOL
REMARK 923 INTER-LIGAND FREE ENERGY PREDICTED BY IDOCK:   -7.17 KCAL/MOL
REMARK 924 INTRA-LIGAND FREE ENERGY PREDICTED BY IDOCK:   -0.58 KCAL/MOL
REMARK 927      BINDING AFFINITY PREDICTED BY RF-SCORE:    0.00 PKD
ROOT
HETATM    1  C   UNL     1     -14.196  15.311  71.933  1.00  0.00    -0.581 C  
HETATM    2  N   UNL     1     -12.915  15.616  71.294  1.00  0.00    -0.496 NA 
HETATM    3  C   UNL     1     -11.951  16.062  72.302  1.00  0.00    -0.538 C  
ENDROOT
BRANCH   2   4
HETATM    4  C   UNL     1     -12.431  14.446  70.527  1.00  0.00    -0.350 C  
BRANCH   4   5
HETATM    5  C   UNL     1     -11.884  14.813  69.138  1.00  0.00    -0.340 C  
BRANCH   5   6
HETATM    6  C   UNL     1     -10.940  13.777  68.567  1.00  0.00    -0.283 C  
BRANCH   6   7
HETATM    7  C   UNL     1     -10.233  13.881  67.421  1.00  0.00    -0.252 A  
HETATM    8  C   UNL     1      -9.112  14.848  67.338  1.00  0.00    -0.196 A  
HETATM    9  C   UNL     1      -7.952  14.643  68.098  1.00  0.00    -0.136 A  
HETATM   10  C   UNL     1      -6.846  15.477  67.938  1.00  0.00    -0.164 A  
HETATM   11  C   UNL     1      -6.894  16.530  67.029  1.00  0.00    -0.248 A  
HETATM   12  C   UNL     1      -8.053  16.757  66.283  1.00  0.00    -0.365 A  
HETATM   13  C   UNL     1      -9.164  15.911  66.411  1.00  0.00    -0.344 A  
HETATM   14  C   UNL     1     -10.354  16.207  65.588  1.00  0.00    -0.405 A  
HETATM   15  C   UNL     1     -11.175  15.318  65.004  1.00  0.00    -0.409 A  
HETATM   16  C   UNL     1     -11.062  13.848  65.056  1.00  0.00    -0.353 A  
HETATM   17  C   UNL     1     -11.438  13.113  63.923  1.00  0.00    -0.451 A  
HETATM   18  C   UNL     1     -11.356  11.718  63.915  1.00  0.00    -0.494 A  
HETATM   19  C   UNL     1     -10.898  11.036  65.037  1.00  0.00    -0.194 A  
HETATM   20  C   UNL     1     -10.534  11.749  66.177  1.00  0.00    -0.284 A  
HETATM   21  C   UNL     1     -10.637  13.149  66.202  1.00  0.00    -0.288 A  
ENDBRANCH   6   7
ENDBRANCH   5   6
ENDBRANCH   4   5
ENDBRANCH   2   4
TORSDOF 4
ENDMDL
MODEL       18
REMARK 921   NORMALIZED FREE ENERGY PREDICTED BY IDOCK:   -5.88 KCAL/MOL
REMARK 922        TOTAL FREE ENERGY PREDICTED BY IDOCK:   -7.71 KCAL/MOL
REMARK 923 INTER-LIGAND FREE ENERGY PREDICTED BY IDOCK:   -7.36 KCAL/MOL
REMARK 924 INTRA-LIGAND FREE ENERGY PREDICTED BY IDOCK:   -0.35 KCAL/MOL
REMARK 927      BINDING AFFINITY PREDICTED BY RF-SCORE:    0.00 PKD
ROOT
HETATM    1  C   UNL     1     -12.093  12.097  63.695  1.00  0.00    -0.551 C  
HETATM    2  N   UNL     1     -11.246  13.216  64.112  1.00  0.00    -0.388 NA 
HETATM    3  C   UNL     1     -12.052  14.432  64.232  1.00  0.00    -0.436 C  
ENDROOT
BRANCH   2   4
HETATM    4  C   UNL     1     -10.534  12.882  65.366  1.00  0.00    -0.292 C  
BRANCH   4   5
HETATM    5  C   UNL     1     -11.309  11.906  66.266  1.00  0.00    -0.394 C  
BRANCH   5   6
HETATM    6  C   UNL     1     -11.879  12.552  67.510  1.00  0.00    -0.389 C  
BRANCH   6   7
HETATM    7  C   UNL     1     -11.419  12.408  68.772  1.00  0.00    -0.350 A  
HETATM    8  C   UNL     1     -10.328  11.442  69.047  1.00  0.00    -0.166 A  
HETATM    9  C   UNL     1      -9.040  11.678  68.546  1.00  0.00    -0.157 A  
HETATM   10  C   UNL     1      -7.981  10.842  68.899  1.00  0.00    -0.146 A  
HETATM   11  C   UNL     1      -8.203   9.756  69.740  1.00  0.00    -0.182 A  
HETATM   12  C   UNL     1      -9.487   9.498  70.226  1.00  0.00    -0.307 A  
HETATM   13  C   UNL     1     -10.558  10.346  69.905  1.00  0.00    -0.299 A  
HETATM   14  C   UNL     1     -11.887  10.015  70.457  1.00  0.00    -0.387 A  
HETATM   15  C   UNL     1     -12.819  10.880  70.893  1.00  0.00    -0.418 A  
HETATM   16  C   UNL     1     -12.713  12.351  70.917  1.00  0.00    -0.273 A  
HETATM   17  C   UNL     1     -13.319  13.043  71.976  1.00  0.00    -0.588 A  
HETATM   18  C   UNL     1     -13.254  14.438  72.050  1.00  0.00    -0.453 A  
HETATM   19  C   UNL     1     -12.585  15.161  71.069  1.00  0.00    -0.441 A  
HETATM   20  C   UNL     1     -11.989  14.492  70.003  1.00  0.00    -0.388 A  
HETATM   21  C   UNL     1     -12.071  13.093  69.907  1.00  0.00    -0.357 A  
ENDBRANCH   6   7
ENDBRANCH   5   6
ENDBRANCH   4   5
ENDBRANCH   2   4
TORSDOF 4
ENDMDL
MODEL       19
REMARK 921   NORMALIZED FREE ENERGY PREDICTED BY IDOCK:   -5.88 KCAL/MOL
REMARK 922        TOTAL FREE ENERGY PREDICTED BY IDOCK:   -7.70 KCAL/MOL
REMARK 923 INTER-LIGAND FREE ENERGY PREDICTED BY IDOCK:   -7.20 KCAL/MOL
REMARK 924 INTRA-LIGAND FREE ENERGY PREDICTED BY IDOCK:   -0.50 KCAL/MOL
REMARK 927      BINDING AFFINITY PREDICTED BY RF-SCORE:    0.00 PKD
ROOT
HETATM    1  C   UNL     1      -8.239  19.087  66.750  1.00  0.00    -0.279 C  
HETATM    2  N   UNL     1      -9.034  18.616  67.886  1.00  0.00    -0.282 NA 
HETATM    3  C   UNL     1     -10.443  18.523  67.501  1.00  0.00    -0.418 C  
ENDROOT
BRANCH   2   4
HETATM    4  C   UNL     1      -8.499  17.333  68.391  1.00  0.00    -0.254 C  
BRANCH   4   5
HETATM    5  C   UNL     1      -8.656  16.172  67.394  1.00  0.00    -0.196 C  
BRANCH   5   6
HETATM    6  C   UNL     1      -9.228  14.916  68.013  1.00  0.00    -0.185 C  
BRANCH   6   7
HETATM    7  C   UNL     1     -10.511  14.499  67.942  1.00  0.00    -0.242 A  
HETATM    8  C   UNL     1     -11.318  14.401  69.183  1.00  0.00    -0.308 A  
HETATM    9  C   UNL     1     -11.677  15.564  69.878  1.00  0.00    -0.368 A  
HETATM   10  C   UNL     1     -12.535  15.494  70.975  1.00  0.00    -0.492 A  
HETATM   11  C   UNL     1     -13.028  14.261  71.396  1.00  0.00    -0.411 A  
HETATM   12  C   UNL     1     -12.658  13.094  70.723  1.00  0.00    -0.338 A  
HETATM   13  C   UNL     1     -11.819  13.150  69.600  1.00  0.00    -0.390 A  
HETATM   14  C   UNL     1     -11.472  11.877  68.936  1.00  0.00    -0.358 A  
HETATM   15  C   UNL     1     -11.329  11.667  67.617  1.00  0.00    -0.362 A  
HETATM   16  C   UNL     1     -11.491  12.665  66.543  1.00  0.00    -0.409 A  
HETATM   17  C   UNL     1     -12.033  12.242  65.321  1.00  0.00    -0.391 A  
HETATM   18  C   UNL     1     -12.207  13.143  64.265  1.00  0.00    -0.463 A  
HETATM   19  C   UNL     1     -11.843  14.477  64.415  1.00  0.00    -0.419 A  
HETATM   20  C   UNL     1     -11.290  14.911  65.617  1.00  0.00    -0.325 A  
HETATM   21  C   UNL     1     -11.088  14.008  66.673  1.00  0.00    -0.312 A  
ENDBRANCH   6   7
ENDBRANCH   5   6
ENDBRANCH   4   5
ENDBRANCH   2   4
TORSDOF 4
ENDMDL
MODEL       20
REMARK 921   NORMALIZED FREE ENERGY PREDICTED BY IDOCK:   -5.85 KCAL/MOL
REMARK 922        TOTAL FREE ENERGY PREDICTED BY IDOCK:   -7.67 KCAL/MOL
REMARK 923 INTER-LIGAND FREE ENERGY PREDICTED BY IDOCK:   -7.21 KCAL/MOL
REMARK 924 INTRA-LIGAND FREE ENERGY PREDICTED BY IDOCK:   -0.46 KCAL/MOL
REMARK 927      BINDING AFFINITY PREDICTED BY RF-SCORE:    0.00 PKD
ROOT
HETATM    1  C   UNL     1     -11.303  15.231  64.370  1.00  0.00    -0.215 C  
HETATM    2  N   UNL     1     -12.448  14.336  64.193  1.00  0.00    -0.712 NA 
HETATM    3  C   UNL     1     -12.030  13.129  63.480  1.00  0.00    -0.513 C  
ENDROOT
BRANCH   2   4
HETATM    4  C   UNL     1     -13.072  14.034  65.500  1.00  0.00    -0.178 C  
BRANCH   4   5
HETATM    5  C   UNL     1     -12.079  14.077  66.674  1.00  0.00    -0.487 C  
BRANCH   5   6
HETATM    6  C   UNL     1     -11.909  12.746  67.372  1.00  0.00    -0.404 C  
BRANCH   6   7
HETATM    7  C   UNL     1     -11.338  12.540  68.579  1.00  0.00    -0.337 A  
HETATM    8  C   UNL     1      -9.981  11.945  68.653  1.00  0.00    -0.163 A  
HETATM    9  C   UNL     1      -8.873  12.669  68.192  1.00  0.00    -0.194 A  
HETATM   10  C   UNL     1      -7.582  12.172  68.368  1.00  0.00    -0.128 A  
HETATM   11  C   UNL     1      -7.389  10.942  68.991  1.00  0.00    -0.113 A  
HETATM   12  C   UNL     1      -8.488  10.203  69.434  1.00  0.00    -0.179 A  
HETATM   13  C   UNL     1      -9.791  10.701  69.291  1.00  0.00    -0.201 A  
HETATM   14  C   UNL     1     -10.905   9.868  69.786  1.00  0.00    -0.300 A  
HETATM   15  C   UNL     1     -12.028  10.295  70.388  1.00  0.00    -0.391 A  
HETATM   16  C   UNL     1     -12.390  11.692  70.689  1.00  0.00    -0.437 A  
HETATM   17  C   UNL     1     -13.105  11.954  71.866  1.00  0.00    -0.474 A  
HETATM   18  C   UNL     1     -13.479  13.259  72.202  1.00  0.00    -0.655 A  
HETATM   19  C   UNL     1     -13.144  14.320  71.369  1.00  0.00    -0.421 A  
HETATM   20  C   UNL     1     -12.446  14.077  70.188  1.00  0.00    -0.380 A  
HETATM   21  C   UNL     1     -12.089  12.767  69.830  1.00  0.00    -0.329 A  
ENDBRANCH   6   7
ENDBRANCH   5   6
ENDBRANCH   4   5
ENDBRANCH   2   4
TORSDOF 4
ENDMDL
MODEL       21
REMARK 921   NORMALIZED FREE ENERGY PREDICTED BY IDOCK:   -5.84 KCAL/MOL
REMARK 922        TOTAL FREE ENERGY PREDICTED BY IDOCK:   -7.65 KCAL/MOL
REMARK 923 INTER-LIGAND FREE ENERGY PREDICTED BY IDOCK:   -7.23 KCAL/MOL
REMARK 924 INTRA-LIGAND FREE ENERGY PREDICTED BY IDOCK:   -0.42 KCAL/MOL
REMARK 927      BINDING AFFINITY PREDICTED BY RF-SCORE:    0.00 PKD
ROOT
HETATM    1  C   UNL     1     -13.868  13.816  72.213  1.00  0.00    -0.580 C  
HETATM    2  N   UNL     1     -13.694  15.245  71.948  1.00  0.00    -0.452 NA 
HETATM    3  C   UNL     1     -13.273  15.929  73.172  1.00  0.00    -0.592 C  
ENDROOT
BRANCH   2   4
HETATM    4  C   UNL     1     -12.745  15.450  70.831  1.00  0.00    -0.461 C  
BRANCH   4   5
HETATM    5  C   UNL     1     -11.975  14.176  70.445  1.00  0.00    -0.400 C  
BRANCH   5   6
HETATM    6  C   UNL     1     -12.255  13.704  69.035  1.00  0.00    -0.245 C  
BRANCH   6   7
HETATM    7  C   UNL     1     -11.364  13.627  68.022  1.00  0.00    -0.316 A  
HETATM    8  C   UNL     1     -11.081  14.832  67.205  1.00  0.00    -0.334 A  
HETATM    9  C   UNL     1     -10.419  15.927  67.778  1.00  0.00    -0.287 A  
HETATM   10  C   UNL     1     -10.039  17.013  66.990  1.00  0.00    -0.295 A  
HETATM   11  C   UNL     1     -10.333  17.023  65.629  1.00  0.00    -0.226 A  
HETATM   12  C   UNL     1     -11.013  15.947  65.054  1.00  0.00    -0.426 A  
HETATM   13  C   UNL     1     -11.376  14.833  65.825  1.00  0.00    -0.336 A  
HETATM   14  C   UNL     1     -12.090  13.731  65.150  1.00  0.00    -0.416 A  
HETATM   15  C   UNL     1     -11.945  12.414  65.379  1.00  0.00    -0.457 A  
HETATM   16  C   UNL     1     -11.036  11.784  66.356  1.00  0.00    -0.360 A  
HETATM   17  C   UNL     1     -10.449  10.557  66.019  1.00  0.00    -0.226 A  
HETATM   18  C   UNL     1      -9.582   9.911  66.907  1.00  0.00    -0.225 A  
HETATM   19  C   UNL     1      -9.290  10.481  68.141  1.00  0.00    -0.150 A  
HETATM   20  C   UNL     1      -9.876  11.694  68.498  1.00  0.00    -0.196 A  
HETATM   21  C   UNL     1     -10.767  12.336  67.623  1.00  0.00    -0.250 A  
ENDBRANCH   6   7
ENDBRANCH   5   6
ENDBRANCH   4   5
ENDBRANCH   2   4
TORSDOF 4
ENDMDL
MODEL       22
REMARK 921   NORMALIZED FREE ENERGY PREDICTED BY IDOCK:   -5.83 KCAL/MOL
REMARK 922        TOTAL FREE ENERGY PREDICTED BY IDOCK:   -7.64 KCAL/MOL
REMARK 923 INTER-LIGAND FREE ENERGY PREDICTED BY IDOCK:   -7.06 KCAL/MOL
REMARK 924 INTRA-LIGAND FREE ENERGY PREDICTED BY IDOCK:   -0.58 KCAL/MOL
REMARK 927      BINDING AFFINITY PREDICTED BY RF-SCORE:    0.00 PKD
ROOT
HETATM    1  C   UNL     1     -12.912  15.218  70.797  1.00  0.00    -0.436 C  
HETATM    2  N   UNL     1     -12.531  13.950  71.421  1.00  0.00    -0.355 NA 
HETATM    3  C   UNL     1     -13.643  13.436  72.222  1.00  0.00    -0.605 C  
ENDROOT
BRANCH   2   4
HETATM    4  C   UNL     1     -12.079  12.986  70.395  1.00  0.00    -0.314 C  
BRANCH   4   5
HETATM    5  C   UNL     1     -11.709  13.648  69.057  1.00  0.00    -0.375 C  
BRANCH   5   6
HETATM    6  C   UNL     1     -10.836  12.783  68.174  1.00  0.00    -0.249 C  
BRANCH   6   7
HETATM    7  C   UNL     1     -10.199  13.172  67.048  1.00  0.00    -0.250 A  
HETATM    8  C   UNL     1      -9.376  14.406  67.062  1.00  0.00    -0.252 A  
HETATM    9  C   UNL     1      -8.193  14.451  67.812  1.00  0.00    -0.173 A  
HETATM   10  C   UNL     1      -7.351  15.559  67.737  1.00  0.00    -0.174 A  
HETATM   11  C   UNL     1      -7.691  16.638  66.924  1.00  0.00    -0.263 A  
HETATM   12  C   UNL     1      -8.879  16.612  66.190  1.00  0.00    -0.323 A  
HETATM   13  C   UNL     1      -9.723  15.493  66.232  1.00  0.00    -0.328 A  
HETATM   14  C   UNL     1     -10.961  15.533  65.428  1.00  0.00    -0.365 A  
HETATM   15  C   UNL     1     -11.524  14.513  64.759  1.00  0.00    -0.408 A  
HETATM   16  C   UNL     1     -11.024  13.127  64.682  1.00  0.00    -0.374 A  
HETATM   17  C   UNL     1     -11.207  12.421  63.485  1.00  0.00    -0.540 A  
HETATM   18  C   UNL     1     -10.757  11.104  63.354  1.00  0.00    -0.286 A  
HETATM   19  C   UNL     1     -10.118  10.473  64.417  1.00  0.00    -0.395 A  
HETATM   20  C   UNL     1      -9.941  11.154  65.618  1.00  0.00    -0.297 A  
HETATM   21  C   UNL     1     -10.412  12.468  65.766  1.00  0.00    -0.296 A  
ENDBRANCH   6   7
ENDBRANCH   5   6
ENDBRANCH   4   5
ENDBRANCH   2   4
TORSDOF 4
ENDMDL
MODEL       23
REMARK 921   NORMALIZED FREE ENERGY PREDICTED BY IDOCK:   -5.82 KCAL/MOL
REMARK 922        TOTAL FREE ENERGY PREDICTED BY IDOCK:   -7.63 KCAL/MOL
REMARK 923 INTER-LIGAND FREE ENERGY PREDICTED BY IDOCK:   -7.05 KCAL/MOL
REMARK 924 INTRA-LIGAND FREE ENERGY PREDICTED BY IDOCK:   -0.58 KCAL/MOL
REMARK 927      BINDING AFFINITY PREDICTED BY RF-SCORE:    0.00 PKD
ROOT
HETATM    1  C   UNL     1     -13.362  15.473  73.324  1.00  0.00    -0.474 C  
HETATM    2  N   UNL     1     -12.922  14.516  72.306  1.00  0.00    -0.340 NA 
HETATM    3  C   UNL     1     -13.776  13.327  72.341  1.00  0.00    -0.578 C  
ENDROOT
BRANCH   2   4
HETATM    4  C   UNL     1     -12.899  15.158  70.974  1.00  0.00    -0.412 C  
BRANCH   4   5
HETATM    5  C   UNL     1     -11.550  15.010  70.249  1.00  0.00    -0.329 C  
BRANCH   5   6
HETATM    6  C   UNL     1     -10.838  16.325  70.022  1.00  0.00    -0.329 C  
BRANCH   6   7
HETATM    7  C   UNL     1      -9.940  16.594  69.049  1.00  0.00    -0.280 A  
HETATM    8  C   UNL     1     -10.139  17.776  68.177  1.00  0.00    -0.362 A  
HETATM    9  C   UNL     1     -10.028  19.067  68.711  1.00  0.00    -0.475 A  
HETATM   10  C   UNL     1     -10.092  20.184  67.879  1.00  0.00    -0.533 A  
HETATM   11  C   UNL     1     -10.284  20.021  66.510  1.00  0.00    -0.598 A  
HETATM   12  C   UNL     1     -10.419  18.740  65.970  1.00  0.00    -0.483 A  
HETATM   13  C   UNL     1     -10.327  17.605  66.789  1.00  0.00    -0.331 A  
HETATM   14  C   UNL     1     -10.476  16.282  66.151  1.00  0.00    -0.330 A  
HETATM   15  C   UNL     1      -9.808  15.157  66.458  1.00  0.00    -0.278 A  
HETATM   16  C   UNL     1      -8.778  15.001  67.502  1.00  0.00    -0.194 A  
HETATM   17  C   UNL     1      -7.713  14.122  67.257  1.00  0.00    -0.132 A  
HETATM   18  C   UNL     1      -6.709  13.931  68.211  1.00  0.00    -0.109 A  
HETATM   19  C   UNL     1      -6.753  14.615  69.422  1.00  0.00    -0.147 A  
HETATM   20  C   UNL     1      -7.811  15.481  69.687  1.00  0.00    -0.128 A  
HETATM   21  C   UNL     1      -8.837  15.659  68.746  1.00  0.00    -0.208 A  
ENDBRANCH   6   7
ENDBRANCH   5   6
ENDBRANCH   4   5
ENDBRANCH   2   4
TORSDOF 4
ENDMDL
MODEL       24
REMARK 921   NORMALIZED FREE ENERGY PREDICTED BY IDOCK:   -5.76 KCAL/MOL
REMARK 922        TOTAL FREE ENERGY PREDICTED BY IDOCK:   -7.56 KCAL/MOL
REMARK 923 INTER-LIGAND FREE ENERGY PREDICTED BY IDOCK:   -6.69 KCAL/MOL
REMARK 924 INTRA-LIGAND FREE ENERGY PREDICTED BY IDOCK:   -0.86 KCAL/MOL
REMARK 927      BINDING AFFINITY PREDICTED BY RF-SCORE:    0.00 PKD
ROOT
HETATM    1  C   UNL     1      -6.869  10.999  66.428  1.00  0.00    -0.118 C  
HETATM    2  N   UNL     1      -8.128  11.268  67.125  1.00  0.00    -0.143 NA 
HETATM    3  C   UNL     1      -8.676  10.020  67.660  1.00  0.00    -0.121 C  
ENDROOT
BRANCH   2   4
HETATM    4  C   UNL     1      -7.927  12.293  68.172  1.00  0.00    -0.155 C  
BRANCH   4   5
HETATM    5  C   UNL     1      -7.830  13.723  67.615  1.00  0.00    -0.185 C  
BRANCH   5   6
HETATM    6  C   UNL     1      -8.815  14.685  68.241  1.00  0.00    -0.176 C  
BRANCH   6   7
HETATM    7  C   UNL     1     -10.162  14.594  68.203  1.00  0.00    -0.231 A  
HETATM    8  C   UNL     1     -10.934  14.624  69.469  1.00  0.00    -0.269 A  
HETATM    9  C   UNL     1     -10.981  15.799  70.232  1.00  0.00    -0.368 A  
HETATM   10  C   UNL     1     -11.800  15.877  71.358  1.00  0.00    -0.524 A  
HETATM   11  C   UNL     1     -12.565  14.778  71.740  1.00  0.00    -0.400 A  
HETATM   12  C   UNL     1     -12.507  13.595  70.999  1.00  0.00    -0.456 A  
HETATM   13  C   UNL     1     -11.712  13.509  69.847  1.00  0.00    -0.341 A  
HETATM   14  C   UNL     1     -11.702  12.230  69.111  1.00  0.00    -0.377 A  
HETATM   15  C   UNL     1     -11.650  12.064  67.778  1.00  0.00    -0.400 A  
HETATM   16  C   UNL     1     -11.595  13.130  66.759  1.00  0.00    -0.414 A  
HETATM   17  C   UNL     1     -12.257  12.918  65.542  1.00  0.00    -0.527 A  
HETATM   18  C   UNL     1     -12.236  13.891  64.537  1.00  0.00    -0.451 A  
HETATM   19  C   UNL     1     -11.556  15.088  64.735  1.00  0.00    -0.395 A  
HETATM   20  C   UNL     1     -10.881  15.309  65.933  1.00  0.00    -0.345 A  
HETATM   21  C   UNL     1     -10.876  14.327  66.937  1.00  0.00    -0.298 A  
ENDBRANCH   6   7
ENDBRANCH   5   6
ENDBRANCH   4   5
ENDBRANCH   2   4
TORSDOF 4
ENDMDL
MODEL       25
REMARK 921   NORMALIZED FREE ENERGY PREDICTED BY IDOCK:   -5.76 KCAL/MOL
REMARK 922        TOTAL FREE ENERGY PREDICTED BY IDOCK:   -7.55 KCAL/MOL
REMARK 923 INTER-LIGAND FREE ENERGY PREDICTED BY IDOCK:   -7.05 KCAL/MOL
REMARK 924 INTRA-LIGAND FREE ENERGY PREDICTED BY IDOCK:   -0.50 KCAL/MOL
REMARK 927      BINDING AFFINITY PREDICTED BY RF-SCORE:    0.00 PKD
ROOT
HETATM    1  C   UNL     1     -12.937   8.856  71.562  1.00  0.00    -0.332 C  
HETATM    2  N   UNL     1     -12.667  10.104  70.845  1.00  0.00    -0.353 NA 
HETATM    3  C   UNL     1     -13.157  11.241  71.625  1.00  0.00    -0.408 C  
ENDROOT
BRANCH   2   4
HETATM    4  C   UNL     1     -11.226  10.214  70.528  1.00  0.00    -0.336 C  
BRANCH   4   5
HETATM    5  C   UNL     1     -10.910   9.986  69.040  1.00  0.00    -0.253 C  
BRANCH   5   6
HETATM    6  C   UNL     1     -11.631  10.942  68.115  1.00  0.00    -0.317 C  
BRANCH   6   7
HETATM    7  C   UNL     1     -11.058  11.820  67.263  1.00  0.00    -0.342 A  
HETATM    8  C   UNL     1     -10.945  13.247  67.649  1.00  0.00    -0.281 A  
HETATM    9  C   UNL     1     -10.093  13.624  68.696  1.00  0.00    -0.182 A  
HETATM   10  C   UNL     1      -9.886  14.972  68.988  1.00  0.00    -0.236 A  
HETATM   11  C   UNL     1     -10.541  15.953  68.247  1.00  0.00    -0.276 A  
HETATM   12  C   UNL     1     -11.410  15.587  67.217  1.00  0.00    -0.167 A  
HETATM   13  C   UNL     1     -11.607  14.237  66.891  1.00  0.00    -0.405 A  
HETATM   14  C   UNL     1     -12.537  13.923  65.788  1.00  0.00    -0.533 A  
HETATM   15  C   UNL     1     -12.406  12.947  64.874  1.00  0.00    -0.532 A  
HETATM   16  C   UNL     1     -11.301  11.976  64.773  1.00  0.00    -0.369 A  
HETATM   17  C   UNL     1     -10.895  11.562  63.497  1.00  0.00    -0.473 A  
HETATM   18  C   UNL     1      -9.854  10.642  63.339  1.00  0.00    -0.376 A  
HETATM   19  C   UNL     1      -9.204  10.121  64.453  1.00  0.00    -0.306 A  
HETATM   20  C   UNL     1      -9.603  10.510  65.730  1.00  0.00    -0.260 A  
HETATM   21  C   UNL     1     -10.664  11.415  65.898  1.00  0.00    -0.311 A  
ENDBRANCH   6   7
ENDBRANCH   5   6
ENDBRANCH   4   5
ENDBRANCH   2   4
TORSDOF 4
ENDMDL
MODEL       26
REMARK 921   NORMALIZED FREE ENERGY PREDICTED BY IDOCK:   -5.74 KCAL/MOL
REMARK 922        TOTAL FREE ENERGY PREDICTED BY IDOCK:   -7.54 KCAL/MOL
REMARK 923 INTER-LIGAND FREE ENERGY PREDICTED BY IDOCK:   -6.97 KCAL/MOL
REMARK 924 INTRA-LIGAND FREE ENERGY PREDICTED BY IDOCK:   -0.57 KCAL/MOL
REMARK 927      BINDING AFFINITY PREDICTED BY RF-SCORE:    0.00 PKD
ROOT
HETATM    1  C   UNL     1     -10.469   8.234  67.503  1.00  0.00    -0.255 C  
HETATM    2  N   UNL     1     -10.375   8.403  68.954  1.00  0.00    -0.218 NA 
HETATM    3  C   UNL     1     -10.313   7.093  69.604  1.00  0.00    -0.215 C  
ENDROOT
BRANCH   2   4
HETATM    4  C   UNL     1      -9.219   9.261  69.298  1.00  0.00    -0.152 C  
BRANCH   4   5
HETATM    5  C   UNL     1      -9.007  10.421  68.311  1.00  0.00    -0.135 C  
BRANCH   5   6
HETATM    6  C   UNL     1      -9.553  11.743  68.803  1.00  0.00    -0.053 C  
BRANCH   6   7
HETATM    7  C   UNL     1     -10.824  12.183  68.679  1.00  0.00    -0.268 A  
HETATM    8  C   UNL     1     -11.299  12.684  67.367  1.00  0.00    -0.367 A  
HETATM    9  C   UNL     1     -11.442  11.799  66.289  1.00  0.00    -0.296 A  
HETATM   10  C   UNL     1     -12.003  12.234  65.088  1.00  0.00    -0.395 A  
HETATM   11  C   UNL     1     -12.409  13.558  64.949  1.00  0.00    -0.447 A  
HETATM   12  C   UNL     1     -12.249  14.453  66.009  1.00  0.00    -0.352 A  
HETATM   13  C   UNL     1     -11.715  14.026  67.234  1.00  0.00    -0.420 A  
HETATM   14  C   UNL     1     -11.579  15.025  68.312  1.00  0.00    -0.355 A  
HETATM   15  C   UNL     1     -11.774  14.827  69.627  1.00  0.00    -0.354 A  
HETATM   16  C   UNL     1     -12.170  13.565  70.279  1.00  0.00    -0.417 A  
HETATM   17  C   UNL     1     -13.010  13.631  71.399  1.00  0.00    -0.427 A  
HETATM   18  C   UNL     1     -13.416  12.468  72.060  1.00  0.00    -0.486 A  
HETATM   19  C   UNL     1     -12.990  11.222  71.612  1.00  0.00    -0.537 A  
HETATM   20  C   UNL     1     -12.144  11.138  70.508  1.00  0.00    -0.474 A  
HETATM   21  C   UNL     1     -11.711  12.302  69.854  1.00  0.00    -0.346 A  
ENDBRANCH   6   7
ENDBRANCH   5   6
ENDBRANCH   4   5
ENDBRANCH   2   4
TORSDOF 4
ENDMDL
MODEL       27
REMARK 921   NORMALIZED FREE ENERGY PREDICTED BY IDOCK:   -5.73 KCAL/MOL
REMARK 922        TOTAL FREE ENERGY PREDICTED BY IDOCK:   -7.52 KCAL/MOL
REMARK 923 INTER-LIGAND FREE ENERGY PREDICTED BY IDOCK:   -7.07 KCAL/MOL
REMARK 924 INTRA-LIGAND FREE ENERGY PREDICTED BY IDOCK:   -0.46 KCAL/MOL
REMARK 927      BINDING AFFINITY PREDICTED BY RF-SCORE:    0.00 PKD
ROOT
HETATM    1  C   UNL     1     -13.020  10.366  71.083  1.00  0.00    -0.412 C  
HETATM    2  N   UNL     1     -11.571  10.455  70.896  1.00  0.00    -0.350 NA 
HETATM    3  C   UNL     1     -10.925   9.263  71.447  1.00  0.00    -0.359 C  
ENDROOT
BRANCH   2   4
HETATM    4  C   UNL     1     -11.249  10.665  69.468  1.00  0.00    -0.272 C  
BRANCH   4   5
HETATM    5  C   UNL     1     -11.320  12.140  69.037  1.00  0.00    -0.329 C  
BRANCH   5   6
HETATM    6  C   UNL     1     -11.772  12.332  67.606  1.00  0.00    -0.403 C  
BRANCH   6   7
HETATM    7  C   UNL     1     -11.009  12.749  66.573  1.00  0.00    -0.291 A  
HETATM    8  C   UNL     1     -10.853  14.202  66.319  1.00  0.00    -0.300 A  
HETATM    9  C   UNL     1     -10.150  15.001  67.231  1.00  0.00    -0.235 A  
HETATM   10  C   UNL     1      -9.892  16.341  66.944  1.00  0.00    -0.253 A  
HETATM   11  C   UNL     1     -10.348  16.897  65.752  1.00  0.00    -0.298 A  
HETATM   12  C   UNL     1     -11.069  16.116  64.847  1.00  0.00    -0.336 A  
HETATM   13  C   UNL     1     -11.312  14.759  65.106  1.00  0.00    -0.379 A  
HETATM   14  C   UNL     1     -12.078  13.992  64.104  1.00  0.00    -0.456 A  
HETATM   15  C   UNL     1     -11.878  12.714  63.738  1.00  0.00    -0.574 A  
HETATM   16  C   UNL     1     -10.845  11.799  64.259  1.00  0.00    -0.404 A  
HETATM   17  C   UNL     1     -10.275  10.870  63.378  1.00  0.00    -0.356 A  
HETATM   18  C   UNL     1      -9.294   9.976  63.816  1.00  0.00    -0.307 A  
HETATM   19  C   UNL     1      -8.867   9.997  65.140  1.00  0.00    -0.207 A  
HETATM   20  C   UNL     1      -9.432  10.904  66.033  1.00  0.00    -0.235 A  
HETATM   21  C   UNL     1     -10.436  11.789  65.607  1.00  0.00    -0.308 A  
ENDBRANCH   6   7
ENDBRANCH   5   6
ENDBRANCH   4   5
ENDBRANCH   2   4
TORSDOF 4
ENDMDL
MODEL       28
REMARK 921   NORMALIZED FREE ENERGY PREDICTED BY IDOCK:   -5.68 KCAL/MOL
REMARK 922        TOTAL FREE ENERGY PREDICTED BY IDOCK:   -7.46 KCAL/MOL
REMARK 923 INTER-LIGAND FREE ENERGY PREDICTED BY IDOCK:   -6.75 KCAL/MOL
REMARK 924 INTRA-LIGAND FREE ENERGY PREDICTED BY IDOCK:   -0.70 KCAL/MOL
REMARK 927      BINDING AFFINITY PREDICTED BY RF-SCORE:    0.00 PKD
ROOT
HETATM    1  C   UNL     1     -11.183   9.486  71.140  1.00  0.00    -0.376 C  
HETATM    2  N   UNL     1     -12.229  10.294  70.511  1.00  0.00    -0.299 NA 
HETATM    3  C   UNL     1     -12.953  11.052  71.532  1.00  0.00    -0.448 C  
ENDROOT
BRANCH   2   4
HETATM    4  C   UNL     1     -11.648  11.165  69.466  1.00  0.00    -0.321 C  
BRANCH   4   5
HETATM    5  C   UNL     1     -11.820  12.665  69.757  1.00  0.00    -0.379 C  
BRANCH   5   6
HETATM    6  C   UNL     1     -12.262  13.468  68.554  1.00  0.00    -0.160 C  
BRANCH   6   7
HETATM    7  C   UNL     1     -11.467  13.947  67.572  1.00  0.00    -0.368 A  
HETATM    8  C   UNL     1     -11.419  13.247  66.265  1.00  0.00    -0.358 A  
HETATM    9  C   UNL     1     -12.544  13.247  65.429  1.00  0.00    -0.526 A  
HETATM   10  C   UNL     1     -12.472  12.698  64.149  1.00  0.00    -0.488 A  
HETATM   11  C   UNL     1     -11.282  12.133  63.700  1.00  0.00    -0.540 A  
HETATM   12  C   UNL     1     -10.162  12.108  64.533  1.00  0.00    -0.321 A  
HETATM   13  C   UNL     1     -10.208  12.681  65.813  1.00  0.00    -0.288 A  
HETATM   14  C   UNL     1      -8.986  12.622  66.639  1.00  0.00    -0.164 A  
HETATM   15  C   UNL     1      -8.528  13.570  67.473  1.00  0.00    -0.192 A  
HETATM   16  C   UNL     1      -9.148  14.881  67.744  1.00  0.00    -0.185 A  
HETATM   17  C   UNL     1      -8.307  15.977  67.982  1.00  0.00    -0.162 A  
HETATM   18  C   UNL     1      -8.838  17.243  68.248  1.00  0.00    -0.258 A  
HETATM   19  C   UNL     1     -10.216  17.432  68.278  1.00  0.00    -0.362 A  
HETATM   20  C   UNL     1     -11.067  16.352  68.057  1.00  0.00    -0.292 A  
HETATM   21  C   UNL     1     -10.542  15.072  67.815  1.00  0.00    -0.264 A  
ENDBRANCH   6   7
ENDBRANCH   5   6
ENDBRANCH   4   5
ENDBRANCH   2   4
TORSDOF 4
ENDMDL
MODEL       29
REMARK 921   NORMALIZED FREE ENERGY PREDICTED BY IDOCK:   -5.65 KCAL/MOL
REMARK 922        TOTAL FREE ENERGY PREDICTED BY IDOCK:   -7.43 KCAL/MOL
REMARK 923 INTER-LIGAND FREE ENERGY PREDICTED BY IDOCK:   -6.80 KCAL/MOL
REMARK 924 INTRA-LIGAND FREE ENERGY PREDICTED BY IDOCK:   -0.63 KCAL/MOL
REMARK 927      BINDING AFFINITY PREDICTED BY RF-SCORE:    0.00 PKD
ROOT
HETATM    1  C   UNL     1      -9.003  18.176  68.023  1.00  0.00    -0.283 C  
HETATM    2  N   UNL     1      -8.676  17.722  66.670  1.00  0.00    -0.253 NA 
HETATM    3  C   UNL     1      -7.236  17.484  66.560  1.00  0.00    -0.263 C  
ENDROOT
BRANCH   2   4
HETATM    4  C   UNL     1      -9.475  16.527  66.321  1.00  0.00    -0.310 C  
BRANCH   4   5
HETATM    5  C   UNL     1      -9.026  15.256  67.062  1.00  0.00    -0.254 C  
BRANCH   5   6
HETATM    6  C   UNL     1     -10.102  14.655  67.940  1.00  0.00    -0.225 C  
BRANCH   6   7
HETATM    7  C   UNL     1     -10.850  13.565  67.661  1.00  0.00    -0.273 A  
HETATM    8  C   UNL     1     -11.175  12.606  68.744  1.00  0.00    -0.325 A  
HETATM    9  C   UNL     1     -12.028  12.990  69.788  1.00  0.00    -0.377 A  
HETATM   10  C   UNL     1     -12.437  12.061  70.744  1.00  0.00    -0.372 A  
HETATM   11  C   UNL     1     -11.987  10.746  70.674  1.00  0.00    -0.466 A  
HETATM   12  C   UNL     1     -11.119  10.358  69.650  1.00  0.00    -0.328 A  
HETATM   13  C   UNL     1     -10.720  11.272  68.664  1.00  0.00    -0.241 A  
HETATM   14  C   UNL     1      -9.804  10.793  67.610  1.00  0.00    -0.193 A  
HETATM   15  C   UNL     1      -9.817  11.136  66.311  1.00  0.00    -0.253 A  
HETATM   16  C   UNL     1     -10.754  12.067  65.654  1.00  0.00    -0.313 A  
HETATM   17  C   UNL     1     -11.146  11.795  64.336  1.00  0.00    -0.396 A  
HETATM   18  C   UNL     1     -12.029  12.644  63.662  1.00  0.00    -0.615 A  
HETATM   19  C   UNL     1     -12.532  13.776  64.294  1.00  0.00    -0.308 A  
HETATM   20  C   UNL     1     -12.142  14.070  65.598  1.00  0.00    -0.432 A  
HETATM   21  C   UNL     1     -11.237  13.237  66.274  1.00  0.00    -0.321 A  
ENDBRANCH   6   7
ENDBRANCH   5   6
ENDBRANCH   4   5
ENDBRANCH   2   4
TORSDOF 4
ENDMDL
MODEL       30
REMARK 921   NORMALIZED FREE ENERGY PREDICTED BY IDOCK:   -5.65 KCAL/MOL
REMARK 922        TOTAL FREE ENERGY PREDICTED BY IDOCK:   -7.42 KCAL/MOL
REMARK 923 INTER-LIGAND FREE ENERGY PREDICTED BY IDOCK:   -6.99 KCAL/MOL
REMARK 924 INTRA-LIGAND FREE ENERGY PREDICTED BY IDOCK:   -0.44 KCAL/MOL
REMARK 927      BINDING AFFINITY PREDICTED BY RF-SCORE:    0.00 PKD
ROOT
HETATM    1  C   UNL     1     -13.664  13.337  72.278  1.00  0.00    -0.589 C  
HETATM    2  N   UNL     1     -13.723  14.795  72.395  1.00  0.00    -0.436 NA 
HETATM    3  C   UNL     1     -12.890  15.237  73.514  1.00  0.00    -0.550 C  
ENDROOT
BRANCH   2   4
HETATM    4  C   UNL     1     -13.337  15.430  71.116  1.00  0.00    -0.508 C  
BRANCH   4   5
HETATM    5  C   UNL     1     -12.074  14.817  70.489  1.00  0.00    -0.378 C  
BRANCH   5   6
HETATM    6  C   UNL     1     -11.990  15.007  68.990  1.00  0.00    -0.298 C  
BRANCH   6   7
HETATM    7  C   UNL     1     -10.961  14.646  68.192  1.00  0.00    -0.269 A  
HETATM    8  C   UNL     1      -9.943  15.655  67.810  1.00  0.00    -0.223 A  
HETATM    9  C   UNL     1      -9.078  16.178  68.781  1.00  0.00    -0.229 A  
HETATM   10  C   UNL     1      -8.039  17.034  68.413  1.00  0.00    -0.245 A  
HETATM   11  C   UNL     1      -7.868  17.385  67.077  1.00  0.00    -0.238 A  
HETATM   12  C   UNL     1      -8.739  16.887  66.106  1.00  0.00    -0.280 A  
HETATM   13  C   UNL     1      -9.770  16.003  66.454  1.00  0.00    -0.307 A  
HETATM   14  C   UNL     1     -10.651  15.513  65.375  1.00  0.00    -0.428 A  
HETATM   15  C   UNL     1     -11.177  14.282  65.257  1.00  0.00    -0.337 A  
HETATM   16  C   UNL     1     -10.984  13.149  66.182  1.00  0.00    -0.299 A  
HETATM   17  C   UNL     1     -10.924  11.856  65.644  1.00  0.00    -0.353 A  
HETATM   18  C   UNL     1     -10.746  10.743  66.473  1.00  0.00    -0.245 A  
HETATM   19  C   UNL     1     -10.626  10.906  67.849  1.00  0.00    -0.246 A  
HETATM   20  C   UNL     1     -10.698  12.183  68.402  1.00  0.00    -0.252 A  
HETATM   21  C   UNL     1     -10.901  13.303  67.580  1.00  0.00    -0.276 A  
ENDBRANCH   6   7
ENDBRANCH   5   6
ENDBRANCH   4   5
ENDBRANCH   2   4
TORSDOF 4
ENDMDL
MODEL       31
REMARK 921   NORMALIZED FREE ENERGY PREDICTED BY IDOCK:   -5.60 KCAL/MOL
REMARK 922        TOTAL FREE ENERGY PREDICTED BY IDOCK:   -7.36 KCAL/MOL
REMARK 923 INTER-LIGAND FREE ENERGY PREDICTED BY IDOCK:   -6.72 KCAL/MOL
REMARK 924 INTRA-LIGAND FREE ENERGY PREDICTED BY IDOCK:   -0.65 KCAL/MOL
REMARK 927      BINDING AFFINITY PREDICTED BY RF-SCORE:    0.00 PKD
ROOT
HETATM    1  C   UNL     1     -10.096   7.011  73.832  1.00  0.00    -0.348 C  
HETATM    2  N   UNL     1      -9.213   6.346  72.872  1.00  0.00    -0.137 NA 
HETATM    3  C   UNL     1      -9.937   5.270  72.194  1.00  0.00    -0.184 C  
ENDROOT
BRANCH   2   4
HETATM    4  C   UNL     1      -8.647   7.332  71.925  1.00  0.00    -0.114 C  
BRANCH   4   5
HETATM    5  C   UNL     1      -9.278   8.729  72.050  1.00  0.00    -0.294 C  
BRANCH   5   6
HETATM    6  C   UNL     1      -9.626   9.357  70.719  1.00  0.00    -0.322 C  
BRANCH   6   7
HETATM    7  C   UNL     1     -10.867   9.633  70.261  1.00  0.00    -0.339 A  
HETATM    8  C   UNL     1     -11.041  10.624  69.172  1.00  0.00    -0.309 A  
HETATM    9  C   UNL     1     -10.571  10.337  67.883  1.00  0.00    -0.282 A  
HETATM   10  C   UNL     1     -10.836  11.207  66.825  1.00  0.00    -0.322 A  
HETATM   11  C   UNL     1     -11.558  12.376  67.049  1.00  0.00    -0.434 A  
HETATM   12  C   UNL     1     -12.011  12.682  68.334  1.00  0.00    -0.268 A  
HETATM   13  C   UNL     1     -11.779  11.804  69.404  1.00  0.00    -0.405 A  
HETATM   14  C   UNL     1     -12.290  12.190  70.735  1.00  0.00    -0.391 A  
HETATM   15  C   UNL     1     -12.812  11.375  71.667  1.00  0.00    -0.497 A  
HETATM   16  C   UNL     1     -12.992   9.915  71.560  1.00  0.00    -0.523 A  
HETATM   17  C   UNL     1     -14.116   9.338  72.168  1.00  0.00    -0.354 A  
HETATM   18  C   UNL     1     -14.337   7.959  72.103  1.00  0.00    -0.417 A  
HETATM   19  C   UNL     1     -13.439   7.136  71.430  1.00  0.00    -0.374 A  
HETATM   20  C   UNL     1     -12.309   7.690  70.833  1.00  0.00    -0.156 A  
HETATM   21  C   UNL     1     -12.067   9.071  70.915  1.00  0.00    -0.247 A  
ENDBRANCH   6   7
ENDBRANCH   5   6
ENDBRANCH   4   5
ENDBRANCH   2   4
TORSDOF 4
ENDMDL
MODEL       32
REMARK 921   NORMALIZED FREE ENERGY PREDICTED BY IDOCK:   -5.60 KCAL/MOL
REMARK 922        TOTAL FREE ENERGY PREDICTED BY IDOCK:   -7.36 KCAL/MOL
REMARK 923 INTER-LIGAND FREE ENERGY PREDICTED BY IDOCK:   -6.73 KCAL/MOL
REMARK 924 INTRA-LIGAND FREE ENERGY PREDICTED BY IDOCK:   -0.63 KCAL/MOL
REMARK 927      BINDING AFFINITY PREDICTED BY RF-SCORE:    0.00 PKD
ROOT
HETATM    1  C   UNL     1      -9.392  11.089  65.260  1.00  0.00    -0.216 C  
HETATM    2  N   UNL     1      -9.918   9.856  65.846  1.00  0.00    -0.278 NA 
HETATM    3  C   UNL     1      -8.835   8.887  66.021  1.00  0.00    -0.172 C  
ENDROOT
BRANCH   2   4
HETATM    4  C   UNL     1     -10.626  10.149  67.112  1.00  0.00    -0.246 C  
BRANCH   4   5
HETATM    5  C   UNL     1      -9.987  11.294  67.916  1.00  0.00    -0.189 C  
BRANCH   5   6
HETATM    6  C   UNL     1     -10.967  12.034  68.800  1.00  0.00    -0.282 C  
BRANCH   6   7
HETATM    7  C   UNL     1     -11.406  13.300  68.627  1.00  0.00    -0.324 A  
HETATM    8  C   UNL     1     -11.383  13.903  67.273  1.00  0.00    -0.344 A  
HETATM    9  C   UNL     1     -12.234  13.414  66.273  1.00  0.00    -0.456 A  
HETATM   10  C   UNL     1     -12.309  14.051  65.034  1.00  0.00    -0.458 A  
HETATM   11  C   UNL     1     -11.522  15.171  64.780  1.00  0.00    -0.383 A  
HETATM   12  C   UNL     1     -10.654  15.653  65.761  1.00  0.00    -0.374 A  
HETATM   13  C   UNL     1     -10.588  15.042  67.022  1.00  0.00    -0.293 A  
HETATM   14  C   UNL     1      -9.650  15.607  68.013  1.00  0.00    -0.203 A  
HETATM   15  C   UNL     1      -9.844  15.718  69.338  1.00  0.00    -0.286 A  
HETATM   16  C   UNL     1     -11.042  15.301  70.091  1.00  0.00    -0.312 A  
HETATM   17  C   UNL     1     -11.434  16.072  71.194  1.00  0.00    -0.470 A  
HETATM   18  C   UNL     1     -12.559  15.723  71.948  1.00  0.00    -0.522 A  
HETATM   19  C   UNL     1     -13.308  14.600  71.611  1.00  0.00    -0.435 A  
HETATM   20  C   UNL     1     -12.925  13.815  70.527  1.00  0.00    -0.120 A  
HETATM   21  C   UNL     1     -11.782  14.144  69.780  1.00  0.00    -0.370 A  
ENDBRANCH   6   7
ENDBRANCH   5   6
ENDBRANCH   4   5
ENDBRANCH   2   4
TORSDOF 4
ENDMDL
MODEL       33
REMARK 921   NORMALIZED FREE ENERGY PREDICTED BY IDOCK:   -5.51 KCAL/MOL
REMARK 922        TOTAL FREE ENERGY PREDICTED BY IDOCK:   -7.25 KCAL/MOL
REMARK 923 INTER-LIGAND FREE ENERGY PREDICTED BY IDOCK:   -6.55 KCAL/MOL
REMARK 924 INTRA-LIGAND FREE ENERGY PREDICTED BY IDOCK:   -0.70 KCAL/MOL
REMARK 927      BINDING AFFINITY PREDICTED BY RF-SCORE:    0.00 PKD
ROOT
HETATM    1  C   UNL     1     -12.831  10.284  71.709  1.00  0.00    -0.460 C  
HETATM    2  N   UNL     1     -11.553  10.202  70.999  1.00  0.00    -0.372 NA 
HETATM    3  C   UNL     1     -11.242   8.804  70.695  1.00  0.00    -0.257 C  
ENDROOT
BRANCH   2   4
HETATM    4  C   UNL     1     -11.580  11.053  69.789  1.00  0.00    -0.325 C  
BRANCH   4   5
HETATM    5  C   UNL     1     -10.970  10.373  68.552  1.00  0.00    -0.302 C  
BRANCH   5   6
HETATM    6  C   UNL     1      -9.790  11.120  67.971  1.00  0.00    -0.185 C  
BRANCH   6   7
HETATM    7  C   UNL     1      -9.843  12.171  67.125  1.00  0.00    -0.205 A  
HETATM    8  C   UNL     1      -9.151  13.433  67.482  1.00  0.00    -0.215 A  
HETATM    9  C   UNL     1      -7.750  13.474  67.532  1.00  0.00    -0.182 A  
HETATM   10  C   UNL     1      -7.087  14.682  67.746  1.00  0.00    -0.193 A  
HETATM   11  C   UNL     1      -7.816  15.853  67.929  1.00  0.00    -0.148 A  
HETATM   12  C   UNL     1      -9.212  15.819  67.903  1.00  0.00    -0.191 A  
HETATM   13  C   UNL     1      -9.895  14.619  67.660  1.00  0.00    -0.218 A  
HETATM   14  C   UNL     1     -11.371  14.657  67.643  1.00  0.00    -0.350 A  
HETATM   15  C   UNL     1     -12.188  13.962  66.834  1.00  0.00    -0.415 A  
HETATM   16  C   UNL     1     -11.786  13.009  65.782  1.00  0.00    -0.453 A  
HETATM   17  C   UNL     1     -12.561  12.942  64.616  1.00  0.00    -0.459 A  
HETATM   18  C   UNL     1     -12.231  12.055  63.587  1.00  0.00    -0.642 A  
HETATM   19  C   UNL     1     -11.122  11.224  63.707  1.00  0.00    -0.313 A  
HETATM   20  C   UNL     1     -10.348  11.268  64.864  1.00  0.00    -0.362 A  
HETATM   21  C   UNL     1     -10.688  12.137  65.913  1.00  0.00    -0.302 A  
ENDBRANCH   6   7
ENDBRANCH   5   6
ENDBRANCH   4   5
ENDBRANCH   2   4
TORSDOF 4
ENDMDL
MODEL       34
REMARK 921   NORMALIZED FREE ENERGY PREDICTED BY IDOCK:   -5.38 KCAL/MOL
REMARK 922        TOTAL FREE ENERGY PREDICTED BY IDOCK:   -7.09 KCAL/MOL
REMARK 923 INTER-LIGAND FREE ENERGY PREDICTED BY IDOCK:   -6.50 KCAL/MOL
REMARK 924 INTRA-LIGAND FREE ENERGY PREDICTED BY IDOCK:   -0.58 KCAL/MOL
REMARK 927      BINDING AFFINITY PREDICTED BY RF-SCORE:    0.00 PKD
ROOT
HETATM    1  C   UNL     1      -9.772   8.883  66.109  1.00  0.00    -0.268 C  
HETATM    2  N   UNL     1      -8.484   9.559  65.941  1.00  0.00    -0.122 NA 
HETATM    3  C   UNL     1      -8.541  10.454  64.784  1.00  0.00    -0.182 C  
ENDROOT
BRANCH   2   4
HETATM    4  C   UNL     1      -8.109  10.266  67.185  1.00  0.00    -0.121 C  
BRANCH   4   5
HETATM    5  C   UNL     1      -9.317  10.805  67.969  1.00  0.00    -0.152 C  
BRANCH   5   6
HETATM    6  C   UNL     1      -9.465  12.309  67.895  1.00  0.00    -0.200 C  
BRANCH   6   7
HETATM    7  C   UNL     1     -10.616  12.995  67.728  1.00  0.00    -0.235 A  
HETATM    8  C   UNL     1     -11.136  13.229  66.359  1.00  0.00    -0.313 A  
HETATM    9  C   UNL     1     -11.604  12.152  65.594  1.00  0.00    -0.409 A  
HETATM   10  C   UNL     1     -12.206  12.374  64.356  1.00  0.00    -0.519 A  
HETATM   11  C   UNL     1     -12.331  13.670  63.866  1.00  0.00    -0.375 A  
HETATM   12  C   UNL     1     -11.848  14.749  64.610  1.00  0.00    -0.442 A  
HETATM   13  C   UNL     1     -11.266  14.546  65.870  1.00  0.00    -0.331 A  
HETATM   14  C   UNL     1     -10.779  15.732  66.603  1.00  0.00    -0.287 A  
HETATM   15  C   UNL     1     -10.843  15.945  67.928  1.00  0.00    -0.327 A  
HETATM   16  C   UNL     1     -11.415  15.038  68.940  1.00  0.00    -0.333 A  
HETATM   17  C   UNL     1     -12.070  15.603  70.044  1.00  0.00    -0.379 A  
HETATM   18  C   UNL     1     -12.630  14.793  71.036  1.00  0.00    -0.401 A  
HETATM   19  C   UNL     1     -12.544  13.408  70.942  1.00  0.00    -0.406 A  
HETATM   20  C   UNL     1     -11.885  12.829  69.860  1.00  0.00    -0.371 A  
HETATM   21  C   UNL     1     -11.298  13.636  68.871  1.00  0.00    -0.332 A  
ENDBRANCH   6   7
ENDBRANCH   5   6
ENDBRANCH   4   5
ENDBRANCH   2   4
TORSDOF 4
ENDMDL
MODEL       35
REMARK 921   NORMALIZED FREE ENERGY PREDICTED BY IDOCK:   -5.37 KCAL/MOL
REMARK 922        TOTAL FREE ENERGY PREDICTED BY IDOCK:   -7.07 KCAL/MOL
REMARK 923 INTER-LIGAND FREE ENERGY PREDICTED BY IDOCK:   -6.42 KCAL/MOL
REMARK 924 INTRA-LIGAND FREE ENERGY PREDICTED BY IDOCK:   -0.66 KCAL/MOL
REMARK 927      BINDING AFFINITY PREDICTED BY RF-SCORE:    0.00 PKD
ROOT
HETATM    1  C   UNL     1      -7.353  18.596  66.608  1.00  0.00    -0.229 C  
HETATM    2  N   UNL     1      -8.121  18.526  67.851  1.00  0.00    -0.252 NA 
HETATM    3  C   UNL     1      -7.523  19.406  68.856  1.00  0.00    -0.364 C  
ENDROOT
BRANCH   2   4
HETATM    4  C   UNL     1      -9.543  18.843  67.596  1.00  0.00    -0.308 C  
BRANCH   4   5
HETATM    5  C   UNL     1     -10.472  17.623  67.715  1.00  0.00    -0.379 C  
BRANCH   5   6
HETATM    6  C   UNL     1     -10.723  17.191  69.143  1.00  0.00    -0.184 C  
BRANCH   6   7
HETATM    7  C   UNL     1     -10.534  15.955  69.654  1.00  0.00    -0.295 A  
HETATM    8  C   UNL     1      -9.434  15.109  69.131  1.00  0.00    -0.221 A  
HETATM    9  C   UNL     1      -8.100  15.469  69.367  1.00  0.00    -0.241 A  
HETATM   10  C   UNL     1      -7.061  14.620  68.987  1.00  0.00    -0.128 A  
HETATM   11  C   UNL     1      -7.345  13.413  68.355  1.00  0.00    -0.112 A  
HETATM   12  C   UNL     1      -8.670  13.055  68.095  1.00  0.00    -0.190 A  
HETATM   13  C   UNL     1      -9.728  13.883  68.496  1.00  0.00    -0.202 A  
HETATM   14  C   UNL     1     -11.103  13.441  68.192  1.00  0.00    -0.284 A  
HETATM   15  C   UNL     1     -12.192  13.595  68.965  1.00  0.00    -0.245 A  
HETATM   16  C   UNL     1     -12.248  14.240  70.290  1.00  0.00    -0.407 A  
HETATM   17  C   UNL     1     -13.136  13.723  71.243  1.00  0.00    -0.370 A  
HETATM   18  C   UNL     1     -13.235  14.296  72.515  1.00  0.00    -0.581 A  
HETATM   19  C   UNL     1     -12.448  15.392  72.853  1.00  0.00    -0.523 A  
HETATM   20  C   UNL     1     -11.570  15.928  71.914  1.00  0.00    -0.542 A  
HETATM   21  C   UNL     1     -11.483  15.375  70.626  1.00  0.00    -0.361 A  
ENDBRANCH   6   7
ENDBRANCH   5   6
ENDBRANCH   4   5
ENDBRANCH   2   4
TORSDOF 4
ENDMDL
MODEL       36
REMARK 921   NORMALIZED FREE ENERGY PREDICTED BY IDOCK:   -5.36 KCAL/MOL
REMARK 922        TOTAL FREE ENERGY PREDICTED BY IDOCK:   -7.07 KCAL/MOL
REMARK 923 INTER-LIGAND FREE ENERGY PREDICTED BY IDOCK:   -6.65 KCAL/MOL
REMARK 924 INTRA-LIGAND FREE ENERGY PREDICTED BY IDOCK:   -0.42 KCAL/MOL
REMARK 927      BINDING AFFINITY PREDICTED BY RF-SCORE:    0.00 PKD
ROOT
HETATM    1  C   UNL     1     -13.521  12.947  72.212  1.00  0.00    -0.531 C  
HETATM    2  N   UNL     1     -13.487  14.017  71.214  1.00  0.00    -0.285 NA 
HETATM    3  C   UNL     1     -14.071  15.237  71.773  1.00  0.00    -0.555 C  
ENDROOT
BRANCH   2   4
HETATM    4  C   UNL     1     -12.105  14.222  70.727  1.00  0.00    -0.348 C  
BRANCH   4   5
HETATM    5  C   UNL     1     -12.007  14.324  69.195  1.00  0.00    -0.372 C  
BRANCH   5   6
HETATM    6  C   UNL     1     -11.395  13.103  68.546  1.00  0.00    -0.321 C  
BRANCH   6   7
HETATM    7  C   UNL     1     -10.595  13.088  67.457  1.00  0.00    -0.237 A  
HETATM    8  C   UNL     1     -11.200  13.030  66.105  1.00  0.00    -0.320 A  
HETATM    9  C   UNL     1     -11.934  14.121  65.618  1.00  0.00    -0.401 A  
HETATM   10  C   UNL     1     -12.403  14.126  64.305  1.00  0.00    -0.398 A  
HETATM   11  C   UNL     1     -12.158  13.037  63.474  1.00  0.00    -0.617 A  
HETATM   12  C   UNL     1     -11.448  11.936  63.956  1.00  0.00    -0.480 A  
HETATM   13  C   UNL     1     -10.943  11.926  65.265  1.00  0.00    -0.354 A  
HETATM   14  C   UNL     1     -10.199  10.730  65.707  1.00  0.00    -0.319 A  
HETATM   15  C   UNL     1      -9.118  10.700  66.505  1.00  0.00    -0.179 A  
HETATM   16  C   UNL     1      -8.438  11.860  67.112  1.00  0.00    -0.173 A  
HETATM   17  C   UNL     1      -7.044  11.810  67.257  1.00  0.00    -0.140 A  
HETATM   18  C   UNL     1      -6.346  12.879  67.828  1.00  0.00    -0.144 A  
HETATM   19  C   UNL     1      -7.028  14.011  68.261  1.00  0.00    -0.107 A  
HETATM   20  C   UNL     1      -8.414  14.071  68.137  1.00  0.00    -0.172 A  
HETATM   21  C   UNL     1      -9.126  12.992  67.588  1.00  0.00    -0.198 A  
ENDBRANCH   6   7
ENDBRANCH   5   6
ENDBRANCH   4   5
ENDBRANCH   2   4
TORSDOF 4
ENDMDL
MODEL       37
REMARK 921   NORMALIZED FREE ENERGY PREDICTED BY IDOCK:   -5.34 KCAL/MOL
REMARK 922        TOTAL FREE ENERGY PREDICTED BY IDOCK:   -7.04 KCAL/MOL
REMARK 923 INTER-LIGAND FREE ENERGY PREDICTED BY IDOCK:   -6.48 KCAL/MOL
REMARK 924 INTRA-LIGAND FREE ENERGY PREDICTED BY IDOCK:   -0.56 KCAL/MOL
REMARK 927      BINDING AFFINITY PREDICTED BY RF-SCORE:    0.00 PKD
ROOT
HETATM    1  C   UNL     1      -7.540   9.473  70.505  1.00  0.00    -0.149 C  
HETATM    2  N   UNL     1      -6.895  10.767  70.276  1.00  0.00    -0.256 NA 
HETATM    3  C   UNL     1      -5.527  10.739  70.797  1.00  0.00    -0.112 C  
ENDROOT
BRANCH   2   4
HETATM    4  C   UNL     1      -6.947  11.121  68.841  1.00  0.00    -0.095 C  
BRANCH   4   5
HETATM    5  C   UNL     1      -7.953  12.241  68.526  1.00  0.00    -0.107 C  
BRANCH   5   6
HETATM    6  C   UNL     1      -8.946  11.876  67.445  1.00  0.00    -0.173 C  
BRANCH   6   7
HETATM    7  C   UNL     1     -10.233  12.281  67.366  1.00  0.00    -0.213 A  
HETATM    8  C   UNL     1     -10.804  12.650  66.048  1.00  0.00    -0.306 A  
HETATM    9  C   UNL     1     -10.997  11.665  65.069  1.00  0.00    -0.334 A  
HETATM   10  C   UNL     1     -11.645  11.977  63.873  1.00  0.00    -0.536 A  
HETATM   11  C   UNL     1     -12.089  13.275  63.640  1.00  0.00    -0.551 A  
HETATM   12  C   UNL     1     -11.881  14.268  64.599  1.00  0.00    -0.459 A  
HETATM   13  C   UNL     1     -11.258  13.966  65.820  1.00  0.00    -0.303 A  
HETATM   14  C   UNL     1     -11.073  15.064  66.789  1.00  0.00    -0.326 A  
HETATM   15  C   UNL     1     -11.178  14.987  68.127  1.00  0.00    -0.316 A  
HETATM   16  C   UNL     1     -11.502  13.785  68.918  1.00  0.00    -0.344 A  
HETATM   17  C   UNL     1     -12.268  13.943  70.081  1.00  0.00    -0.425 A  
HETATM   18  C   UNL     1     -12.604  12.840  70.873  1.00  0.00    -0.342 A  
HETATM   19  C   UNL     1     -12.180  11.565  70.514  1.00  0.00    -0.469 A  
HETATM   20  C   UNL     1     -11.407  11.391  69.369  1.00  0.00    -0.365 A  
HETATM   21  C   UNL     1     -11.044  12.496  68.582  1.00  0.00    -0.305 A  
ENDBRANCH   6   7
ENDBRANCH   5   6
ENDBRANCH   4   5
ENDBRANCH   2   4
TORSDOF 4
ENDMDL
MODEL       38
REMARK 921   NORMALIZED FREE ENERGY PREDICTED BY IDOCK:   -5.33 KCAL/MOL
REMARK 922        TOTAL FREE ENERGY PREDICTED BY IDOCK:   -7.03 KCAL/MOL
REMARK 923 INTER-LIGAND FREE ENERGY PREDICTED BY IDOCK:   -6.12 KCAL/MOL
REMARK 924 INTRA-LIGAND FREE ENERGY PREDICTED BY IDOCK:   -0.91 KCAL/MOL
REMARK 927      BINDING AFFINITY PREDICTED BY RF-SCORE:    0.00 PKD
ROOT
HETATM    1  C   UNL     1     -12.576  12.012  63.346  1.00  0.00    -0.469 C  
HETATM    2  N   UNL     1     -11.439  12.196  64.251  1.00  0.00    -0.346 NA 
HETATM    3  C   UNL     1     -10.332  11.331  63.839  1.00  0.00    -0.381 C  
ENDROOT
BRANCH   2   4
HETATM    4  C   UNL     1     -11.052  13.622  64.308  1.00  0.00    -0.315 C  
BRANCH   4   5
HETATM    5  C   UNL     1     -12.084  14.505  65.030  1.00  0.00    -0.390 C  
BRANCH   5   6
HETATM    6  C   UNL     1     -12.277  14.144  66.486  1.00  0.00    -0.463 C  
BRANCH   6   7
HETATM    7  C   UNL     1     -11.313  14.072  67.430  1.00  0.00    -0.350 A  
HETATM    8  C   UNL     1     -10.353  15.192  67.582  1.00  0.00    -0.248 A  
HETATM    9  C   UNL     1     -10.797  16.435  68.054  1.00  0.00    -0.342 A  
HETATM   10  C   UNL     1      -9.886  17.457  68.316  1.00  0.00    -0.310 A  
HETATM   11  C   UNL     1      -8.527  17.252  68.095  1.00  0.00    -0.238 A  
HETATM   12  C   UNL     1      -8.077  16.024  67.604  1.00  0.00    -0.164 A  
HETATM   13  C   UNL     1      -8.976  14.975  67.362  1.00  0.00    -0.196 A  
HETATM   14  C   UNL     1      -8.430  13.704  66.846  1.00  0.00    -0.073 A  
HETATM   15  C   UNL     1      -8.836  12.463  67.163  1.00  0.00    -0.197 A  
HETATM   16  C   UNL     1      -9.917  12.101  68.099  1.00  0.00    -0.201 A  
HETATM   17  C   UNL     1      -9.765  10.940  68.871  1.00  0.00    -0.198 A  
HETATM   18  C   UNL     1     -10.758  10.545  69.773  1.00  0.00    -0.314 A  
HETATM   19  C   UNL     1     -11.915  11.303  69.917  1.00  0.00    -0.440 A  
HETATM   20  C   UNL     1     -12.089  12.452  69.149  1.00  0.00    -0.195 A  
HETATM   21  C   UNL     1     -11.108  12.842  68.223  1.00  0.00    -0.288 A  
ENDBRANCH   6   7
ENDBRANCH   5   6
ENDBRANCH   4   5
ENDBRANCH   2   4
TORSDOF 4
ENDMDL
MODEL       39
REMARK 921   NORMALIZED FREE ENERGY PREDICTED BY IDOCK:   -5.33 KCAL/MOL
REMARK 922        TOTAL FREE ENERGY PREDICTED BY IDOCK:   -7.03 KCAL/MOL
REMARK 923 INTER-LIGAND FREE ENERGY PREDICTED BY IDOCK:   -6.53 KCAL/MOL
REMARK 924 INTRA-LIGAND FREE ENERGY PREDICTED BY IDOCK:   -0.49 KCAL/MOL
REMARK 927      BINDING AFFINITY PREDICTED BY RF-SCORE:    0.00 PKD
ROOT
HETATM    1  C   UNL     1     -13.763  13.351  72.404  1.00  0.00    -0.597 C  
HETATM    2  N   UNL     1     -13.437  14.771  72.266  1.00  0.00    -0.372 NA 
HETATM    3  C   UNL     1     -12.300  15.106  73.124  1.00  0.00    -0.432 C  
ENDROOT
BRANCH   2   4
HETATM    4  C   UNL     1     -13.193  15.107  70.846  1.00  0.00    -0.433 C  
BRANCH   4   5
HETATM    5  C   UNL     1     -11.881  14.521  70.298  1.00  0.00    -0.373 C  
BRANCH   5   6
HETATM    6  C   UNL     1     -12.075  13.257  69.488  1.00  0.00    -0.315 C  
BRANCH   6   7
HETATM    7  C   UNL     1     -11.308  12.838  68.458  1.00  0.00    -0.326 A  
HETATM    8  C   UNL     1     -10.441  11.647  68.630  1.00  0.00    -0.234 A  
HETATM    9  C   UNL     1     -11.016  10.379  68.788  1.00  0.00    -0.287 A  
HETATM   10  C   UNL     1     -10.213   9.239  68.828  1.00  0.00    -0.223 A  
HETATM   11  C   UNL     1      -8.830   9.359  68.726  1.00  0.00    -0.132 A  
HETATM   12  C   UNL     1      -8.246  10.620  68.590  1.00  0.00    -0.135 A  
HETATM   13  C   UNL     1      -9.040  11.774  68.519  1.00  0.00    -0.144 A  
HETATM   14  C   UNL     1      -8.355  13.074  68.372  1.00  0.00    -0.118 A  
HETATM   15  C   UNL     1      -8.764  14.125  67.642  1.00  0.00    -0.187 A  
HETATM   16  C   UNL     1      -9.989  14.207  66.825  1.00  0.00    -0.267 A  
HETATM   17  C   UNL     1      -9.943  14.940  65.631  1.00  0.00    -0.389 A  
HETATM   18  C   UNL     1     -11.074  15.056  64.817  1.00  0.00    -0.388 A  
HETATM   19  C   UNL     1     -12.266  14.441  65.183  1.00  0.00    -0.393 A  
HETATM   20  C   UNL     1     -12.335  13.720  66.373  1.00  0.00    -0.460 A  
HETATM   21  C   UNL     1     -11.211  13.620  67.208  1.00  0.00    -0.329 A  
ENDBRANCH   6   7
ENDBRANCH   5   6
ENDBRANCH   4   5
ENDBRANCH   2   4
TORSDOF 4
ENDMDL
MODEL       40
REMARK 921   NORMALIZED FREE ENERGY PREDICTED BY IDOCK:   -5.31 KCAL/MOL
REMARK 922        TOTAL FREE ENERGY PREDICTED BY IDOCK:   -7.00 KCAL/MOL
REMARK 923 INTER-LIGAND FREE ENERGY PREDICTED BY IDOCK:   -6.50 KCAL/MOL
REMARK 924 INTRA-LIGAND FREE ENERGY PREDICTED BY IDOCK:   -0.50 KCAL/MOL
REMARK 927      BINDING AFFINITY PREDICTED BY RF-SCORE:    0.00 PKD
ROOT
HETATM    1  C   UNL     1     -12.209  15.383  73.131  1.00  0.00    -0.456 C  
HETATM    2  N   UNL     1     -12.622  14.720  71.893  1.00  0.00    -0.321 NA 
HETATM    3  C   UNL     1     -14.067  14.484  71.915  1.00  0.00    -0.508 C  
ENDROOT
BRANCH   2   4
HETATM    4  C   UNL     1     -12.196  15.511  70.718  1.00  0.00    -0.403 C  
BRANCH   4   5
HETATM    5  C   UNL     1     -11.206  14.764  69.808  1.00  0.00    -0.306 C  
BRANCH   5   6
HETATM    6  C   UNL     1      -9.842  15.413  69.736  1.00  0.00    -0.236 C  
BRANCH   6   7
HETATM    7  C   UNL     1      -9.308  16.044  68.667  1.00  0.00    -0.214 A  
HETATM    8  C   UNL     1      -8.267  17.079  68.873  1.00  0.00    -0.204 A  
HETATM    9  C   UNL     1      -7.003  16.714  69.357  1.00  0.00    -0.194 A  
HETATM   10  C   UNL     1      -5.979  17.658  69.440  1.00  0.00    -0.235 A  
HETATM   11  C   UNL     1      -6.214  18.975  69.055  1.00  0.00    -0.276 A  
HETATM   12  C   UNL     1      -7.476  19.354  68.594  1.00  0.00    -0.385 A  
HETATM   13  C   UNL     1      -8.509  18.412  68.476  1.00  0.00    -0.346 A  
HETATM   14  C   UNL     1      -9.817  18.882  67.977  1.00  0.00    -0.404 A  
HETATM   15  C   UNL     1     -10.659  18.217  67.168  1.00  0.00    -0.392 A  
HETATM   16  C   UNL     1     -10.457  16.872  66.598  1.00  0.00    -0.257 A  
HETATM   17  C   UNL     1     -10.944  16.617  65.309  1.00  0.00    -0.127 A  
HETATM   18  C   UNL     1     -10.784  15.359  64.719  1.00  0.00    -0.339 A  
HETATM   19  C   UNL     1     -10.136  14.339  65.407  1.00  0.00    -0.379 A  
HETATM   20  C   UNL     1      -9.658  14.570  66.695  1.00  0.00    -0.291 A  
HETATM   21  C   UNL     1      -9.837  15.823  67.305  1.00  0.00    -0.230 A  
ENDBRANCH   6   7
ENDBRANCH   5   6
ENDBRANCH   4   5
ENDBRANCH   2   4
TORSDOF 4
ENDMDL
MODEL       41
REMARK 921   NORMALIZED FREE ENERGY PREDICTED BY IDOCK:   -5.28 KCAL/MOL
REMARK 922        TOTAL FREE ENERGY PREDICTED BY IDOCK:   -6.96 KCAL/MOL
REMARK 923 INTER-LIGAND FREE ENERGY PREDICTED BY IDOCK:   -6.44 KCAL/MOL
REMARK 924 INTRA-LIGAND FREE ENERGY PREDICTED BY IDOCK:   -0.53 KCAL/MOL
REMARK 927      BINDING AFFINITY PREDICTED BY RF-SCORE:    0.00 PKD
ROOT
HETATM    1  C   UNL     1     -12.641  13.910  65.635  1.00  0.00    -0.517 C  
HETATM    2  N   UNL     1     -11.319  13.885  66.261  1.00  0.00    -0.317 NA 
HETATM    3  C   UNL     1     -10.399  14.745  65.515  1.00  0.00    -0.364 C  
ENDROOT
BRANCH   2   4
HETATM    4  C   UNL     1     -11.418  14.266  67.687  1.00  0.00    -0.346 C  
BRANCH   4   5
HETATM    5  C   UNL     1     -10.541  13.404  68.611  1.00  0.00    -0.257 C  
BRANCH   5   6
HETATM    6  C   UNL     1     -11.325  12.395  69.421  1.00  0.00    -0.286 C  
BRANCH   6   7
HETATM    7  C   UNL     1     -11.208  11.050  69.360  1.00  0.00    -0.332 A  
HETATM    8  C   UNL     1     -11.731  10.219  70.471  1.00  0.00    -0.418 A  
HETATM    9  C   UNL     1     -13.112  10.142  70.697  1.00  0.00    -0.274 A  
HETATM   10  C   UNL     1     -13.623   9.271  71.659  1.00  0.00    -0.448 A  
HETATM   11  C   UNL     1     -12.758   8.482  72.412  1.00  0.00    -0.394 A  
HETATM   12  C   UNL     1     -11.378   8.568  72.210  1.00  0.00    -0.441 A  
HETATM   13  C   UNL     1     -10.850   9.418  71.227  1.00  0.00    -0.431 A  
HETATM   14  C   UNL     1      -9.383   9.455  71.065  1.00  0.00    -0.210 A  
HETATM   15  C   UNL     1      -8.699   9.570  69.914  1.00  0.00    -0.224 A  
HETATM   16  C   UNL     1      -9.269   9.680  68.558  1.00  0.00    -0.137 A  
HETATM   17  C   UNL     1      -8.579   9.076  67.497  1.00  0.00    -0.120 A  
HETATM   18  C   UNL     1      -9.069   9.150  66.190  1.00  0.00    -0.234 A  
HETATM   19  C   UNL     1     -10.254   9.827  65.923  1.00  0.00    -0.245 A  
HETATM   20  C   UNL     1     -10.945  10.445  66.963  1.00  0.00    -0.222 A  
HETATM   21  C   UNL     1     -10.447  10.397  68.274  1.00  0.00    -0.221 A  
ENDBRANCH   6   7
ENDBRANCH   5   6
ENDBRANCH   4   5
ENDBRANCH   2   4
TORSDOF 4
ENDMDL
MODEL       42
REMARK 921   NORMALIZED FREE ENERGY PREDICTED BY IDOCK:   -5.27 KCAL/MOL
REMARK 922        TOTAL FREE ENERGY PREDICTED BY IDOCK:   -6.95 KCAL/MOL
REMARK 923 INTER-LIGAND FREE ENERGY PREDICTED BY IDOCK:   -6.41 KCAL/MOL
REMARK 924 INTRA-LIGAND FREE ENERGY PREDICTED BY IDOCK:   -0.55 KCAL/MOL
REMARK 927      BINDING AFFINITY PREDICTED BY RF-SCORE:    0.00 PKD
ROOT
HETATM    1  C   UNL     1     -10.380  10.528  65.374  1.00  0.00    -0.222 C  
HETATM    2  N   UNL     1     -10.536  11.879  64.833  1.00  0.00    -0.274 NA 
HETATM    3  C   UNL     1     -10.317  11.862  63.385  1.00  0.00    -0.444 C  
ENDROOT
BRANCH   2   4
HETATM    4  C   UNL     1     -11.858  12.432  65.199  1.00  0.00    -0.388 C  
BRANCH   4   5
HETATM    5  C   UNL     1     -11.775  13.796  65.904  1.00  0.00    -0.370 C  
BRANCH   5   6
HETATM    6  C   UNL     1     -12.154  13.746  67.367  1.00  0.00    -0.378 C  
BRANCH   6   7
HETATM    7  C   UNL     1     -11.336  13.977  68.417  1.00  0.00    -0.321 A  
HETATM    8  C   UNL     1     -11.920  14.320  69.737  1.00  0.00    -0.394 A  
HETATM    9  C   UNL     1     -12.653  13.362  70.449  1.00  0.00    -0.237 A  
HETATM   10  C   UNL     1     -13.102  13.633  71.742  1.00  0.00    -0.468 A  
HETATM   11  C   UNL     1     -12.836  14.868  72.325  1.00  0.00    -0.414 A  
HETATM   12  C   UNL     1     -12.125  15.838  71.615  1.00  0.00    -0.522 A  
HETATM   13  C   UNL     1     -11.641  15.572  70.326  1.00  0.00    -0.355 A  
HETATM   14  C   UNL     1     -10.896  16.643  69.635  1.00  0.00    -0.282 A  
HETATM   15  C   UNL     1      -9.827  16.495  68.833  1.00  0.00    -0.260 A  
HETATM   16  C   UNL     1      -9.165  15.228  68.470  1.00  0.00    -0.200 A  
HETATM   17  C   UNL     1      -7.774  15.231  68.298  1.00  0.00    -0.112 A  
HETATM   18  C   UNL     1      -7.093  14.061  67.951  1.00  0.00    -0.166 A  
HETATM   19  C   UNL     1      -7.790  12.871  67.772  1.00  0.00    -0.158 A  
HETATM   20  C   UNL     1      -9.175  12.852  67.925  1.00  0.00    -0.208 A  
HETATM   21  C   UNL     1      -9.870  14.028  68.248  1.00  0.00    -0.233 A  
ENDBRANCH   6   7
ENDBRANCH   5   6
ENDBRANCH   4   5
ENDBRANCH   2   4
TORSDOF 4
ENDMDL
MODEL       43
REMARK 921   NORMALIZED FREE ENERGY PREDICTED BY IDOCK:   -5.27 KCAL/MOL
REMARK 922        TOTAL FREE ENERGY PREDICTED BY IDOCK:   -6.95 KCAL/MOL
REMARK 923 INTER-LIGAND FREE ENERGY PREDICTED BY IDOCK:   -6.05 KCAL/MOL
REMARK 924 INTRA-LIGAND FREE ENERGY PREDICTED BY IDOCK:   -0.90 KCAL/MOL
REMARK 927      BINDING AFFINITY PREDICTED BY RF-SCORE:    0.00 PKD
ROOT
HETATM    1  C   UNL     1      -9.470   6.940  74.203  1.00  0.00    -0.250 C  
HETATM    2  N   UNL     1      -8.411   6.305  73.417  1.00  0.00    -0.115 NA 
HETATM    3  C   UNL     1      -8.696   4.878  73.260  1.00  0.00    -0.104 C  
ENDROOT
BRANCH   2   4
HETATM    4  C   UNL     1      -8.249   6.997  72.119  1.00  0.00    -0.100 C  
BRANCH   4   5
HETATM    5  C   UNL     1      -8.496   8.513  72.201  1.00  0.00    -0.221 C  
BRANCH   5   6
HETATM    6  C   UNL     1      -9.059   9.104  70.927  1.00  0.00    -0.316 C  
BRANCH   6   7
HETATM    7  C   UNL     1     -10.222   8.764  70.330  1.00  0.00    -0.228 A  
HETATM    8  C   UNL     1     -11.504   9.011  71.033  1.00  0.00    -0.358 A  
HETATM    9  C   UNL     1     -11.939  10.324  71.257  1.00  0.00    -0.457 A  
HETATM   10  C   UNL     1     -13.198  10.567  71.806  1.00  0.00    -0.522 A  
HETATM   11  C   UNL     1     -14.024   9.501  72.152  1.00  0.00    -0.287 A  
HETATM   12  C   UNL     1     -13.590   8.188  71.954  1.00  0.00    -0.370 A  
HETATM   13  C   UNL     1     -12.339   7.926  71.375  1.00  0.00    -0.334 A  
HETATM   14  C   UNL     1     -11.947   6.514  71.193  1.00  0.00    -0.365 A  
HETATM   15  C   UNL     1     -11.262   5.993  70.161  1.00  0.00    -0.412 A  
HETATM   16  C   UNL     1     -10.755   6.720  68.982  1.00  0.00    -0.280 A  
HETATM   17  C   UNL     1     -10.751   6.059  67.746  1.00  0.00    -0.369 A  
HETATM   18  C   UNL     1     -10.279   6.697  66.594  1.00  0.00    -0.208 A  
HETATM   19  C   UNL     1      -9.806   8.003  66.661  1.00  0.00    -0.322 A  
HETATM   20  C   UNL     1      -9.790   8.670  67.883  1.00  0.00    -0.211 A  
HETATM   21  C   UNL     1     -10.238   8.028  69.049  1.00  0.00    -0.217 A  
ENDBRANCH   6   7
ENDBRANCH   5   6
ENDBRANCH   4   5
ENDBRANCH   2   4
TORSDOF 4
ENDMDL
MODEL       44
REMARK 921   NORMALIZED FREE ENERGY PREDICTED BY IDOCK:   -5.26 KCAL/MOL
REMARK 922        TOTAL FREE ENERGY PREDICTED BY IDOCK:   -6.94 KCAL/MOL
REMARK 923 INTER-LIGAND FREE ENERGY PREDICTED BY IDOCK:   -6.57 KCAL/MOL
REMARK 924 INTRA-LIGAND FREE ENERGY PREDICTED BY IDOCK:   -0.37 KCAL/MOL
REMARK 927      BINDING AFFINITY PREDICTED BY RF-SCORE:    0.00 PKD
ROOT
HETATM    1  C   UNL     1     -11.704   8.541  72.402  1.00  0.00    -0.358 C  
HETATM    2  N   UNL     1     -12.259   9.193  71.215  1.00  0.00    -0.317 NA 
HETATM    3  C   UNL     1     -12.996  10.396  71.608  1.00  0.00    -0.475 C  
ENDROOT
BRANCH   2   4
HETATM    4  C   UNL     1     -11.187   9.481  70.237  1.00  0.00    -0.261 C  
BRANCH   4   5
HETATM    5  C   UNL     1     -11.466  10.724  69.375  1.00  0.00    -0.366 C  
BRANCH   5   6
HETATM    6  C   UNL     1     -11.285  10.486  67.893  1.00  0.00    -0.358 C  
BRANCH   6   7
HETATM    7  C   UNL     1     -10.531  11.222  67.047  1.00  0.00    -0.272 A  
HETATM    8  C   UNL     1     -11.185  11.971  65.948  1.00  0.00    -0.385 A  
HETATM    9  C   UNL     1     -12.017  13.061  66.241  1.00  0.00    -0.477 A  
HETATM   10  C   UNL     1     -12.539  13.847  65.214  1.00  0.00    -0.508 A  
HETATM   11  C   UNL     1     -12.248  13.541  63.887  1.00  0.00    -0.458 A  
HETATM   12  C   UNL     1     -11.438  12.445  63.584  1.00  0.00    -0.568 A  
HETATM   13  C   UNL     1     -10.881  11.661  64.605  1.00  0.00    -0.373 A  
HETATM   14  C   UNL     1     -10.032  10.519  64.212  1.00  0.00    -0.398 A  
HETATM   15  C   UNL     1      -8.920  10.087  64.831  1.00  0.00    -0.241 A  
HETATM   16  C   UNL     1      -8.304  10.665  66.040  1.00  0.00    -0.160 A  
HETATM   17  C   UNL     1      -6.906  10.653  66.144  1.00  0.00    -0.135 A  
HETATM   18  C   UNL     1      -6.266  11.183  67.268  1.00  0.00    -0.073 A  
HETATM   19  C   UNL     1      -7.013  11.734  68.305  1.00  0.00    -0.075 A  
HETATM   20  C   UNL     1      -8.404  11.742  68.225  1.00  0.00    -0.159 A  
HETATM   21  C   UNL     1      -9.055  11.188  67.111  1.00  0.00    -0.151 A  
ENDBRANCH   6   7
ENDBRANCH   5   6
ENDBRANCH   4   5
ENDBRANCH   2   4
TORSDOF 4
ENDMDL
MODEL       45
REMARK 921   NORMALIZED FREE ENERGY PREDICTED BY IDOCK:   -5.25 KCAL/MOL
REMARK 922        TOTAL FREE ENERGY PREDICTED BY IDOCK:   -6.93 KCAL/MOL
REMARK 923 INTER-LIGAND FREE ENERGY PREDICTED BY IDOCK:   -6.30 KCAL/MOL
REMARK 924 INTRA-LIGAND FREE ENERGY PREDICTED BY IDOCK:   -0.64 KCAL/MOL
REMARK 927      BINDING AFFINITY PREDICTED BY RF-SCORE:    0.00 PKD
ROOT
HETATM    1  C   UNL     1     -11.736   8.856  72.022  1.00  0.00    -0.367 C  
HETATM    2  N   UNL     1     -12.217   9.816  71.028  1.00  0.00    -0.329 NA 
HETATM    3  C   UNL     1     -13.103  10.791  71.666  1.00  0.00    -0.446 C  
ENDROOT
BRANCH   2   4
HETATM    4  C   UNL     1     -11.077  10.455  70.336  1.00  0.00    -0.296 C  
BRANCH   4   5
HETATM    5  C   UNL     1     -11.505  11.510  69.301  1.00  0.00    -0.370 C  
BRANCH   5   6
HETATM    6  C   UNL     1     -11.616  10.967  67.894  1.00  0.00    -0.306 C  
BRANCH   6   7
HETATM    7  C   UNL     1     -10.830  11.291  66.844  1.00  0.00    -0.333 A  
HETATM    8  C   UNL     1      -9.657  10.444  66.520  1.00  0.00    -0.224 A  
HETATM    9  C   UNL     1      -9.845   9.138  66.045  1.00  0.00    -0.342 A  
HETATM   10  C   UNL     1      -8.757   8.376  65.622  1.00  0.00    -0.204 A  
HETATM   11  C   UNL     1      -7.471   8.905  65.686  1.00  0.00    -0.086 A  
HETATM   12  C   UNL     1      -7.270  10.197  66.178  1.00  0.00    -0.115 A  
HETATM   13  C   UNL     1      -8.356  10.988  66.580  1.00  0.00    -0.155 A  
HETATM   14  C   UNL     1      -8.070  12.344  67.087  1.00  0.00    -0.167 A  
HETATM   15  C   UNL     1      -8.801  13.454  66.885  1.00  0.00    -0.185 A  
HETATM   16  C   UNL     1     -10.050  13.556  66.107  1.00  0.00    -0.307 A  
HETATM   17  C   UNL     1     -10.286  14.732  65.382  1.00  0.00    -0.415 A  
HETATM   18  C   UNL     1     -11.454  14.888  64.629  1.00  0.00    -0.380 A  
HETATM   19  C   UNL     1     -12.402  13.871  64.589  1.00  0.00    -0.421 A  
HETATM   20  C   UNL     1     -12.192  12.702  65.315  1.00  0.00    -0.532 A  
HETATM   21  C   UNL     1     -11.033  12.548  66.094  1.00  0.00    -0.318 A  
ENDBRANCH   6   7
ENDBRANCH   5   6
ENDBRANCH   4   5
ENDBRANCH   2   4
TORSDOF 4
ENDMDL
MODEL       46
REMARK 921   NORMALIZED FREE ENERGY PREDICTED BY IDOCK:   -5.25 KCAL/MOL
REMARK 922        TOTAL FREE ENERGY PREDICTED BY IDOCK:   -6.93 KCAL/MOL
REMARK 923 INTER-LIGAND FREE ENERGY PREDICTED BY IDOCK:   -6.45 KCAL/MOL
REMARK 924 INTRA-LIGAND FREE ENERGY PREDICTED BY IDOCK:   -0.48 KCAL/MOL
REMARK 927      BINDING AFFINITY PREDICTED BY RF-SCORE:    0.00 PKD
ROOT
HETATM    1  C   UNL     1      -5.841  11.975  67.172  1.00  0.00    -0.150 C  
HETATM    2  N   UNL     1      -6.802  10.933  66.808  1.00  0.00    -0.112 NA 
HETATM    3  C   UNL     1      -6.303  10.178  65.657  1.00  0.00    -0.102 C  
ENDROOT
BRANCH   2   4
HETATM    4  C   UNL     1      -7.087  10.066  67.973  1.00  0.00    -0.081 C  
BRANCH   4   5
HETATM    5  C   UNL     1      -8.589   9.903  68.257  1.00  0.00    -0.115 C  
BRANCH   5   6
HETATM    6  C   UNL     1      -9.268  11.186  68.684  1.00  0.00    -0.173 C  
BRANCH   6   7
HETATM    7  C   UNL     1     -10.589  11.457  68.616  1.00  0.00    -0.229 A  
HETATM    8  C   UNL     1     -11.135  12.142  67.419  1.00  0.00    -0.330 A  
HETATM    9  C   UNL     1     -11.151  11.483  66.182  1.00  0.00    -0.302 A  
HETATM   10  C   UNL     1     -11.771  12.069  65.079  1.00  0.00    -0.316 A  
HETATM   11  C   UNL     1     -12.365  13.322  65.198  1.00  0.00    -0.516 A  
HETATM   12  C   UNL     1     -12.335  13.996  66.421  1.00  0.00    -0.468 A  
HETATM   13  C   UNL     1     -11.742  13.409  67.549  1.00  0.00    -0.406 A  
HETATM   14  C   UNL     1     -11.749  14.177  68.810  1.00  0.00    -0.380 A  
HETATM   15  C   UNL     1     -11.910  13.690  70.052  1.00  0.00    -0.378 A  
HETATM   16  C   UNL     1     -12.118  12.278  70.424  1.00  0.00    -0.385 A  
HETATM   17  C   UNL     1     -12.956  11.995  71.512  1.00  0.00    -0.407 A  
HETATM   18  C   UNL     1     -13.188  10.676  71.913  1.00  0.00    -0.528 A  
HETATM   19  C   UNL     1     -12.587   9.621  71.235  1.00  0.00    -0.443 A  
HETATM   20  C   UNL     1     -11.740   9.884  70.161  1.00  0.00    -0.239 A  
HETATM   21  C   UNL     1     -11.482  11.207  69.767  1.00  0.00    -0.388 A  
ENDBRANCH   6   7
ENDBRANCH   5   6
ENDBRANCH   4   5
ENDBRANCH   2   4
TORSDOF 4
ENDMDL
MODEL       47
REMARK 921   NORMALIZED FREE ENERGY PREDICTED BY IDOCK:   -5.23 KCAL/MOL
REMARK 922        TOTAL FREE ENERGY PREDICTED BY IDOCK:   -6.91 KCAL/MOL
REMARK 923 INTER-LIGAND FREE ENERGY PREDICTED BY IDOCK:   -6.13 KCAL/MOL
REMARK 924 INTRA-LIGAND FREE ENERGY PREDICTED BY IDOCK:   -0.78 KCAL/MOL
REMARK 927      BINDING AFFINITY PREDICTED BY RF-SCORE:    0.00 PKD
ROOT
HETATM    1  C   UNL     1      -9.678   9.350  65.968  1.00  0.00    -0.275 C  
HETATM    2  N   UNL     1      -8.223   9.452  65.840  1.00  0.00    -0.113 NA 
HETATM    3  C   UNL     1      -7.864   9.706  64.444  1.00  0.00    -0.129 C  
ENDROOT
BRANCH   2   4
HETATM    4  C   UNL     1      -7.698  10.487  66.757  1.00  0.00    -0.118 C  
BRANCH   4   5
HETATM    5  C   UNL     1      -8.784  11.434  67.295  1.00  0.00    -0.148 C  
BRANCH   5   6
HETATM    6  C   UNL     1      -8.569  12.882  66.914  1.00  0.00    -0.132 C  
BRANCH   6   7
HETATM    7  C   UNL     1      -9.460  13.692  66.302  1.00  0.00    -0.209 A  
HETATM    8  C   UNL     1      -9.524  15.125  66.679  1.00  0.00    -0.285 A  
HETATM    9  C   UNL     1      -8.455  15.978  66.372  1.00  0.00    -0.363 A  
HETATM   10  C   UNL     1      -8.554  17.349  66.611  1.00  0.00    -0.283 A  
HETATM   11  C   UNL     1      -9.714  17.874  67.173  1.00  0.00    -0.289 A  
HETATM   12  C   UNL     1     -10.776  17.030  67.503  1.00  0.00    -0.266 A  
HETATM   13  C   UNL     1     -10.705  15.653  67.242  1.00  0.00    -0.305 A  
HETATM   14  C   UNL     1     -11.866  14.820  67.614  1.00  0.00    -0.319 A  
HETATM   15  C   UNL     1     -12.355  13.768  66.937  1.00  0.00    -0.328 A  
HETATM   16  C   UNL     1     -11.838  13.217  65.670  1.00  0.00    -0.430 A  
HETATM   17  C   UNL     1     -12.757  12.693  64.750  1.00  0.00    -0.460 A  
HETATM   18  C   UNL     1     -12.325  12.155  63.534  1.00  0.00    -0.682 A  
HETATM   19  C   UNL     1     -10.970  12.131  63.220  1.00  0.00    -0.398 A  
HETATM   20  C   UNL     1     -10.042  12.634  64.129  1.00  0.00    -0.293 A  
HETATM   21  C   UNL     1     -10.465  13.154  65.362  1.00  0.00    -0.307 A  
ENDBRANCH   6   7
ENDBRANCH   5   6
ENDBRANCH   4   5
ENDBRANCH   2   4
TORSDOF 4
ENDMDL
MODEL       48
REMARK 921   NORMALIZED FREE ENERGY PREDICTED BY IDOCK:   -5.23 KCAL/MOL
REMARK 922        TOTAL FREE ENERGY PREDICTED BY IDOCK:   -6.90 KCAL/MOL
REMARK 923 INTER-LIGAND FREE ENERGY PREDICTED BY IDOCK:   -6.28 KCAL/MOL
REMARK 924 INTRA-LIGAND FREE ENERGY PREDICTED BY IDOCK:   -0.62 KCAL/MOL
REMARK 927      BINDING AFFINITY PREDICTED BY RF-SCORE:    0.00 PKD
ROOT
HETATM    1  C   UNL     1     -12.016  16.245  71.729  1.00  0.00    -0.406 C  
HETATM    2  N   UNL     1     -12.736  15.029  72.113  1.00  0.00    -0.314 NA 
HETATM    3  C   UNL     1     -14.179  15.264  72.044  1.00  0.00    -0.581 C  
ENDROOT
BRANCH   2   4
HETATM    4  C   UNL     1     -12.307  13.891  71.271  1.00  0.00    -0.335 C  
BRANCH   4   5
HETATM    5  C   UNL     1     -11.796  14.317  69.884  1.00  0.00    -0.382 C  
BRANCH   5   6
HETATM    6  C   UNL     1     -11.098  13.207  69.129  1.00  0.00    -0.248 C  
BRANCH   6   7
HETATM    7  C   UNL     1     -10.342  13.344  68.018  1.00  0.00    -0.242 A  
HETATM    8  C   UNL     1      -8.864  13.370  68.139  1.00  0.00    -0.180 A  
HETATM    9  C   UNL     1      -8.173  12.216  68.533  1.00  0.00    -0.104 A  
HETATM   10  C   UNL     1      -6.778  12.193  68.533  1.00  0.00    -0.071 A  
HETATM   11  C   UNL     1      -6.064  13.326  68.154  1.00  0.00    -0.108 A  
HETATM   12  C   UNL     1      -6.743  14.488  67.781  1.00  0.00    -0.191 A  
HETATM   13  C   UNL     1      -8.145  14.520  67.748  1.00  0.00    -0.166 A  
HETATM   14  C   UNL     1      -8.796  15.781  67.341  1.00  0.00    -0.199 A  
HETATM   15  C   UNL     1      -9.910  15.913  66.601  1.00  0.00    -0.267 A  
HETATM   16  C   UNL     1     -10.724  14.822  66.031  1.00  0.00    -0.314 A  
HETATM   17  C   UNL     1     -11.328  15.028  64.783  1.00  0.00    -0.409 A  
HETATM   18  C   UNL     1     -12.113  14.032  64.194  1.00  0.00    -0.456 A  
HETATM   19  C   UNL     1     -12.306  12.817  64.844  1.00  0.00    -0.551 A  
HETATM   20  C   UNL     1     -11.726  12.601  66.091  1.00  0.00    -0.461 A  
HETATM   21  C   UNL     1     -10.956  13.605  66.700  1.00  0.00    -0.295 A  
ENDBRANCH   6   7
ENDBRANCH   5   6
ENDBRANCH   4   5
ENDBRANCH   2   4
TORSDOF 4
ENDMDL
MODEL       49
REMARK 921   NORMALIZED FREE ENERGY PREDICTED BY IDOCK:   -5.19 KCAL/MOL
REMARK 922        TOTAL FREE ENERGY PREDICTED BY IDOCK:   -6.86 KCAL/MOL
REMARK 923 INTER-LIGAND FREE ENERGY PREDICTED BY IDOCK:   -6.32 KCAL/MOL
REMARK 924 INTRA-LIGAND FREE ENERGY PREDICTED BY IDOCK:   -0.54 KCAL/MOL
REMARK 927      BINDING AFFINITY PREDICTED BY RF-SCORE:    0.00 PKD
ROOT
HETATM    1  C   UNL     1      -5.526  11.903  69.964  1.00  0.00    -0.107 C  
HETATM    2  N   UNL     1      -6.595  12.611  69.258  1.00  0.00    -0.108 NA 
HETATM    3  C   UNL     1      -6.147  13.959  68.904  1.00  0.00    -0.087 C  
ENDROOT
BRANCH   2   4
HETATM    4  C   UNL     1      -7.036  11.834  68.080  1.00  0.00    -0.082 C  
BRANCH   4   5
HETATM    5  C   UNL     1      -8.315  12.388  67.428  1.00  0.00    -0.180 C  
BRANCH   5   6
HETATM    6  C   UNL     1      -9.498  12.444  68.369  1.00  0.00    -0.169 C  
BRANCH   6   7
HETATM    7  C   UNL     1     -10.670  13.078  68.147  1.00  0.00    -0.258 A  
HETATM    8  C   UNL     1     -11.129  13.302  66.755  1.00  0.00    -0.313 A  
HETATM    9  C   UNL     1     -11.505  12.213  65.957  1.00  0.00    -0.427 A  
HETATM   10  C   UNL     1     -12.052  12.421  64.691  1.00  0.00    -0.487 A  
HETATM   11  C   UNL     1     -12.212  13.716  64.206  1.00  0.00    -0.445 A  
HETATM   12  C   UNL     1     -11.819  14.807  64.984  1.00  0.00    -0.343 A  
HETATM   13  C   UNL     1     -11.294  14.618  66.271  1.00  0.00    -0.347 A  
HETATM   14  C   UNL     1     -10.903  15.817  67.039  1.00  0.00    -0.273 A  
HETATM   15  C   UNL     1     -11.045  16.012  68.361  1.00  0.00    -0.351 A  
HETATM   16  C   UNL     1     -11.626  15.068  69.334  1.00  0.00    -0.337 A  
HETATM   17  C   UNL     1     -12.363  15.590  70.406  1.00  0.00    -0.451 A  
HETATM   18  C   UNL     1     -12.935  14.744  71.361  1.00  0.00    -0.413 A  
HETATM   19  C   UNL     1     -12.780  13.366  71.259  1.00  0.00    -0.424 A  
HETATM   20  C   UNL     1     -12.039  12.830  70.208  1.00  0.00    -0.373 A  
HETATM   21  C   UNL     1     -11.440  13.674  69.259  1.00  0.00    -0.344 A  
ENDBRANCH   6   7
ENDBRANCH   5   6
ENDBRANCH   4   5
ENDBRANCH   2   4
TORSDOF 4
ENDMDL
MODEL       50
REMARK 921   NORMALIZED FREE ENERGY PREDICTED BY IDOCK:   -5.18 KCAL/MOL
REMARK 922        TOTAL FREE ENERGY PREDICTED BY IDOCK:   -6.85 KCAL/MOL
REMARK 923 INTER-LIGAND FREE ENERGY PREDICTED BY IDOCK:   -6.25 KCAL/MOL
REMARK 924 INTRA-LIGAND FREE ENERGY PREDICTED BY IDOCK:   -0.60 KCAL/MOL
REMARK 927      BINDING AFFINITY PREDICTED BY RF-SCORE:    0.00 PKD
ROOT
HETATM    1  C   UNL     1     -12.035  12.347  66.042  1.00  0.00    -0.350 C  
HETATM    2  N   UNL     1     -10.852  12.823  65.323  1.00  0.00    -0.285 NA 
HETATM    3  C   UNL     1     -10.120  11.685  64.763  1.00  0.00    -0.260 C  
ENDROOT
BRANCH   2   4
HETATM    4  C   UNL     1     -11.240  13.809  64.291  1.00  0.00    -0.305 C  
BRANCH   4   5
HETATM    5  C   UNL     1     -11.082  15.268  64.752  1.00  0.00    -0.407 C  
BRANCH   5   6
HETATM    6  C   UNL     1     -10.080  15.444  65.872  1.00  0.00    -0.370 C  
BRANCH   6   7
HETATM    7  C   UNL     1     -10.240  16.198  66.981  1.00  0.00    -0.285 A  
HETATM    8  C   UNL     1      -9.820  17.620  66.965  1.00  0.00    -0.307 A  
HETATM    9  C   UNL     1     -10.510  18.546  66.170  1.00  0.00    -0.447 A  
HETATM   10  C   UNL     1     -10.202  19.904  66.239  1.00  0.00    -0.614 A  
HETATM   11  C   UNL     1      -9.193  20.346  67.090  1.00  0.00    -0.511 A  
HETATM   12  C   UNL     1      -8.484  19.430  67.869  1.00  0.00    -0.348 A  
HETATM   13  C   UNL     1      -8.800  18.063  67.834  1.00  0.00    -0.269 A  
HETATM   14  C   UNL     1      -8.011  17.152  68.687  1.00  0.00    -0.265 A  
HETATM   15  C   UNL     1      -8.463  16.075  69.352  1.00  0.00    -0.146 A  
HETATM   16  C   UNL     1      -9.849  15.571  69.376  1.00  0.00    -0.283 A  
HETATM   17  C   UNL     1     -10.325  14.995  70.562  1.00  0.00     0.140 A  
HETATM   18  C   UNL     1     -11.630  14.497  70.643  1.00  0.00    -0.278 A  
HETATM   19  C   UNL     1     -12.476  14.567  69.542  1.00  0.00    -0.162 A  
HETATM   20  C   UNL     1     -12.015  15.123  68.351  1.00  0.00    -0.216 A  
HETATM   21  C   UNL     1     -10.699  15.602  68.253  1.00  0.00    -0.283 A  
ENDBRANCH   6   7
ENDBRANCH   5   6
ENDBRANCH   4   5
ENDBRANCH   2   4
TORSDOF 4
ENDMDL
MODEL       51
REMARK 921   NORMALIZED FREE ENERGY PREDICTED BY IDOCK:   -5.18 KCAL/MOL
REMARK 922        TOTAL FREE ENERGY PREDICTED BY IDOCK:   -6.84 KCAL/MOL
REMARK 923 INTER-LIGAND FREE ENERGY PREDICTED BY IDOCK:   -6.23 KCAL/MOL
REMARK 924 INTRA-LIGAND FREE ENERGY PREDICTED BY IDOCK:   -0.61 KCAL/MOL
REMARK 927      BINDING AFFINITY PREDICTED BY RF-SCORE:    0.00 PKD
ROOT
HETATM    1  C   UNL     1      -5.736  15.460  70.093  1.00  0.00    -0.144 C  
HETATM    2  N   UNL     1      -5.589  14.165  69.425  1.00  0.00    -0.083 NA 
HETATM    3  C   UNL     1      -5.922  13.086  70.357  1.00  0.00    -0.111 C  
ENDROOT
BRANCH   2   4
HETATM    4  C   UNL     1      -6.410  14.125  68.195  1.00  0.00    -0.132 C  
BRANCH   4   5
HETATM    5  C   UNL     1      -7.903  13.877  68.467  1.00  0.00    -0.139 C  
BRANCH   5   6
HETATM    6  C   UNL     1      -8.469  12.698  67.706  1.00  0.00    -0.172 C  
BRANCH   6   7
HETATM    7  C   UNL     1      -9.775  12.375  67.582  1.00  0.00    -0.195 A  
HETATM    8  C   UNL     1     -10.516  12.778  66.362  1.00  0.00    -0.265 A  
HETATM    9  C   UNL     1     -10.199  12.196  65.127  1.00  0.00    -0.308 A  
HETATM   10  C   UNL     1     -10.967  12.476  63.997  1.00  0.00    -0.443 A  
HETATM   11  C   UNL     1     -12.046  13.349  64.088  1.00  0.00    -0.491 A  
HETATM   12  C   UNL     1     -12.357  13.952  65.309  1.00  0.00    -0.485 A  
HETATM   13  C   UNL     1     -11.613  13.659  66.462  1.00  0.00    -0.392 A  
HETATM   14  C   UNL     1     -11.999  14.330  67.720  1.00  0.00    -0.384 A  
HETATM   15  C   UNL     1     -11.983  13.801  68.955  1.00  0.00    -0.399 A  
HETATM   16  C   UNL     1     -11.578  12.431  69.323  1.00  0.00    -0.379 A  
HETATM   17  C   UNL     1     -12.255  11.799  70.375  1.00  0.00    -0.416 A  
HETATM   18  C   UNL     1     -11.912  10.502  70.770  1.00  0.00    -0.472 A  
HETATM   19  C   UNL     1     -10.889   9.819  70.120  1.00  0.00    -0.340 A  
HETATM   20  C   UNL     1     -10.197  10.437  69.081  1.00  0.00    -0.239 A  
HETATM   21  C   UNL     1     -10.518  11.748  68.695  1.00  0.00    -0.242 A  
ENDBRANCH   6   7
ENDBRANCH   5   6
ENDBRANCH   4   5
ENDBRANCH   2   4
TORSDOF 4
ENDMDL
MODEL       52
REMARK 921   NORMALIZED FREE ENERGY PREDICTED BY IDOCK:   -5.17 KCAL/MOL
REMARK 922        TOTAL FREE ENERGY PREDICTED BY IDOCK:   -6.84 KCAL/MOL
REMARK 923 INTER-LIGAND FREE ENERGY PREDICTED BY IDOCK:   -6.14 KCAL/MOL
REMARK 924 INTRA-LIGAND FREE ENERGY PREDICTED BY IDOCK:   -0.70 KCAL/MOL
REMARK 927      BINDING AFFINITY PREDICTED BY RF-SCORE:    0.00 PKD
ROOT
HETATM    1  C   UNL     1     -10.446   5.389  66.665  1.00  0.00    -0.298 C  
HETATM    2  N   UNL     1     -11.114   6.425  67.455  1.00  0.00    -0.357 NA 
HETATM    3  C   UNL     1     -10.961   6.138  68.882  1.00  0.00    -0.356 C  
ENDROOT
BRANCH   2   4
HETATM    4  C   UNL     1     -10.601   7.763  67.088  1.00  0.00    -0.331 C  
BRANCH   4   5
HETATM    5  C   UNL     1     -10.646   8.772  68.248  1.00  0.00    -0.194 C  
BRANCH   5   6
HETATM    6  C   UNL     1     -11.039  10.169  67.821  1.00  0.00    -0.293 C  
BRANCH   6   7
HETATM    7  C   UNL     1     -10.349  10.977  66.986  1.00  0.00    -0.269 A  
HETATM    8  C   UNL     1     -11.077  11.756  65.956  1.00  0.00    -0.363 A  
HETATM    9  C   UNL     1     -11.936  12.795  66.339  1.00  0.00    -0.443 A  
HETATM   10  C   UNL     1     -12.530  13.611  65.378  1.00  0.00    -0.537 A  
HETATM   11  C   UNL     1     -12.284  13.387  64.026  1.00  0.00    -0.466 A  
HETATM   12  C   UNL     1     -11.448  12.340  63.632  1.00  0.00    -0.572 A  
HETATM   13  C   UNL     1     -10.819  11.527  64.587  1.00  0.00    -0.372 A  
HETATM   14  C   UNL     1      -9.945  10.442  64.100  1.00  0.00    -0.337 A  
HETATM   15  C   UNL     1      -8.793  10.023  64.650  1.00  0.00    -0.227 A  
HETATM   16  C   UNL     1      -8.148  10.561  65.862  1.00  0.00    -0.154 A  
HETATM   17  C   UNL     1      -6.747  10.599  65.908  1.00  0.00    -0.116 A  
HETATM   18  C   UNL     1      -6.081  11.096  67.033  1.00  0.00    -0.092 A  
HETATM   19  C   UNL     1      -6.803  11.562  68.126  1.00  0.00    -0.068 A  
HETATM   20  C   UNL     1      -8.195  11.519  68.104  1.00  0.00    -0.149 A  
HETATM   21  C   UNL     1      -8.872  10.998  66.989  1.00  0.00    -0.143 A  
ENDBRANCH   6   7
ENDBRANCH   5   6
ENDBRANCH   4   5
ENDBRANCH   2   4
TORSDOF 4
ENDMDL
MODEL       53
REMARK 921   NORMALIZED FREE ENERGY PREDICTED BY IDOCK:   -5.17 KCAL/MOL
REMARK 922        TOTAL FREE ENERGY PREDICTED BY IDOCK:   -6.83 KCAL/MOL
REMARK 923 INTER-LIGAND FREE ENERGY PREDICTED BY IDOCK:   -5.94 KCAL/MOL
REMARK 924 INTRA-LIGAND FREE ENERGY PREDICTED BY IDOCK:   -0.88 KCAL/MOL
REMARK 927      BINDING AFFINITY PREDICTED BY RF-SCORE:    0.00 PKD
ROOT
HETATM    1  C   UNL     1      -6.149   7.044  71.574  1.00  0.00    -0.037 C  
HETATM    2  N   UNL     1      -7.421   6.591  71.009  1.00  0.00    -0.083 NA 
HETATM    3  C   UNL     1      -7.282   5.223  70.508  1.00  0.00    -0.065 C  
ENDROOT
BRANCH   2   4
HETATM    4  C   UNL     1      -8.504   6.721  72.008  1.00  0.00    -0.112 C  
BRANCH   4   5
HETATM    5  C   UNL     1      -8.726   8.168  72.481  1.00  0.00    -0.266 C  
BRANCH   5   6
HETATM    6  C   UNL     1      -9.245   9.086  71.396  1.00  0.00    -0.293 C  
BRANCH   6   7
HETATM    7  C   UNL     1     -10.318   8.868  70.605  1.00  0.00    -0.265 A  
HETATM    8  C   UNL     1     -11.633   8.571  71.221  1.00  0.00    -0.332 A  
HETATM    9  C   UNL     1     -12.305   9.561  71.951  1.00  0.00    -0.450 A  
HETATM   10  C   UNL     1     -13.594   9.333  72.431  1.00  0.00    -0.527 A  
HETATM   11  C   UNL     1     -14.215   8.109  72.201  1.00  0.00    -0.427 A  
HETATM   12  C   UNL     1     -13.546   7.107  71.495  1.00  0.00    -0.408 A  
HETATM   13  C   UNL     1     -12.260   7.330  70.979  1.00  0.00    -0.350 A  
HETATM   14  C   UNL     1     -11.614   6.228  70.240  1.00  0.00    -0.379 A  
HETATM   15  C   UNL     1     -10.831   6.334  69.153  1.00  0.00    -0.403 A  
HETATM   16  C   UNL     1     -10.449   7.578  68.459  1.00  0.00    -0.211 A  
HETATM   17  C   UNL     1     -10.307   7.544  67.065  1.00  0.00    -0.395 A  
HETATM   18  C   UNL     1      -9.943   8.693  66.355  1.00  0.00    -0.331 A  
HETATM   19  C   UNL     1      -9.718   9.890  67.025  1.00  0.00    -0.230 A  
HETATM   20  C   UNL     1      -9.842   9.939  68.412  1.00  0.00    -0.166 A  
HETATM   21  C   UNL     1     -10.181   8.785  69.136  1.00  0.00    -0.215 A  
ENDBRANCH   6   7
ENDBRANCH   5   6
ENDBRANCH   4   5
ENDBRANCH   2   4
TORSDOF 4
ENDMDL
MODEL       54
REMARK 921   NORMALIZED FREE ENERGY PREDICTED BY IDOCK:   -5.16 KCAL/MOL
REMARK 922        TOTAL FREE ENERGY PREDICTED BY IDOCK:   -6.82 KCAL/MOL
REMARK 923 INTER-LIGAND FREE ENERGY PREDICTED BY IDOCK:   -6.52 KCAL/MOL
REMARK 924 INTRA-LIGAND FREE ENERGY PREDICTED BY IDOCK:   -0.30 KCAL/MOL
REMARK 927      BINDING AFFINITY PREDICTED BY RF-SCORE:    0.00 PKD
ROOT
HETATM    1  C   UNL     1      -8.736   8.010  65.543  1.00  0.00    -0.102 C  
HETATM    2  N   UNL     1      -8.712   9.441  65.848  1.00  0.00    -0.146 NA 
HETATM    3  C   UNL     1      -7.856  10.140  64.887  1.00  0.00    -0.147 C  
ENDROOT
BRANCH   2   4
HETATM    4  C   UNL     1     -10.088   9.984  65.879  1.00  0.00    -0.249 C  
BRANCH   4   5
HETATM    5  C   UNL     1     -10.908   9.498  67.086  1.00  0.00    -0.156 C  
BRANCH   5   6
HETATM    6  C   UNL     1     -11.503  10.622  67.905  1.00  0.00    -0.261 C  
BRANCH   6   7
HETATM    7  C   UNL     1     -11.172  10.953  69.173  1.00  0.00    -0.318 A  
HETATM    8  C   UNL     1     -10.255  10.078  69.942  1.00  0.00    -0.304 A  
HETATM    9  C   UNL     1      -8.910   9.967  69.562  1.00  0.00    -0.209 A  
HETATM   10  C   UNL     1      -8.012   9.245  70.348  1.00  0.00    -0.171 A  
HETATM   11  C   UNL     1      -8.453   8.615  71.508  1.00  0.00    -0.238 A  
HETATM   12  C   UNL     1      -9.795   8.700  71.883  1.00  0.00    -0.384 A  
HETATM   13  C   UNL     1     -10.706   9.446  71.120  1.00  0.00    -0.417 A  
HETATM   14  C   UNL     1     -12.109   9.496  71.578  1.00  0.00    -0.468 A  
HETATM   15  C   UNL     1     -12.942  10.548  71.517  1.00  0.00    -0.565 A  
HETATM   16  C   UNL     1     -12.633  11.888  70.982  1.00  0.00    -0.381 A  
HETATM   17  C   UNL     1     -13.220  13.001  71.600  1.00  0.00    -0.426 A  
HETATM   18  C   UNL     1     -12.966  14.295  71.134  1.00  0.00    -0.423 A  
HETATM   19  C   UNL     1     -12.123  14.495  70.046  1.00  0.00    -0.395 A  
HETATM   20  C   UNL     1     -11.542  13.400  69.412  1.00  0.00    -0.365 A  
HETATM   21  C   UNL     1     -11.812  12.096  69.857  1.00  0.00    -0.392 A  
ENDBRANCH   6   7
ENDBRANCH   5   6
ENDBRANCH   4   5
ENDBRANCH   2   4
TORSDOF 4
ENDMDL
MODEL       55
REMARK 921   NORMALIZED FREE ENERGY PREDICTED BY IDOCK:   -5.13 KCAL/MOL
REMARK 922        TOTAL FREE ENERGY PREDICTED BY IDOCK:   -6.79 KCAL/MOL
REMARK 923 INTER-LIGAND FREE ENERGY PREDICTED BY IDOCK:   -6.18 KCAL/MOL
REMARK 924 INTRA-LIGAND FREE ENERGY PREDICTED BY IDOCK:   -0.61 KCAL/MOL
REMARK 927      BINDING AFFINITY PREDICTED BY RF-SCORE:    0.00 PKD
ROOT
HETATM    1  C   UNL     1      -8.605   6.592  66.362  1.00  0.00    -0.136 C  
HETATM    2  N   UNL     1      -9.920   5.970  66.527  1.00  0.00    -0.161 NA 
HETATM    3  C   UNL     1      -9.788   4.721  67.278  1.00  0.00    -0.184 C  
ENDROOT
BRANCH   2   4
HETATM    4  C   UNL     1     -10.860   6.917  67.165  1.00  0.00    -0.377 C  
BRANCH   4   5
HETATM    5  C   UNL     1     -10.519   7.219  68.634  1.00  0.00    -0.214 C  
BRANCH   5   6
HETATM    6  C   UNL     1     -10.494   8.697  68.958  1.00  0.00    -0.216 C  
BRANCH   6   7
HETATM    7  C   UNL     1     -10.488   9.248  70.192  1.00  0.00    -0.265 A  
HETATM    8  C   UNL     1      -9.619   8.671  71.246  1.00  0.00    -0.292 A  
HETATM    9  C   UNL     1      -8.225   8.769  71.137  1.00  0.00    -0.204 A  
HETATM   10  C   UNL     1      -7.403   8.340  72.178  1.00  0.00    -0.125 A  
HETATM   11  C   UNL     1      -7.966   7.795  73.329  1.00  0.00    -0.184 A  
HETATM   12  C   UNL     1      -9.353   7.673  73.439  1.00  0.00    -0.324 A  
HETATM   13  C   UNL     1     -10.196   8.126  72.413  1.00  0.00    -0.368 A  
HETATM   14  C   UNL     1     -11.652   7.968  72.598  1.00  0.00    -0.448 A  
HETATM   15  C   UNL     1     -12.613   8.826  72.216  1.00  0.00    -0.460 A  
HETATM   16  C   UNL     1     -12.419  10.118  71.531  1.00  0.00    -0.526 A  
HETATM   17  C   UNL     1     -13.291  11.171  71.841  1.00  0.00    -0.409 A  
HETATM   18  C   UNL     1     -13.159  12.417  71.220  1.00  0.00    -0.218 A  
HETATM   19  C   UNL     1     -12.154  12.629  70.283  1.00  0.00    -0.372 A  
HETATM   20  C   UNL     1     -11.287  11.590  69.952  1.00  0.00    -0.267 A  
HETATM   21  C   UNL     1     -11.429  10.328  70.552  1.00  0.00    -0.427 A  
ENDBRANCH   6   7
ENDBRANCH   5   6
ENDBRANCH   4   5
ENDBRANCH   2   4
TORSDOF 4
ENDMDL
MODEL       56
REMARK 921   NORMALIZED FREE ENERGY PREDICTED BY IDOCK:   -5.11 KCAL/MOL
REMARK 922        TOTAL FREE ENERGY PREDICTED BY IDOCK:   -6.76 KCAL/MOL
REMARK 923 INTER-LIGAND FREE ENERGY PREDICTED BY IDOCK:   -6.04 KCAL/MOL
REMARK 924 INTRA-LIGAND FREE ENERGY PREDICTED BY IDOCK:   -0.72 KCAL/MOL
REMARK 927      BINDING AFFINITY PREDICTED BY RF-SCORE:    0.00 PKD
ROOT
HETATM    1  C   UNL     1     -10.022   9.164  66.130  1.00  0.00    -0.268 C  
HETATM    2  N   UNL     1      -9.775  10.588  65.896  1.00  0.00    -0.205 NA 
HETATM    3  C   UNL     1      -8.546  10.757  65.120  1.00  0.00    -0.128 C  
ENDROOT
BRANCH   2   4
HETATM    4  C   UNL     1     -10.947  11.213  65.244  1.00  0.00    -0.083 C  
BRANCH   4   5
HETATM    5  C   UNL     1     -11.567  12.353  66.069  1.00  0.00    -0.455 C  
BRANCH   5   6
HETATM    6  C   UNL     1     -11.641  12.057  67.551  1.00  0.00    -0.401 C  
BRANCH   6   7
HETATM    7  C   UNL     1     -11.162  12.832  68.549  1.00  0.00    -0.314 A  
HETATM    8  C   UNL     1     -12.001  13.083  69.746  1.00  0.00    -0.377 A  
HETATM    9  C   UNL     1     -12.296  12.034  70.628  1.00  0.00    -0.394 A  
HETATM   10  C   UNL     1     -12.980  12.283  71.817  1.00  0.00    -0.431 A  
HETATM   11  C   UNL     1     -13.389  13.577  72.127  1.00  0.00    -0.593 A  
HETATM   12  C   UNL     1     -13.120  14.625  71.245  1.00  0.00    -0.424 A  
HETATM   13  C   UNL     1     -12.408  14.398  70.058  1.00  0.00    -0.391 A  
HETATM   14  C   UNL     1     -12.156  15.553  69.173  1.00  0.00    -0.266 A  
HETATM   15  C   UNL     1     -11.047  15.793  68.453  1.00  0.00    -0.341 A  
HETATM   16  C   UNL     1      -9.837  14.953  68.392  1.00  0.00    -0.216 A  
HETATM   17  C   UNL     1      -8.594  15.588  68.263  1.00  0.00    -0.161 A  
HETATM   18  C   UNL     1      -7.412  14.843  68.197  1.00  0.00    -0.118 A  
HETATM   19  C   UNL     1      -7.455  13.454  68.260  1.00  0.00    -0.129 A  
HETATM   20  C   UNL     1      -8.682  12.806  68.374  1.00  0.00    -0.119 A  
HETATM   21  C   UNL     1      -9.875  13.545  68.415  1.00  0.00    -0.225 A  
ENDBRANCH   6   7
ENDBRANCH   5   6
ENDBRANCH   4   5
ENDBRANCH   2   4
TORSDOF 4
ENDMDL
MODEL       57
REMARK 921   NORMALIZED FREE ENERGY PREDICTED BY IDOCK:   -5.02 KCAL/MOL
REMARK 922        TOTAL FREE ENERGY PREDICTED BY IDOCK:   -6.64 KCAL/MOL
REMARK 923 INTER-LIGAND FREE ENERGY PREDICTED BY IDOCK:   -6.25 KCAL/MOL
REMARK 924 INTRA-LIGAND FREE ENERGY PREDICTED BY IDOCK:   -0.39 KCAL/MOL
REMARK 927      BINDING AFFINITY PREDICTED BY RF-SCORE:    0.00 PKD
ROOT
HETATM    1  C   UNL     1      -9.322  19.826  66.396  1.00  0.00    -0.401 C  
HETATM    2  N   UNL     1      -9.087  18.622  67.195  1.00  0.00    -0.283 NA 
HETATM    3  C   UNL     1      -8.617  18.995  68.530  1.00  0.00    -0.358 C  
ENDROOT
BRANCH   2   4
HETATM    4  C   UNL     1     -10.307  17.786  67.238  1.00  0.00    -0.363 C  
BRANCH   4   5
HETATM    5  C   UNL     1     -10.192  16.497  66.408  1.00  0.00    -0.324 C  
BRANCH   5   6
HETATM    6  C   UNL     1     -10.946  15.327  67.000  1.00  0.00    -0.324 C  
BRANCH   6   7
HETATM    7  C   UNL     1     -10.545  14.553  68.033  1.00  0.00    -0.237 A  
HETATM    8  C   UNL     1      -9.438  13.587  67.836  1.00  0.00    -0.215 A  
HETATM    9  C   UNL     1      -8.135  14.051  67.607  1.00  0.00    -0.180 A  
HETATM   10  C   UNL     1      -7.068  13.156  67.542  1.00  0.00    -0.156 A  
HETATM   11  C   UNL     1      -7.295  11.791  67.688  1.00  0.00    -0.119 A  
HETATM   12  C   UNL     1      -8.592  11.316  67.894  1.00  0.00    -0.134 A  
HETATM   13  C   UNL     1      -9.673  12.204  67.992  1.00  0.00    -0.203 A  
HETATM   14  C   UNL     1     -11.016  11.633  68.213  1.00  0.00    -0.273 A  
HETATM   15  C   UNL     1     -11.997  12.146  68.975  1.00  0.00    -0.302 A  
HETATM   16  C   UNL     1     -11.942  13.393  69.760  1.00  0.00    -0.396 A  
HETATM   17  C   UNL     1     -12.623  13.437  70.985  1.00  0.00    -0.425 A  
HETATM   18  C   UNL     1     -12.610  14.594  71.771  1.00  0.00    -0.407 A  
HETATM   19  C   UNL     1     -11.916  15.722  71.345  1.00  0.00    -0.499 A  
HETATM   20  C   UNL     1     -11.246  15.701  70.124  1.00  0.00    -0.346 A  
HETATM   21  C   UNL     1     -11.275  14.552  69.317  1.00  0.00    -0.309 A  
ENDBRANCH   6   7
ENDBRANCH   5   6
ENDBRANCH   4   5
ENDBRANCH   2   4
TORSDOF 4
ENDMDL
MODEL       58
REMARK 921   NORMALIZED FREE ENERGY PREDICTED BY IDOCK:   -4.96 KCAL/MOL
REMARK 922        TOTAL FREE ENERGY PREDICTED BY IDOCK:   -6.58 KCAL/MOL
REMARK 923 INTER-LIGAND FREE ENERGY PREDICTED BY IDOCK:   -6.00 KCAL/MOL
REMARK 924 INTRA-LIGAND FREE ENERGY PREDICTED BY IDOCK:   -0.58 KCAL/MOL
REMARK 927      BINDING AFFINITY PREDICTED BY RF-SCORE:    0.00 PKD
ROOT
HETATM    1  C   UNL     1      -5.492   9.680  68.232  1.00  0.00    -0.036 C  
HETATM    2  N   UNL     1      -6.820   9.120  68.488  1.00  0.00    -0.062 NA 
HETATM    3  C   UNL     1      -7.082   8.019  67.560  1.00  0.00    -0.080 C  
ENDROOT
BRANCH   2   4
HETATM    4  C   UNL     1      -6.941   8.709  69.904  1.00  0.00    -0.043 C  
BRANCH   4   5
HETATM    5  C   UNL     1      -8.350   8.221  70.279  1.00  0.00    -0.123 C  
BRANCH   5   6
HETATM    6  C   UNL     1      -9.303   9.340  70.636  1.00  0.00    -0.329 C  
BRANCH   6   7
HETATM    7  C   UNL     1     -10.549   9.521  70.146  1.00  0.00    -0.298 A  
HETATM    8  C   UNL     1     -10.756  10.431  68.994  1.00  0.00    -0.260 A  
HETATM    9  C   UNL     1     -10.250  10.090  67.732  1.00  0.00    -0.235 A  
HETATM   10  C   UNL     1     -10.542  10.876  66.618  1.00  0.00    -0.305 A  
HETATM   11  C   UNL     1     -11.328  12.017  66.758  1.00  0.00    -0.398 A  
HETATM   12  C   UNL     1     -11.818  12.378  68.015  1.00  0.00    -0.376 A  
HETATM   13  C   UNL     1     -11.558  11.583  69.141  1.00  0.00    -0.382 A  
HETATM   14  C   UNL     1     -12.110  12.024  70.437  1.00  0.00    -0.407 A  
HETATM   15  C   UNL     1     -12.605  11.242  71.412  1.00  0.00    -0.456 A  
HETATM   16  C   UNL     1     -12.707   9.771  71.396  1.00  0.00    -0.483 A  
HETATM   17  C   UNL     1     -13.809   9.175  72.024  1.00  0.00    -0.480 A  
HETATM   18  C   UNL     1     -13.957   7.784  72.043  1.00  0.00    -0.329 A  
HETATM   19  C   UNL     1     -13.006   6.970  71.437  1.00  0.00    -0.395 A  
HETATM   20  C   UNL     1     -11.897   7.544  70.820  1.00  0.00    -0.254 A  
HETATM   21  C   UNL     1     -11.728   8.938  70.818  1.00  0.00    -0.269 A  
ENDBRANCH   6   7
ENDBRANCH   5   6
ENDBRANCH   4   5
ENDBRANCH   2   4
TORSDOF 4
ENDMDL
MODEL       59
REMARK 921   NORMALIZED FREE ENERGY PREDICTED BY IDOCK:   -4.96 KCAL/MOL
REMARK 922        TOTAL FREE ENERGY PREDICTED BY IDOCK:   -6.57 KCAL/MOL
REMARK 923 INTER-LIGAND FREE ENERGY PREDICTED BY IDOCK:   -6.36 KCAL/MOL
REMARK 924 INTRA-LIGAND FREE ENERGY PREDICTED BY IDOCK:   -0.21 KCAL/MOL
REMARK 927      BINDING AFFINITY PREDICTED BY RF-SCORE:    0.00 PKD
ROOT
HETATM    1  C   UNL     1     -10.044  11.980  63.621  1.00  0.00    -0.415 C  
HETATM    2  N   UNL     1     -11.090  12.945  63.964  1.00  0.00    -0.393 NA 
HETATM    3  C   UNL     1     -12.396  12.431  63.550  1.00  0.00    -0.546 C  
ENDROOT
BRANCH   2   4
HETATM    4  C   UNL     1     -11.039  13.267  65.407  1.00  0.00    -0.282 C  
BRANCH   4   5
HETATM    5  C   UNL     1      -9.685  13.842  65.857  1.00  0.00    -0.237 C  
BRANCH   5   6
HETATM    6  C   UNL     1      -9.630  15.353  65.826  1.00  0.00    -0.368 C  
BRANCH   6   7
HETATM    7  C   UNL     1      -8.987  16.151  66.706  1.00  0.00    -0.270 A  
HETATM    8  C   UNL     1      -9.311  17.598  66.754  1.00  0.00    -0.286 A  
HETATM    9  C   UNL     1     -10.569  18.020  67.207  1.00  0.00    -0.358 A  
HETATM   10  C   UNL     1     -10.842  19.377  67.371  1.00  0.00    -0.555 A  
HETATM   11  C   UNL     1      -9.867  20.324  67.069  1.00  0.00    -0.607 A  
HETATM   12  C   UNL     1      -8.618  19.915  66.595  1.00  0.00    -0.390 A  
HETATM   13  C   UNL     1      -8.317  18.553  66.452  1.00  0.00    -0.278 A  
HETATM   14  C   UNL     1      -6.976  18.193  65.950  1.00  0.00    -0.319 A  
HETATM   15  C   UNL     1      -6.220  17.152  66.338  1.00  0.00    -0.202 A  
HETATM   16  C   UNL     1      -6.567  16.142  67.356  1.00  0.00    -0.219 A  
HETATM   17  C   UNL     1      -5.538  15.629  68.159  1.00  0.00    -0.126 A  
HETATM   18  C   UNL     1      -5.807  14.667  69.138  1.00  0.00    -0.099 A  
HETATM   19  C   UNL     1      -7.104  14.205  69.330  1.00  0.00    -0.079 A  
HETATM   20  C   UNL     1      -8.136  14.694  68.532  1.00  0.00    -0.146 A  
HETATM   21  C   UNL     1      -7.872  15.641  67.530  1.00  0.00    -0.184 A  
ENDBRANCH   6   7
ENDBRANCH   5   6
ENDBRANCH   4   5
ENDBRANCH   2   4
TORSDOF 4
ENDMDL
MODEL       60
REMARK 921   NORMALIZED FREE ENERGY PREDICTED BY IDOCK:   -4.96 KCAL/MOL
REMARK 922        TOTAL FREE ENERGY PREDICTED BY IDOCK:   -6.57 KCAL/MOL
REMARK 923 INTER-LIGAND FREE ENERGY PREDICTED BY IDOCK:   -6.15 KCAL/MOL
REMARK 924 INTRA-LIGAND FREE ENERGY PREDICTED BY IDOCK:   -0.41 KCAL/MOL
REMARK 927      BINDING AFFINITY PREDICTED BY RF-SCORE:    0.00 PKD
ROOT
HETATM    1  C   UNL     1     -10.282  18.789  68.497  1.00  0.00    -0.344 C  
HETATM    2  N   UNL     1     -10.779  18.301  67.210  1.00  0.00    -0.382 NA 
HETATM    3  C   UNL     1     -10.077  18.976  66.117  1.00  0.00    -0.406 C  
ENDROOT
BRANCH   2   4
HETATM    4  C   UNL     1     -10.658  16.828  67.137  1.00  0.00    -0.256 C  
BRANCH   4   5
HETATM    5  C   UNL     1     -11.477  16.095  68.213  1.00  0.00    -0.259 C  
BRANCH   5   6
HETATM    6  C   UNL     1     -11.613  14.609  67.961  1.00  0.00    -0.366 C  
BRANCH   6   7
HETATM    7  C   UNL     1     -10.994  13.620  68.642  1.00  0.00    -0.290 A  
HETATM    8  C   UNL     1      -9.593  13.269  68.309  1.00  0.00    -0.221 A  
HETATM    9  C   UNL     1      -8.559  14.176  68.582  1.00  0.00    -0.126 A  
HETATM   10  C   UNL     1      -7.228  13.810  68.386  1.00  0.00    -0.108 A  
HETATM   11  C   UNL     1      -6.919  12.542  67.901  1.00  0.00    -0.105 A  
HETATM   12  C   UNL     1      -7.942  11.639  67.605  1.00  0.00    -0.136 A  
HETATM   13  C   UNL     1      -9.285  11.980  67.824  1.00  0.00    -0.190 A  
HETATM   14  C   UNL     1     -10.314  10.975  67.491  1.00  0.00    -0.233 A  
HETATM   15  C   UNL     1     -11.451  10.729  68.164  1.00  0.00    -0.346 A  
HETATM   16  C   UNL     1     -11.917  11.412  69.386  1.00  0.00    -0.407 A  
HETATM   17  C   UNL     1     -12.619  10.661  70.339  1.00  0.00    -0.395 A  
HETATM   18  C   UNL     1     -13.088  11.255  71.515  1.00  0.00    -0.459 A  
HETATM   19  C   UNL     1     -12.863  12.606  71.756  1.00  0.00    -0.343 A  
HETATM   20  C   UNL     1     -12.179  13.371  70.813  1.00  0.00    -0.409 A  
HETATM   21  C   UNL     1     -11.727  12.788  69.619  1.00  0.00    -0.372 A  
ENDBRANCH   6   7
ENDBRANCH   5   6
ENDBRANCH   4   5
ENDBRANCH   2   4
TORSDOF 4
ENDMDL
MODEL       61
REMARK 921   NORMALIZED FREE ENERGY PREDICTED BY IDOCK:   -4.95 KCAL/MOL
REMARK 922        TOTAL FREE ENERGY PREDICTED BY IDOCK:   -6.56 KCAL/MOL
REMARK 923 INTER-LIGAND FREE ENERGY PREDICTED BY IDOCK:   -6.15 KCAL/MOL
REMARK 924 INTRA-LIGAND FREE ENERGY PREDICTED BY IDOCK:   -0.41 KCAL/MOL
REMARK 927      BINDING AFFINITY PREDICTED BY RF-SCORE:    0.00 PKD
ROOT
HETATM    1  C   UNL     1     -10.580   5.468  66.518  1.00  0.00    -0.279 C  
HETATM    2  N   UNL     1     -11.094   6.628  67.247  1.00  0.00    -0.379 NA 
HETATM    3  C   UNL     1     -10.967   6.406  68.688  1.00  0.00    -0.330 C  
ENDROOT
BRANCH   2   4
HETATM    4  C   UNL     1     -10.408   7.861  66.801  1.00  0.00    -0.287 C  
BRANCH   4   5
HETATM    5  C   UNL     1     -10.208   8.888  67.928  1.00  0.00    -0.274 C  
BRANCH   5   6
HETATM    6  C   UNL     1     -10.990  10.168  67.726  1.00  0.00    -0.338 C  
BRANCH   6   7
HETATM    7  C   UNL     1     -10.540  11.300  67.143  1.00  0.00    -0.274 A  
HETATM    8  C   UNL     1      -9.606  12.183  67.884  1.00  0.00    -0.198 A  
HETATM    9  C   UNL     1      -8.304  11.746  68.165  1.00  0.00    -0.156 A  
HETATM   10  C   UNL     1      -7.380  12.611  68.752  1.00  0.00    -0.066 A  
HETATM   11  C   UNL     1      -7.754  13.912  69.076  1.00  0.00     0.026 A  
HETATM   12  C   UNL     1      -9.055  14.349  68.821  1.00  0.00    -0.133 A  
HETATM   13  C   UNL     1      -9.988  13.503  68.204  1.00  0.00    -0.240 A  
HETATM   14  C   UNL     1     -11.345  14.033  67.961  1.00  0.00    -0.320 A  
HETATM   15  C   UNL     1     -12.127  13.792  66.895  1.00  0.00    -0.454 A  
HETATM   16  C   UNL     1     -11.798  12.946  65.733  1.00  0.00    -0.469 A  
HETATM   17  C   UNL     1     -12.276  13.334  64.474  1.00  0.00    -0.456 A  
HETATM   18  C   UNL     1     -11.999  12.569  63.336  1.00  0.00    -0.602 A  
HETATM   19  C   UNL     1     -11.240  11.408  63.440  1.00  0.00    -0.252 A  
HETATM   20  C   UNL     1     -10.768  11.001  64.686  1.00  0.00    -0.318 A  
HETATM   21  C   UNL     1     -11.063  11.749  65.837  1.00  0.00    -0.355 A  
ENDBRANCH   6   7
ENDBRANCH   5   6
ENDBRANCH   4   5
ENDBRANCH   2   4
TORSDOF 4
ENDMDL
MODEL       62
REMARK 921   NORMALIZED FREE ENERGY PREDICTED BY IDOCK:   -4.94 KCAL/MOL
REMARK 922        TOTAL FREE ENERGY PREDICTED BY IDOCK:   -6.55 KCAL/MOL
REMARK 923 INTER-LIGAND FREE ENERGY PREDICTED BY IDOCK:   -5.93 KCAL/MOL
REMARK 924 INTRA-LIGAND FREE ENERGY PREDICTED BY IDOCK:   -0.63 KCAL/MOL
REMARK 927      BINDING AFFINITY PREDICTED BY RF-SCORE:    0.00 PKD
ROOT
HETATM    1  C   UNL     1     -10.996  14.667  64.455  1.00  0.00    -0.231 C  
HETATM    2  N   UNL     1     -12.248  13.976  64.140  1.00  0.00    -0.623 NA 
HETATM    3  C   UNL     1     -11.987  12.875  63.212  1.00  0.00    -0.440 C  
ENDROOT
BRANCH   2   4
HETATM    4  C   UNL     1     -12.913  13.524  65.382  1.00  0.00    -0.231 C  
BRANCH   4   5
HETATM    5  C   UNL     1     -12.060  12.548  66.209  1.00  0.00    -0.315 C  
BRANCH   5   6
HETATM    6  C   UNL     1     -12.094  12.825  67.696  1.00  0.00    -0.200 C  
BRANCH   6   7
HETATM    7  C   UNL     1     -11.106  12.573  68.583  1.00  0.00    -0.305 A  
HETATM    8  C   UNL     1      -9.870  13.392  68.552  1.00  0.00    -0.178 A  
HETATM    9  C   UNL     1      -9.919  14.747  68.908  1.00  0.00    -0.233 A  
HETATM   10  C   UNL     1      -8.746  15.495  69.000  1.00  0.00    -0.235 A  
HETATM   11  C   UNL     1      -7.518  14.901  68.723  1.00  0.00    -0.132 A  
HETATM   12  C   UNL     1      -7.461  13.558  68.345  1.00  0.00    -0.124 A  
HETATM   13  C   UNL     1      -8.628  12.783  68.275  1.00  0.00    -0.166 A  
HETATM   14  C   UNL     1      -8.493  11.369  67.872  1.00  0.00    -0.139 A  
HETATM   15  C   UNL     1      -9.190  10.323  68.349  1.00  0.00    -0.136 A  
HETATM   16  C   UNL     1     -10.241  10.361  69.383  1.00  0.00    -0.257 A  
HETATM   17  C   UNL     1     -10.341   9.279  70.268  1.00  0.00    -0.272 A  
HETATM   18  C   UNL     1     -11.321   9.258  71.266  1.00  0.00    -0.423 A  
HETATM   19  C   UNL     1     -12.212  10.318  71.394  1.00  0.00    -0.481 A  
HETATM   20  C   UNL     1     -12.136  11.395  70.515  1.00  0.00    -0.487 A  
HETATM   21  C   UNL     1     -11.172  11.412  69.494  1.00  0.00    -0.322 A  
ENDBRANCH   6   7
ENDBRANCH   5   6
ENDBRANCH   4   5
ENDBRANCH   2   4
TORSDOF 4
ENDMDL
MODEL       63
REMARK 921   NORMALIZED FREE ENERGY PREDICTED BY IDOCK:   -4.94 KCAL/MOL
REMARK 922        TOTAL FREE ENERGY PREDICTED BY IDOCK:   -6.55 KCAL/MOL
REMARK 923 INTER-LIGAND FREE ENERGY PREDICTED BY IDOCK:   -5.69 KCAL/MOL
REMARK 924 INTRA-LIGAND FREE ENERGY PREDICTED BY IDOCK:   -0.85 KCAL/MOL
REMARK 927      BINDING AFFINITY PREDICTED BY RF-SCORE:    0.00 PKD
ROOT
HETATM    1  C   UNL     1      -9.205   9.946  64.639  1.00  0.00    -0.258 C  
HETATM    2  N   UNL     1      -9.829  11.270  64.694  1.00  0.00    -0.253 NA 
HETATM    3  C   UNL     1     -10.125  11.736  63.338  1.00  0.00    -0.446 C  
ENDROOT
BRANCH   2   4
HETATM    4  C   UNL     1     -11.031  11.237  65.556  1.00  0.00    -0.131 C  
BRANCH   4   5
HETATM    5  C   UNL     1     -11.623  12.629  65.830  1.00  0.00    -0.431 C  
BRANCH   5   6
HETATM    6  C   UNL     1     -11.917  12.885  67.291  1.00  0.00    -0.371 C  
BRANCH   6   7
HETATM    7  C   UNL     1     -11.027  12.851  68.307  1.00  0.00    -0.282 A  
HETATM    8  C   UNL     1      -9.997  13.912  68.413  1.00  0.00    -0.233 A  
HETATM    9  C   UNL     1     -10.375  15.228  68.716  1.00  0.00    -0.232 A  
HETATM   10  C   UNL     1      -9.407  16.207  68.938  1.00  0.00    -0.235 A  
HETATM   11  C   UNL     1      -8.056  15.884  68.843  1.00  0.00    -0.214 A  
HETATM   12  C   UNL     1      -7.670  14.582  68.519  1.00  0.00    -0.129 A  
HETATM   13  C   UNL     1      -8.629  13.578  68.321  1.00  0.00    -0.168 A  
HETATM   14  C   UNL     1      -8.149  12.223  67.985  1.00  0.00    -0.156 A  
HETATM   15  C   UNL     1      -8.670  11.055  68.399  1.00  0.00    -0.150 A  
HETATM   16  C   UNL     1      -9.836  10.874  69.284  1.00  0.00    -0.113 A  
HETATM   17  C   UNL     1      -9.827   9.798  70.182  1.00  0.00    -0.306 A  
HETATM   18  C   UNL     1     -10.906   9.575  71.043  1.00  0.00    -0.423 A  
HETATM   19  C   UNL     1     -12.008  10.423  71.020  1.00  0.00    -0.481 A  
HETATM   20  C   UNL     1     -12.040  11.489  70.124  1.00  0.00    -0.432 A  
HETATM   21  C   UNL     1     -10.972  11.705  69.238  1.00  0.00    -0.246 A  
ENDBRANCH   6   7
ENDBRANCH   5   6
ENDBRANCH   4   5
ENDBRANCH   2   4
TORSDOF 4
ENDMDL
MODEL       64
REMARK 921   NORMALIZED FREE ENERGY PREDICTED BY IDOCK:   -4.91 KCAL/MOL
REMARK 922        TOTAL FREE ENERGY PREDICTED BY IDOCK:   -6.51 KCAL/MOL
REMARK 923 INTER-LIGAND FREE ENERGY PREDICTED BY IDOCK:   -6.01 KCAL/MOL
REMARK 924 INTRA-LIGAND FREE ENERGY PREDICTED BY IDOCK:   -0.50 KCAL/MOL
REMARK 927      BINDING AFFINITY PREDICTED BY RF-SCORE:    0.00 PKD
ROOT
HETATM    1  C   UNL     1      -7.221   9.862  70.317  1.00  0.00    -0.154 C  
HETATM    2  N   UNL     1      -8.100  10.551  69.371  1.00  0.00    -0.151 NA 
HETATM    3  C   UNL     1      -7.402  10.755  68.101  1.00  0.00    -0.088 C  
ENDROOT
BRANCH   2   4
HETATM    4  C   UNL     1      -9.366   9.803  69.208  1.00  0.00    -0.191 C  
BRANCH   4   5
HETATM    5  C   UNL     1     -10.617  10.656  69.478  1.00  0.00    -0.265 C  
BRANCH   5   6
HETATM    6  C   UNL     1     -11.337  11.090  68.220  1.00  0.00    -0.366 C  
BRANCH   6   7
HETATM    7  C   UNL     1     -10.882  11.964  67.296  1.00  0.00    -0.294 A  
HETATM    8  C   UNL     1     -10.694  13.387  67.665  1.00  0.00    -0.257 A  
HETATM    9  C   UNL     1      -9.692  13.748  68.577  1.00  0.00    -0.193 A  
HETATM   10  C   UNL     1      -9.426  15.092  68.838  1.00  0.00    -0.211 A  
HETATM   11  C   UNL     1     -10.167  16.084  68.204  1.00  0.00    -0.243 A  
HETATM   12  C   UNL     1     -11.182  15.735  67.310  1.00  0.00    -0.140 A  
HETATM   13  C   UNL     1     -11.444  14.389  67.013  1.00  0.00    -0.376 A  
HETATM   14  C   UNL     1     -12.529  14.093  66.057  1.00  0.00    -0.454 A  
HETATM   15  C   UNL     1     -12.547  13.119  65.131  1.00  0.00    -0.525 A  
HETATM   16  C   UNL     1     -11.482  12.133  64.868  1.00  0.00    -0.379 A  
HETATM   17  C   UNL     1     -11.272  11.720  63.545  1.00  0.00    -0.494 A  
HETATM   18  C   UNL     1     -10.279  10.785  63.236  1.00  0.00    -0.243 A  
HETATM   19  C   UNL     1      -9.481  10.252  64.242  1.00  0.00    -0.365 A  
HETATM   20  C   UNL     1      -9.685  10.641  65.564  1.00  0.00    -0.291 A  
HETATM   21  C   UNL     1     -10.697  11.559  65.887  1.00  0.00    -0.325 A  
ENDBRANCH   6   7
ENDBRANCH   5   6
ENDBRANCH   4   5
ENDBRANCH   2   4
TORSDOF 4
ENDMDL
MODEL       65
REMARK 921   NORMALIZED FREE ENERGY PREDICTED BY IDOCK:   -4.91 KCAL/MOL
REMARK 922        TOTAL FREE ENERGY PREDICTED BY IDOCK:   -6.51 KCAL/MOL
REMARK 923 INTER-LIGAND FREE ENERGY PREDICTED BY IDOCK:   -5.77 KCAL/MOL
REMARK 924 INTRA-LIGAND FREE ENERGY PREDICTED BY IDOCK:   -0.74 KCAL/MOL
REMARK 927      BINDING AFFINITY PREDICTED BY RF-SCORE:    0.00 PKD
ROOT
HETATM    1  C   UNL     1     -10.190  19.014  66.478  1.00  0.00    -0.421 C  
HETATM    2  N   UNL     1      -9.732  17.802  65.797  1.00  0.00    -0.524 NA 
HETATM    3  C   UNL     1      -8.356  17.501  66.193  1.00  0.00    -0.165 C  
ENDROOT
BRANCH   2   4
HETATM    4  C   UNL     1     -10.657  16.680  66.065  1.00  0.00    -0.233 C  
BRANCH   4   5
HETATM    5  C   UNL     1     -10.201  15.351  65.440  1.00  0.00    -0.408 C  
BRANCH   5   6
HETATM    6  C   UNL     1     -10.550  14.138  66.274  1.00  0.00    -0.284 C  
BRANCH   6   7
HETATM    7  C   UNL     1     -10.138  13.886  67.536  1.00  0.00    -0.244 A  
HETATM    8  C   UNL     1     -11.029  13.146  68.461  1.00  0.00    -0.289 A  
HETATM    9  C   UNL     1     -11.314  11.794  68.227  1.00  0.00    -0.343 A  
HETATM   10  C   UNL     1     -12.050  11.056  69.154  1.00  0.00    -0.333 A  
HETATM   11  C   UNL     1     -12.520  11.667  70.314  1.00  0.00    -0.261 A  
HETATM   12  C   UNL     1     -12.260  13.019  70.546  1.00  0.00    -0.392 A  
HETATM   13  C   UNL     1     -11.497  13.769  69.638  1.00  0.00    -0.300 A  
HETATM   14  C   UNL     1     -11.258  15.192  69.949  1.00  0.00    -0.305 A  
HETATM   15  C   UNL     1     -10.134  15.892  69.720  1.00  0.00    -0.247 A  
HETATM   16  C   UNL     1      -8.891  15.387  69.108  1.00  0.00    -0.249 A  
HETATM   17  C   UNL     1      -7.669  15.897  69.571  1.00  0.00    -0.125 A  
HETATM   18  C   UNL     1      -6.458  15.458  69.026  1.00  0.00    -0.113 A  
HETATM   19  C   UNL     1      -6.450  14.504  68.014  1.00  0.00    -0.158 A  
HETATM   20  C   UNL     1      -7.654  13.997  67.533  1.00  0.00    -0.195 A  
HETATM   21  C   UNL     1      -8.876  14.451  68.056  1.00  0.00    -0.178 A  
ENDBRANCH   6   7
ENDBRANCH   5   6
ENDBRANCH   4   5
ENDBRANCH   2   4
TORSDOF 4
ENDMDL
MODEL       66
REMARK 921   NORMALIZED FREE ENERGY PREDICTED BY IDOCK:   -4.89 KCAL/MOL
REMARK 922        TOTAL FREE ENERGY PREDICTED BY IDOCK:   -6.49 KCAL/MOL
REMARK 923 INTER-LIGAND FREE ENERGY PREDICTED BY IDOCK:   -5.84 KCAL/MOL
REMARK 924 INTRA-LIGAND FREE ENERGY PREDICTED BY IDOCK:   -0.65 KCAL/MOL
REMARK 927      BINDING AFFINITY PREDICTED BY RF-SCORE:    0.00 PKD
ROOT
HETATM    1  C   UNL     1     -10.673   8.592  69.745  1.00  0.00    -0.215 C  
HETATM    2  N   UNL     1     -10.416   7.340  69.032  1.00  0.00    -0.209 NA 
HETATM    3  C   UNL     1     -11.263   6.277  69.575  1.00  0.00    -0.430 C  
ENDROOT
BRANCH   2   4
HETATM    4  C   UNL     1     -10.607   7.528  67.577  1.00  0.00    -0.261 C  
BRANCH   4   5
HETATM    5  C   UNL     1      -9.378   8.129  66.874  1.00  0.00    -0.219 C  
BRANCH   5   6
HETATM    6  C   UNL     1      -9.727   9.124  65.789  1.00  0.00    -0.299 C  
BRANCH   6   7
HETATM    7  C   UNL     1      -9.617  10.468  65.867  1.00  0.00    -0.254 A  
HETATM    8  C   UNL     1      -8.493  11.066  66.627  1.00  0.00    -0.153 A  
HETATM    9  C   UNL     1      -7.179  10.931  66.158  1.00  0.00    -0.101 A  
HETATM   10  C   UNL     1      -6.129  11.591  66.796  1.00  0.00    -0.147 A  
HETATM   11  C   UNL     1      -6.381  12.377  67.917  1.00  0.00    -0.096 A  
HETATM   12  C   UNL     1      -7.684  12.500  68.406  1.00  0.00    -0.136 A  
HETATM   13  C   UNL     1      -8.755  11.867  67.759  1.00  0.00    -0.158 A  
HETATM   14  C   UNL     1     -10.106  12.044  68.329  1.00  0.00    -0.201 A  
HETATM   15  C   UNL     1     -11.258  12.176  67.650  1.00  0.00    -0.345 A  
HETATM   16  C   UNL     1     -11.423  12.176  66.185  1.00  0.00    -0.429 A  
HETATM   17  C   UNL     1     -12.410  13.002  65.628  1.00  0.00    -0.504 A  
HETATM   18  C   UNL     1     -12.614  13.041  64.245  1.00  0.00    -0.326 A  
HETATM   19  C   UNL     1     -11.836  12.257  63.399  1.00  0.00    -0.563 A  
HETATM   20  C   UNL     1     -10.861  11.419  63.936  1.00  0.00    -0.463 A  
HETATM   21  C   UNL     1     -10.667  11.355  65.325  1.00  0.00    -0.326 A  
ENDBRANCH   6   7
ENDBRANCH   5   6
ENDBRANCH   4   5
ENDBRANCH   2   4
TORSDOF 4
ENDMDL
MODEL       67
REMARK 921   NORMALIZED FREE ENERGY PREDICTED BY IDOCK:   -4.89 KCAL/MOL
REMARK 922        TOTAL FREE ENERGY PREDICTED BY IDOCK:   -6.48 KCAL/MOL
REMARK 923 INTER-LIGAND FREE ENERGY PREDICTED BY IDOCK:   -6.10 KCAL/MOL
REMARK 924 INTRA-LIGAND FREE ENERGY PREDICTED BY IDOCK:   -0.39 KCAL/MOL
REMARK 927      BINDING AFFINITY PREDICTED BY RF-SCORE:    0.00 PKD
ROOT
HETATM    1  C   UNL     1     -10.212  14.731  65.038  1.00  0.00    -0.344 C  
HETATM    2  N   UNL     1     -11.563  14.170  65.069  1.00  0.00    -0.345 NA 
HETATM    3  C   UNL     1     -12.426  14.902  64.141  1.00  0.00    -0.065 C  
ENDROOT
BRANCH   2   4
HETATM    4  C   UNL     1     -11.525  12.719  64.782  1.00  0.00    -0.317 C  
BRANCH   4   5
HETATM    5  C   UNL     1     -10.906  11.889  65.919  1.00  0.00    -0.342 C  
BRANCH   5   6
HETATM    6  C   UNL     1     -11.741  11.874  67.181  1.00  0.00    -0.311 C  
BRANCH   6   7
HETATM    7  C   UNL     1     -11.303  12.120  68.436  1.00  0.00    -0.336 A  
HETATM    8  C   UNL     1     -11.568  11.132  69.509  1.00  0.00    -0.392 A  
HETATM    9  C   UNL     1     -10.940   9.879  69.478  1.00  0.00    -0.274 A  
HETATM   10  C   UNL     1     -11.086   8.990  70.543  1.00  0.00    -0.297 A  
HETATM   11  C   UNL     1     -11.871   9.338  71.638  1.00  0.00    -0.453 A  
HETATM   12  C   UNL     1     -12.519  10.575  71.668  1.00  0.00    -0.443 A  
HETATM   13  C   UNL     1     -12.360  11.493  70.620  1.00  0.00    -0.457 A  
HETATM   14  C   UNL     1     -13.072  12.783  70.720  1.00  0.00     0.140 A  
HETATM   15  C   UNL     1     -12.623  13.986  70.325  1.00  0.00    -0.354 A  
HETATM   16  C   UNL     1     -11.316  14.280  69.706  1.00  0.00    -0.279 A  
HETATM   17  C   UNL     1     -10.695  15.499  70.014  1.00  0.00    -0.331 A  
HETATM   18  C   UNL     1      -9.458  15.833  69.456  1.00  0.00    -0.248 A  
HETATM   19  C   UNL     1      -8.823  14.956  68.583  1.00  0.00    -0.179 A  
HETATM   20  C   UNL     1      -9.432  13.747  68.254  1.00  0.00    -0.214 A  
HETATM   21  C   UNL     1     -10.686  13.415  68.791  1.00  0.00    -0.257 A  
ENDBRANCH   6   7
ENDBRANCH   5   6
ENDBRANCH   4   5
ENDBRANCH   2   4
TORSDOF 4
ENDMDL
MODEL       68
REMARK 921   NORMALIZED FREE ENERGY PREDICTED BY IDOCK:   -4.87 KCAL/MOL
REMARK 922        TOTAL FREE ENERGY PREDICTED BY IDOCK:   -6.47 KCAL/MOL
REMARK 923 INTER-LIGAND FREE ENERGY PREDICTED BY IDOCK:   -5.96 KCAL/MOL
REMARK 924 INTRA-LIGAND FREE ENERGY PREDICTED BY IDOCK:   -0.50 KCAL/MOL
REMARK 927      BINDING AFFINITY PREDICTED BY RF-SCORE:    0.00 PKD
ROOT
HETATM    1  C   UNL     1     -10.758  18.714  67.353  1.00  0.00    -0.402 C  
HETATM    2  N   UNL     1      -9.897  17.532  67.409  1.00  0.00    -0.288 NA 
HETATM    3  C   UNL     1      -8.498  17.928  67.244  1.00  0.00    -0.236 C  
ENDROOT
BRANCH   2   4
HETATM    4  C   UNL     1     -10.129  16.785  68.665  1.00  0.00    -0.279 C  
BRANCH   4   5
HETATM    5  C   UNL     1     -11.321  15.816  68.587  1.00  0.00    -0.369 C  
BRANCH   5   6
HETATM    6  C   UNL     1     -10.915  14.369  68.416  1.00  0.00    -0.261 C  
BRANCH   6   7
HETATM    7  C   UNL     1     -10.272  13.836  67.354  1.00  0.00    -0.252 A  
HETATM    8  C   UNL     1     -11.025  13.557  66.108  1.00  0.00    -0.289 A  
HETATM    9  C   UNL     1     -11.526  14.617  65.340  1.00  0.00    -0.352 A  
HETATM   10  C   UNL     1     -12.129  14.373  64.106  1.00  0.00    -0.405 A  
HETATM   11  C   UNL     1     -12.250  13.068  63.637  1.00  0.00    -0.568 A  
HETATM   12  C   UNL     1     -11.774  12.003  64.405  1.00  0.00    -0.399 A  
HETATM   13  C   UNL     1     -11.139  12.232  65.635  1.00  0.00    -0.357 A  
HETATM   14  C   UNL     1     -10.658  11.060  66.391  1.00  0.00    -0.308 A  
HETATM   15  C   UNL     1      -9.531  10.974  67.119  1.00  0.00    -0.181 A  
HETATM   16  C   UNL     1      -8.528  12.037  67.318  1.00  0.00    -0.175 A  
HETATM   17  C   UNL     1      -7.180  11.666  67.419  1.00  0.00    -0.128 A  
HETATM   18  C   UNL     1      -6.184  12.629  67.611  1.00  0.00    -0.148 A  
HETATM   19  C   UNL     1      -6.521  13.975  67.704  1.00  0.00    -0.156 A  
HETATM   20  C   UNL     1      -7.856  14.361  67.620  1.00  0.00    -0.194 A  
HETATM   21  C   UNL     1      -8.864  13.398  67.453  1.00  0.00    -0.214 A  
ENDBRANCH   6   7
ENDBRANCH   5   6
ENDBRANCH   4   5
ENDBRANCH   2   4
TORSDOF 4
ENDMDL
MODEL       69
REMARK 921   NORMALIZED FREE ENERGY PREDICTED BY IDOCK:   -4.85 KCAL/MOL
REMARK 922        TOTAL FREE ENERGY PREDICTED BY IDOCK:   -6.44 KCAL/MOL
REMARK 923 INTER-LIGAND FREE ENERGY PREDICTED BY IDOCK:   -5.78 KCAL/MOL
REMARK 924 INTRA-LIGAND FREE ENERGY PREDICTED BY IDOCK:   -0.66 KCAL/MOL
REMARK 927      BINDING AFFINITY PREDICTED BY RF-SCORE:    0.00 PKD
ROOT
HETATM    1  C   UNL     1      -7.636   5.604  73.916  1.00  0.00    -0.097 C  
HETATM    2  N   UNL     1      -7.912   6.998  73.565  1.00  0.00    -0.105 NA 
HETATM    3  C   UNL     1      -7.235   7.890  74.508  1.00  0.00    -0.156 C  
ENDROOT
BRANCH   2   4
HETATM    4  C   UNL     1      -7.528   7.261  72.161  1.00  0.00    -0.080 C  
BRANCH   4   5
HETATM    5  C   UNL     1      -8.184   8.523  71.576  1.00  0.00    -0.199 C  
BRANCH   5   6
HETATM    6  C   UNL     1      -9.694   8.515  71.662  1.00  0.00    -0.322 C  
BRANCH   6   7
HETATM    7  C   UNL     1     -10.556   8.872  70.685  1.00  0.00    -0.277 A  
HETATM    8  C   UNL     1     -10.570   8.116  69.409  1.00  0.00    -0.206 A  
HETATM    9  C   UNL     1     -11.012   6.786  69.387  1.00  0.00    -0.321 A  
HETATM   10  C   UNL     1     -11.144   6.106  68.177  1.00  0.00    -0.328 A  
HETATM   11  C   UNL     1     -10.820   6.742  66.982  1.00  0.00    -0.453 A  
HETATM   12  C   UNL     1     -10.357   8.060  66.995  1.00  0.00    -0.414 A  
HETATM   13  C   UNL     1     -10.246   8.769  68.200  1.00  0.00    -0.250 A  
HETATM   14  C   UNL     1      -9.753  10.159  68.139  1.00  0.00    -0.155 A  
HETATM   15  C   UNL     1     -10.167  11.197  68.886  1.00  0.00    -0.209 A  
HETATM   16  C   UNL     1     -11.208  11.172  69.930  1.00  0.00    -0.293 A  
HETATM   17  C   UNL     1     -12.023  12.302  70.082  1.00  0.00    -0.377 A  
HETATM   18  C   UNL     1     -13.024  12.337  71.058  1.00  0.00    -0.152 A  
HETATM   19  C   UNL     1     -13.226  11.244  71.894  1.00  0.00    -0.491 A  
HETATM   20  C   UNL     1     -12.416  10.118  71.767  1.00  0.00    -0.455 A  
HETATM   21  C   UNL     1     -11.392  10.085  70.807  1.00  0.00    -0.439 A  
ENDBRANCH   6   7
ENDBRANCH   5   6
ENDBRANCH   4   5
ENDBRANCH   2   4
TORSDOF 4
ENDMDL
MODEL       70
REMARK 921   NORMALIZED FREE ENERGY PREDICTED BY IDOCK:   -4.85 KCAL/MOL
REMARK 922        TOTAL FREE ENERGY PREDICTED BY IDOCK:   -6.44 KCAL/MOL
REMARK 923 INTER-LIGAND FREE ENERGY PREDICTED BY IDOCK:   -5.71 KCAL/MOL
REMARK 924 INTRA-LIGAND FREE ENERGY PREDICTED BY IDOCK:   -0.73 KCAL/MOL
REMARK 927      BINDING AFFINITY PREDICTED BY RF-SCORE:    0.00 PKD
ROOT
HETATM    1  C   UNL     1     -11.438  11.983  65.614  1.00  0.00    -0.316 C  
HETATM    2  N   UNL     1     -12.037  12.841  66.637  1.00  0.00    -0.501 NA 
HETATM    3  C   UNL     1     -11.866  12.233  67.958  1.00  0.00    -0.305 C  
ENDROOT
BRANCH   2   4
HETATM    4  C   UNL     1     -11.466  14.204  66.564  1.00  0.00    -0.358 C  
BRANCH   4   5
HETATM    5  C   UNL     1     -10.231  14.299  65.651  1.00  0.00    -0.366 C  
BRANCH   5   6
HETATM    6  C   UNL     1      -9.608  15.677  65.619  1.00  0.00    -0.319 C  
BRANCH   6   7
HETATM    7  C   UNL     1      -9.059  16.335  66.663  1.00  0.00    -0.278 A  
HETATM    8  C   UNL     1      -8.161  15.610  67.594  1.00  0.00    -0.166 A  
HETATM    9  C   UNL     1      -6.910  15.159  67.151  1.00  0.00     0.083 A  
HETATM   10  C   UNL     1      -6.008  14.585  68.046  1.00  0.00    -0.158 A  
HETATM   11  C   UNL     1      -6.355  14.442  69.387  1.00  0.00    -0.122 A  
HETATM   12  C   UNL     1      -7.608  14.868  69.834  1.00  0.00     0.062 A  
HETATM   13  C   UNL     1      -8.515  15.474  68.953  1.00  0.00    -0.207 A  
HETATM   14  C   UNL     1      -9.820  15.902  69.495  1.00  0.00    -0.268 A  
HETATM   15  C   UNL     1     -10.511  17.006  69.160  1.00  0.00    -0.323 A  
HETATM   16  C   UNL     1     -10.113  18.031  68.178  1.00  0.00    -0.378 A  
HETATM   17  C   UNL     1     -10.457  19.366  68.435  1.00  0.00    -0.356 A  
HETATM   18  C   UNL     1     -10.109  20.381  67.539  1.00  0.00    -0.495 A  
HETATM   19  C   UNL     1      -9.412  20.078  66.374  1.00  0.00    -0.512 A  
HETATM   20  C   UNL     1      -9.074  18.756  66.095  1.00  0.00    -0.152 A  
HETATM   21  C   UNL     1      -9.442  17.727  66.977  1.00  0.00    -0.271 A  
ENDBRANCH   6   7
ENDBRANCH   5   6
ENDBRANCH   4   5
ENDBRANCH   2   4
TORSDOF 4
ENDMDL
MODEL       71
REMARK 921   NORMALIZED FREE ENERGY PREDICTED BY IDOCK:   -4.84 KCAL/MOL
REMARK 922        TOTAL FREE ENERGY PREDICTED BY IDOCK:   -6.43 KCAL/MOL
REMARK 923 INTER-LIGAND FREE ENERGY PREDICTED BY IDOCK:   -5.99 KCAL/MOL
REMARK 924 INTRA-LIGAND FREE ENERGY PREDICTED BY IDOCK:   -0.44 KCAL/MOL
REMARK 927      BINDING AFFINITY PREDICTED BY RF-SCORE:    0.00 PKD
ROOT
HETATM    1  C   UNL     1      -6.240   7.743  66.385  1.00  0.00    -0.045 C  
HETATM    2  N   UNL     1      -6.919   8.535  67.412  1.00  0.00    -0.077 NA 
HETATM    3  C   UNL     1      -6.715   7.924  68.726  1.00  0.00    -0.057 C  
ENDROOT
BRANCH   2   4
HETATM    4  C   UNL     1      -6.461   9.941  67.364  1.00  0.00    -0.068 C  
BRANCH   4   5
HETATM    5  C   UNL     1      -7.338  10.838  66.473  1.00  0.00    -0.139 C  
BRANCH   5   6
HETATM    6  C   UNL     1      -8.383  11.616  67.241  1.00  0.00    -0.158 C  
BRANCH   6   7
HETATM    7  C   UNL     1      -9.720  11.430  67.192  1.00  0.00    -0.200 A  
HETATM    8  C   UNL     1     -10.467  11.805  65.967  1.00  0.00    -0.286 A  
HETATM    9  C   UNL     1     -10.268  11.088  64.778  1.00  0.00    -0.381 A  
HETATM   10  C   UNL     1     -11.052  11.353  63.655  1.00  0.00    -0.411 A  
HETATM   11  C   UNL     1     -12.027  12.345  63.705  1.00  0.00    -0.600 A  
HETATM   12  C   UNL     1     -12.217  13.080  64.877  1.00  0.00    -0.490 A  
HETATM   13  C   UNL     1     -11.458  12.807  66.025  1.00  0.00    -0.396 A  
HETATM   14  C   UNL     1     -11.715  13.621  67.230  1.00  0.00    -0.416 A  
HETATM   15  C   UNL     1     -11.701  13.202  68.507  1.00  0.00    -0.387 A  
HETATM   16  C   UNL     1     -11.428  11.832  68.982  1.00  0.00    -0.358 A  
HETATM   17  C   UNL     1     -12.121  11.371  70.109  1.00  0.00    -0.439 A  
HETATM   18  C   UNL     1     -11.901  10.082  70.607  1.00  0.00    -0.411 A  
HETATM   19  C   UNL     1     -10.987   9.238  69.986  1.00  0.00    -0.254 A  
HETATM   20  C   UNL     1     -10.279   9.685  68.873  1.00  0.00    -0.214 A  
HETATM   21  C   UNL     1     -10.475  10.986  68.382  1.00  0.00    -0.203 A  
ENDBRANCH   6   7
ENDBRANCH   5   6
ENDBRANCH   4   5
ENDBRANCH   2   4
TORSDOF 4
ENDMDL
MODEL       72
REMARK 921   NORMALIZED FREE ENERGY PREDICTED BY IDOCK:   -4.84 KCAL/MOL
REMARK 922        TOTAL FREE ENERGY PREDICTED BY IDOCK:   -6.42 KCAL/MOL
REMARK 923 INTER-LIGAND FREE ENERGY PREDICTED BY IDOCK:   -5.99 KCAL/MOL
REMARK 924 INTRA-LIGAND FREE ENERGY PREDICTED BY IDOCK:   -0.43 KCAL/MOL
REMARK 927      BINDING AFFINITY PREDICTED BY RF-SCORE:    0.00 PKD
ROOT
HETATM    1  C   UNL     1     -12.458  12.655  64.852  1.00  0.00    -0.494 C  
HETATM    2  N   UNL     1     -11.666  13.007  66.032  1.00  0.00    -0.372 NA 
HETATM    3  C   UNL     1     -12.045  14.340  66.504  1.00  0.00    -0.429 C  
ENDROOT
BRANCH   2   4
HETATM    4  C   UNL     1     -11.814  11.973  67.079  1.00  0.00    -0.176 C  
BRANCH   4   5
HETATM    5  C   UNL     1     -10.519  11.186  67.345  1.00  0.00    -0.255 C  
BRANCH   5   6
HETATM    6  C   UNL     1     -10.747   9.864  68.045  1.00  0.00    -0.296 C  
BRANCH   6   7
HETATM    7  C   UNL     1     -10.474   9.582  69.337  1.00  0.00    -0.231 A  
HETATM    8  C   UNL     1      -9.118   9.113  69.712  1.00  0.00    -0.173 A  
HETATM    9  C   UNL     1      -8.024   9.984  69.614  1.00  0.00    -0.176 A  
HETATM   10  C   UNL     1      -6.768   9.594  70.078  1.00  0.00    -0.079 A  
HETATM   11  C   UNL     1      -6.591   8.327  70.627  1.00  0.00    -0.037 A  
HETATM   12  C   UNL     1      -7.670   7.444  70.709  1.00  0.00    -0.088 A  
HETATM   13  C   UNL     1      -8.946   7.830  70.274  1.00  0.00    -0.148 A  
HETATM   14  C   UNL     1     -10.041   6.847  70.393  1.00  0.00    -0.201 A  
HETATM   15  C   UNL     1     -11.321   7.098  70.717  1.00  0.00    -0.322 A  
HETATM   16  C   UNL     1     -11.910   8.414  71.026  1.00  0.00    -0.278 A  
HETATM   17  C   UNL     1     -12.922   8.477  71.995  1.00  0.00    -0.406 A  
HETATM   18  C   UNL     1     -13.519   9.697  72.328  1.00  0.00    -0.488 A  
HETATM   19  C   UNL     1     -13.116  10.870  71.699  1.00  0.00    -0.538 A  
HETATM   20  C   UNL     1     -12.122  10.824  70.724  1.00  0.00    -0.473 A  
HETATM   21  C   UNL     1     -11.534   9.600  70.366  1.00  0.00    -0.325 A  
ENDBRANCH   6   7
ENDBRANCH   5   6
ENDBRANCH   4   5
ENDBRANCH   2   4
TORSDOF 4
ENDMDL
MODEL       73
REMARK 921   NORMALIZED FREE ENERGY PREDICTED BY IDOCK:   -4.83 KCAL/MOL
REMARK 922        TOTAL FREE ENERGY PREDICTED BY IDOCK:   -6.41 KCAL/MOL
REMARK 923 INTER-LIGAND FREE ENERGY PREDICTED BY IDOCK:   -5.79 KCAL/MOL
REMARK 924 INTRA-LIGAND FREE ENERGY PREDICTED BY IDOCK:   -0.62 KCAL/MOL
REMARK 927      BINDING AFFINITY PREDICTED BY RF-SCORE:    0.00 PKD
ROOT
HETATM    1  C   UNL     1      -6.663  15.975  68.827  1.00  0.00    -0.129 C  
HETATM    2  N   UNL     1      -6.635  14.894  67.840  1.00  0.00    -0.144 NA 
HETATM    3  C   UNL     1      -5.634  13.897  68.225  1.00  0.00    -0.111 C  
ENDROOT
BRANCH   2   4
HETATM    4  C   UNL     1      -7.984  14.309  67.679  1.00  0.00    -0.180 C  
BRANCH   4   5
HETATM    5  C   UNL     1      -7.961  12.810  67.334  1.00  0.00    -0.179 C  
BRANCH   5   6
HETATM    6  C   UNL     1      -9.241  12.088  67.691  1.00  0.00    -0.182 C  
BRANCH   6   7
HETATM    7  C   UNL     1      -9.974  11.300  66.874  1.00  0.00    -0.238 A  
HETATM    8  C   UNL     1      -9.915   9.827  67.031  1.00  0.00    -0.259 A  
HETATM    9  C   UNL     1     -10.447   9.223  68.179  1.00  0.00    -0.263 A  
HETATM   10  C   UNL     1     -10.507   7.834  68.282  1.00  0.00    -0.215 A  
HETATM   11  C   UNL     1     -10.022   7.038  67.249  1.00  0.00    -0.235 A  
HETATM   12  C   UNL     1      -9.468   7.629  66.111  1.00  0.00    -0.117 A  
HETATM   13  C   UNL     1      -9.427   9.025  65.977  1.00  0.00    -0.323 A  
HETATM   14  C   UNL     1      -8.831   9.582  64.747  1.00  0.00    -0.244 A  
HETATM   15  C   UNL     1      -9.241  10.669  64.071  1.00  0.00    -0.269 A  
HETATM   16  C   UNL     1     -10.380  11.542  64.412  1.00  0.00    -0.364 A  
HETATM   17  C   UNL     1     -11.122  12.104  63.365  1.00  0.00    -0.495 A  
HETATM   18  C   UNL     1     -12.210  12.942  63.628  1.00  0.00    -0.581 A  
HETATM   19  C   UNL     1     -12.572  13.230  64.940  1.00  0.00    -0.444 A  
HETATM   20  C   UNL     1     -11.837  12.691  65.993  1.00  0.00    -0.492 A  
HETATM   21  C   UNL     1     -10.728  11.869  65.737  1.00  0.00    -0.327 A  
ENDBRANCH   6   7
ENDBRANCH   5   6
ENDBRANCH   4   5
ENDBRANCH   2   4
TORSDOF 4
ENDMDL
MODEL       74
REMARK 921   NORMALIZED FREE ENERGY PREDICTED BY IDOCK:   -4.82 KCAL/MOL
REMARK 922        TOTAL FREE ENERGY PREDICTED BY IDOCK:   -6.40 KCAL/MOL
REMARK 923 INTER-LIGAND FREE ENERGY PREDICTED BY IDOCK:   -5.60 KCAL/MOL
REMARK 924 INTRA-LIGAND FREE ENERGY PREDICTED BY IDOCK:   -0.80 KCAL/MOL
REMARK 927      BINDING AFFINITY PREDICTED BY RF-SCORE:    0.00 PKD
ROOT
HETATM    1  C   UNL     1     -11.538  12.873  63.455  1.00  0.00    -0.468 C  
HETATM    2  N   UNL     1     -10.426  13.054  64.390  1.00  0.00    -0.399 NA 
HETATM    3  C   UNL     1     -10.388  14.442  64.855  1.00  0.00    -0.389 C  
ENDROOT
BRANCH   2   4
HETATM    4  C   UNL     1     -10.528  12.087  65.505  1.00  0.00    -0.269 C  
BRANCH   4   5
HETATM    5  C   UNL     1     -11.902  12.098  66.197  1.00  0.00    -0.327 C  
BRANCH   5   6
HETATM    6  C   UNL     1     -11.852  11.668  67.647  1.00  0.00    -0.216 C  
BRANCH   6   7
HETATM    7  C   UNL     1     -10.984  12.106  68.585  1.00  0.00    -0.284 A  
HETATM    8  C   UNL     1     -10.974  13.540  68.959  1.00  0.00    -0.264 A  
HETATM    9  C   UNL     1     -12.069  14.095  69.636  1.00  0.00    -0.400 A  
HETATM   10  C   UNL     1     -12.021  15.409  70.101  1.00  0.00    -0.378 A  
HETATM   11  C   UNL     1     -10.886  16.184  69.879  1.00  0.00    -0.355 A  
HETATM   12  C   UNL     1      -9.798  15.648  69.185  1.00  0.00    -0.247 A  
HETATM   13  C   UNL     1      -9.818  14.319  68.737  1.00  0.00    -0.189 A  
HETATM   14  C   UNL     1      -8.633  13.817  68.014  1.00  0.00    -0.177 A  
HETATM   15  C   UNL     1      -8.100  12.586  68.092  1.00  0.00    -0.167 A  
HETATM   16  C   UNL     1      -8.584  11.467  68.922  1.00  0.00    -0.020 A  
HETATM   17  C   UNL     1      -7.638  10.593  69.475  1.00  0.00    -0.128 A  
HETATM   18  C   UNL     1      -8.039   9.512  70.267  1.00  0.00    -0.200 A  
HETATM   19  C   UNL     1      -9.388   9.289  70.518  1.00  0.00    -0.316 A  
HETATM   20  C   UNL     1     -10.343  10.140  69.965  1.00  0.00    -0.301 A  
HETATM   21  C   UNL     1      -9.951  11.212  69.148  1.00  0.00    -0.104 A  
ENDBRANCH   6   7
ENDBRANCH   5   6
ENDBRANCH   4   5
ENDBRANCH   2   4
TORSDOF 4
ENDMDL
MODEL       75
REMARK 921   NORMALIZED FREE ENERGY PREDICTED BY IDOCK:   -4.81 KCAL/MOL
REMARK 922        TOTAL FREE ENERGY PREDICTED BY IDOCK:   -6.39 KCAL/MOL
REMARK 923 INTER-LIGAND FREE ENERGY PREDICTED BY IDOCK:   -5.63 KCAL/MOL
REMARK 924 INTRA-LIGAND FREE ENERGY PREDICTED BY IDOCK:   -0.76 KCAL/MOL
REMARK 927      BINDING AFFINITY PREDICTED BY RF-SCORE:    0.00 PKD
ROOT
HETATM    1  C   UNL     1      -8.708   4.457  67.604  1.00  0.00    -0.105 C  
HETATM    2  N   UNL     1      -9.689   4.406  68.690  1.00  0.00    -0.147 NA 
HETATM    3  C   UNL     1      -9.269   3.424  69.692  1.00  0.00    -0.154 C  
ENDROOT
BRANCH   2   4
HETATM    4  C   UNL     1      -9.888   5.753  69.267  1.00  0.00    -0.170 C  
BRANCH   4   5
HETATM    5  C   UNL     1     -11.261   5.933  69.935  1.00  0.00    -0.339 C  
BRANCH   5   6
HETATM    6  C   UNL     1     -11.179   6.338  71.390  1.00  0.00    -0.349 C  
BRANCH   6   7
HETATM    7  C   UNL     1     -10.736   7.521  71.871  1.00  0.00    -0.253 A  
HETATM    8  C   UNL     1     -11.486   8.762  71.563  1.00  0.00    -0.375 A  
HETATM    9  C   UNL     1     -12.765   8.960  72.102  1.00  0.00    -0.470 A  
HETATM   10  C   UNL     1     -13.428  10.173  71.919  1.00  0.00    -0.426 A  
HETATM   11  C   UNL     1     -12.828  11.191  71.184  1.00  0.00    -0.473 A  
HETATM   12  C   UNL     1     -11.564  10.995  70.623  1.00  0.00    -0.268 A  
HETATM   13  C   UNL     1     -10.869   9.792  70.821  1.00  0.00    -0.403 A  
HETATM   14  C   UNL     1      -9.536   9.656  70.203  1.00  0.00    -0.298 A  
HETATM   15  C   UNL     1      -8.462   9.040  70.725  1.00  0.00    -0.238 A  
HETATM   16  C   UNL     1      -8.382   8.366  72.034  1.00  0.00    -0.231 A  
HETATM   17  C   UNL     1      -7.175   8.436  72.744  1.00  0.00    -0.109 A  
HETATM   18  C   UNL     1      -7.040   7.813  73.989  1.00  0.00    -0.139 A  
HETATM   19  C   UNL     1      -8.107   7.114  74.543  1.00  0.00    -0.192 A  
HETATM   20  C   UNL     1      -9.309   7.022  73.845  1.00  0.00    -0.264 A  
HETATM   21  C   UNL     1      -9.446   7.623  72.583  1.00  0.00    -0.230 A  
ENDBRANCH   6   7
ENDBRANCH   5   6
ENDBRANCH   4   5
ENDBRANCH   2   4
TORSDOF 4
ENDMDL
MODEL       76
REMARK 921   NORMALIZED FREE ENERGY PREDICTED BY IDOCK:   -4.80 KCAL/MOL
REMARK 922        TOTAL FREE ENERGY PREDICTED BY IDOCK:   -6.38 KCAL/MOL
REMARK 923 INTER-LIGAND FREE ENERGY PREDICTED BY IDOCK:   -6.21 KCAL/MOL
REMARK 924 INTRA-LIGAND FREE ENERGY PREDICTED BY IDOCK:   -0.17 KCAL/MOL
REMARK 927      BINDING AFFINITY PREDICTED BY RF-SCORE:    0.00 PKD
ROOT
HETATM    1  C   UNL     1     -13.552  12.849  72.238  1.00  0.00    -0.515 C  
HETATM    2  N   UNL     1     -13.505  14.094  71.469  1.00  0.00    -0.348 NA 
HETATM    3  C   UNL     1     -14.025  15.198  72.278  1.00  0.00    -0.530 C  
ENDROOT
BRANCH   2   4
HETATM    4  C   UNL     1     -12.131  14.346  70.983  1.00  0.00    -0.349 C  
BRANCH   4   5
HETATM    5  C   UNL     1     -11.920  15.780  70.468  1.00  0.00    -0.401 C  
BRANCH   5   6
HETATM    6  C   UNL     1     -11.999  15.900  68.962  1.00  0.00    -0.243 C  
BRANCH   6   7
HETATM    7  C   UNL     1     -11.035  15.563  68.078  1.00  0.00    -0.311 A  
HETATM    8  C   UNL     1      -9.613  15.802  68.421  1.00  0.00    -0.200 A  
HETATM    9  C   UNL     1      -9.005  15.064  69.447  1.00  0.00    -0.113 A  
HETATM   10  C   UNL     1      -7.640  15.194  69.696  1.00  0.00    -0.163 A  
HETATM   11  C   UNL     1      -6.873  16.072  68.935  1.00  0.00    -0.143 A  
HETATM   12  C   UNL     1      -7.473  16.828  67.926  1.00  0.00    -0.169 A  
HETATM   13  C   UNL     1      -8.839  16.689  67.642  1.00  0.00    -0.203 A  
HETATM   14  C   UNL     1      -9.406  17.518  66.559  1.00  0.00    -0.281 A  
HETATM   15  C   UNL     1     -10.348  17.155  65.672  1.00  0.00    -0.198 A  
HETATM   16  C   UNL     1     -11.021  15.845  65.587  1.00  0.00    -0.207 A  
HETATM   17  C   UNL     1     -11.362  15.355  64.319  1.00  0.00    -0.136 A  
HETATM   18  C   UNL     1     -12.004  14.121  64.177  1.00  0.00    -0.421 A  
HETATM   19  C   UNL     1     -12.314  13.359  65.299  1.00  0.00    -0.513 A  
HETATM   20  C   UNL     1     -11.995  13.837  66.568  1.00  0.00    -0.470 A  
HETATM   21  C   UNL     1     -11.373  15.086  66.721  1.00  0.00    -0.293 A  
ENDBRANCH   6   7
ENDBRANCH   5   6
ENDBRANCH   4   5
ENDBRANCH   2   4
TORSDOF 4
ENDMDL
MODEL       77
REMARK 921   NORMALIZED FREE ENERGY PREDICTED BY IDOCK:   -4.80 KCAL/MOL
REMARK 922        TOTAL FREE ENERGY PREDICTED BY IDOCK:   -6.38 KCAL/MOL
REMARK 923 INTER-LIGAND FREE ENERGY PREDICTED BY IDOCK:   -5.76 KCAL/MOL
REMARK 924 INTRA-LIGAND FREE ENERGY PREDICTED BY IDOCK:   -0.62 KCAL/MOL
REMARK 927      BINDING AFFINITY PREDICTED BY RF-SCORE:    0.00 PKD
ROOT
HETATM    1  C   UNL     1      -8.870  18.347  66.634  1.00  0.00    -0.289 C  
HETATM    2  N   UNL     1      -8.635  17.713  67.932  1.00  0.00    -0.233 NA 
HETATM    3  C   UNL     1      -7.503  18.356  68.601  1.00  0.00    -0.296 C  
ENDROOT
BRANCH   2   4
HETATM    4  C   UNL     1      -9.868  17.744  68.750  1.00  0.00    -0.343 C  
BRANCH   4   5
HETATM    5  C   UNL     1     -10.461  16.349  69.010  1.00  0.00    -0.288 C  
BRANCH   5   6
HETATM    6  C   UNL     1      -9.481  15.221  68.775  1.00  0.00    -0.212 C  
BRANCH   6   7
HETATM    7  C   UNL     1      -9.621  14.205  67.895  1.00  0.00    -0.223 A  
HETATM    8  C   UNL     1     -10.575  14.341  66.769  1.00  0.00    -0.278 A  
HETATM    9  C   UNL     1     -10.324  15.265  65.745  1.00  0.00    -0.364 A  
HETATM   10  C   UNL     1     -11.148  15.316  64.621  1.00  0.00    -0.346 A  
HETATM   11  C   UNL     1     -12.238  14.456  64.519  1.00  0.00    -0.483 A  
HETATM   12  C   UNL     1     -12.511  13.547  65.543  1.00  0.00    -0.538 A  
HETATM   13  C   UNL     1     -11.675  13.462  66.667  1.00  0.00    -0.428 A  
HETATM   14  C   UNL     1     -12.021  12.476  67.710  1.00  0.00    -0.286 A  
HETATM   15  C   UNL     1     -11.167  11.733  68.435  1.00  0.00    -0.307 A  
HETATM   16  C   UNL     1      -9.695  11.740  68.342  1.00  0.00    -0.197 A  
HETATM   17  C   UNL     1      -9.012  10.532  68.539  1.00  0.00    -0.147 A  
HETATM   18  C   UNL     1      -7.617  10.478  68.467  1.00  0.00    -0.097 A  
HETATM   19  C   UNL     1      -6.884  11.629  68.196  1.00  0.00    -0.068 A  
HETATM   20  C   UNL     1      -7.545  12.841  68.012  1.00  0.00    -0.131 A  
HETATM   21  C   UNL     1      -8.945  12.909  68.108  1.00  0.00    -0.202 A  
ENDBRANCH   6   7
ENDBRANCH   5   6
ENDBRANCH   4   5
ENDBRANCH   2   4
TORSDOF 4
ENDMDL
MODEL       78
REMARK 921   NORMALIZED FREE ENERGY PREDICTED BY IDOCK:   -4.80 KCAL/MOL
REMARK 922        TOTAL FREE ENERGY PREDICTED BY IDOCK:   -6.37 KCAL/MOL
REMARK 923 INTER-LIGAND FREE ENERGY PREDICTED BY IDOCK:   -5.60 KCAL/MOL
REMARK 924 INTRA-LIGAND FREE ENERGY PREDICTED BY IDOCK:   -0.77 KCAL/MOL
REMARK 927      BINDING AFFINITY PREDICTED BY RF-SCORE:    0.00 PKD
ROOT
HETATM    1  C   UNL     1      -8.339   3.182  72.355  1.00  0.00    -0.075 C  
HETATM    2  N   UNL     1      -9.617   2.964  73.036  1.00  0.00    -0.095 NA 
HETATM    3  C   UNL     1      -9.786   1.540  73.331  1.00  0.00    -0.072 C  
ENDROOT
BRANCH   2   4
HETATM    4  C   UNL     1      -9.704   3.808  74.248  1.00  0.00    -0.113 C  
BRANCH   4   5
HETATM    5  C   UNL     1     -10.207   5.233  73.964  1.00  0.00    -0.273 C  
BRANCH   5   6
HETATM    6  C   UNL     1     -11.215   5.305  72.838  1.00  0.00    -0.375 C  
BRANCH   6   7
HETATM    7  C   UNL     1     -11.213   6.187  71.814  1.00  0.00    -0.338 A  
HETATM    8  C   UNL     1     -10.186   6.070  70.751  1.00  0.00    -0.258 A  
HETATM    9  C   UNL     1     -10.202   4.973  69.879  1.00  0.00    -0.340 A  
HETATM   10  C   UNL     1      -9.317   4.914  68.802  1.00  0.00    -0.184 A  
HETATM   11  C   UNL     1      -8.400   5.941  68.598  1.00  0.00    -0.109 A  
HETATM   12  C   UNL     1      -8.361   7.027  69.474  1.00  0.00    -0.133 A  
HETATM   13  C   UNL     1      -9.262   7.117  70.545  1.00  0.00    -0.158 A  
HETATM   14  C   UNL     1      -9.166   8.295  71.430  1.00  0.00    -0.218 A  
HETATM   15  C   UNL     1     -10.183   8.961  72.003  1.00  0.00    -0.363 A  
HETATM   16  C   UNL     1     -11.621   8.659  71.869  1.00  0.00    -0.420 A  
HETATM   17  C   UNL     1     -12.525   9.730  71.854  1.00  0.00    -0.451 A  
HETATM   18  C   UNL     1     -13.900   9.504  71.732  1.00  0.00    -0.313 A  
HETATM   19  C   UNL     1     -14.390   8.207  71.625  1.00  0.00    -0.570 A  
HETATM   20  C   UNL     1     -13.507   7.131  71.653  1.00  0.00    -0.397 A  
HETATM   21  C   UNL     1     -12.128   7.347  71.800  1.00  0.00    -0.345 A  
ENDBRANCH   6   7
ENDBRANCH   5   6
ENDBRANCH   4   5
ENDBRANCH   2   4
TORSDOF 4
ENDMDL
MODEL       79
REMARK 921   NORMALIZED FREE ENERGY PREDICTED BY IDOCK:   -4.79 KCAL/MOL
REMARK 922        TOTAL FREE ENERGY PREDICTED BY IDOCK:   -6.37 KCAL/MOL
REMARK 923 INTER-LIGAND FREE ENERGY PREDICTED BY IDOCK:   -5.71 KCAL/MOL
REMARK 924 INTRA-LIGAND FREE ENERGY PREDICTED BY IDOCK:   -0.66 KCAL/MOL
REMARK 927      BINDING AFFINITY PREDICTED BY RF-SCORE:    0.00 PKD
ROOT
HETATM    1  C   UNL     1      -8.996  19.381  68.590  1.00  0.00    -0.372 C  
HETATM    2  N   UNL     1      -9.644  18.593  67.540  1.00  0.00    -0.290 NA 
HETATM    3  C   UNL     1     -10.290  19.486  66.576  1.00  0.00    -0.482 C  
ENDROOT
BRANCH   2   4
HETATM    4  C   UNL     1      -8.667  17.684  66.902  1.00  0.00    -0.246 C  
BRANCH   4   5
HETATM    5  C   UNL     1      -9.324  16.507  66.161  1.00  0.00    -0.339 C  
BRANCH   5   6
HETATM    6  C   UNL     1      -8.806  15.154  66.595  1.00  0.00    -0.321 C  
BRANCH   6   7
HETATM    7  C   UNL     1      -9.459  14.251  67.358  1.00  0.00    -0.211 A  
HETATM    8  C   UNL     1      -9.414  12.815  66.992  1.00  0.00    -0.233 A  
HETATM    9  C   UNL     1      -8.209  12.105  67.088  1.00  0.00    -0.182 A  
HETATM   10  C   UNL     1      -8.180  10.728  66.864  1.00  0.00    -0.130 A  
HETATM   11  C   UNL     1      -9.350  10.054  66.526  1.00  0.00    -0.201 A  
HETATM   12  C   UNL     1     -10.551  10.756  66.405  1.00  0.00    -0.266 A  
HETATM   13  C   UNL     1     -10.604  12.135  66.656  1.00  0.00    -0.266 A  
HETATM   14  C   UNL     1     -11.909  12.812  66.512  1.00  0.00    -0.471 A  
HETATM   15  C   UNL     1     -12.390  13.808  67.275  1.00  0.00    -0.203 A  
HETATM   16  C   UNL     1     -11.719  14.441  68.426  1.00  0.00    -0.367 A  
HETATM   17  C   UNL     1     -12.508  14.863  69.504  1.00  0.00    -0.123 A  
HETATM   18  C   UNL     1     -11.927  15.473  70.621  1.00  0.00    -0.416 A  
HETATM   19  C   UNL     1     -10.552  15.668  70.676  1.00  0.00    -0.143 A  
HETATM   20  C   UNL     1      -9.754  15.267  69.608  1.00  0.00    -0.208 A  
HETATM   21  C   UNL     1     -10.331  14.678  68.472  1.00  0.00    -0.238 A  
ENDBRANCH   6   7
ENDBRANCH   5   6
ENDBRANCH   4   5
ENDBRANCH   2   4
TORSDOF 4
ENDMDL
MODEL       80
REMARK 921   NORMALIZED FREE ENERGY PREDICTED BY IDOCK:   -4.79 KCAL/MOL
REMARK 922        TOTAL FREE ENERGY PREDICTED BY IDOCK:   -6.36 KCAL/MOL
REMARK 923 INTER-LIGAND FREE ENERGY PREDICTED BY IDOCK:   -5.65 KCAL/MOL
REMARK 924 INTRA-LIGAND FREE ENERGY PREDICTED BY IDOCK:   -0.72 KCAL/MOL
REMARK 927      BINDING AFFINITY PREDICTED BY RF-SCORE:    0.00 PKD
ROOT
HETATM    1  C   UNL     1      -9.707   8.641  66.534  1.00  0.00    -0.255 C  
HETATM    2  N   UNL     1      -9.702   7.212  66.851  1.00  0.00    -0.175 NA 
HETATM    3  C   UNL     1      -8.722   6.520  66.012  1.00  0.00    -0.148 C  
ENDROOT
BRANCH   2   4
HETATM    4  C   UNL     1      -9.457   7.007  68.295  1.00  0.00    -0.128 C  
BRANCH   4   5
HETATM    5  C   UNL     1     -10.021   5.678  68.826  1.00  0.00    -0.221 C  
BRANCH   5   6
HETATM    6  C   UNL     1     -11.097   5.854  69.875  1.00  0.00    -0.417 C  
BRANCH   6   7
HETATM    7  C   UNL     1     -11.010   6.601  70.998  1.00  0.00    -0.305 A  
HETATM    8  C   UNL     1     -11.996   7.682  71.234  1.00  0.00    -0.330 A  
HETATM    9  C   UNL     1     -13.338   7.365  71.485  1.00  0.00    -0.435 A  
HETATM   10  C   UNL     1     -14.248   8.364  71.829  1.00  0.00    -0.536 A  
HETATM   11  C   UNL     1     -13.829   9.689  71.909  1.00  0.00    -0.291 A  
HETATM   12  C   UNL     1     -12.499  10.019  71.639  1.00  0.00    -0.513 A  
HETATM   13  C   UNL     1     -11.564   9.023  71.320  1.00  0.00    -0.387 A  
HETATM   14  C   UNL     1     -10.175   9.444  71.050  1.00  0.00    -0.369 A  
HETATM   15  C   UNL     1      -9.051   8.791  71.395  1.00  0.00    -0.313 A  
HETATM   16  C   UNL     1      -8.963   7.511  72.122  1.00  0.00    -0.159 A  
HETATM   17  C   UNL     1      -7.899   7.327  73.015  1.00  0.00    -0.113 A  
HETATM   18  C   UNL     1      -7.762   6.133  73.730  1.00  0.00    -0.094 A  
HETATM   19  C   UNL     1      -8.686   5.107  73.563  1.00  0.00    -0.114 A  
HETATM   20  C   UNL     1      -9.742   5.267  72.670  1.00  0.00    -0.175 A  
HETATM   21  C   UNL     1      -9.873   6.453  71.929  1.00  0.00    -0.172 A  
ENDBRANCH   6   7
ENDBRANCH   5   6
ENDBRANCH   4   5
ENDBRANCH   2   4
TORSDOF 4
ENDMDL
MODEL       81
REMARK 921   NORMALIZED FREE ENERGY PREDICTED BY IDOCK:   -4.76 KCAL/MOL
REMARK 922        TOTAL FREE ENERGY PREDICTED BY IDOCK:   -6.33 KCAL/MOL
REMARK 923 INTER-LIGAND FREE ENERGY PREDICTED BY IDOCK:   -5.72 KCAL/MOL
REMARK 924 INTRA-LIGAND FREE ENERGY PREDICTED BY IDOCK:   -0.61 KCAL/MOL
REMARK 927      BINDING AFFINITY PREDICTED BY RF-SCORE:    0.00 PKD
ROOT
HETATM    1  C   UNL     1      -9.529  10.849  66.208  1.00  0.00    -0.194 C  
HETATM    2  N   UNL     1      -9.164  11.110  67.601  1.00  0.00    -0.149 NA 
HETATM    3  C   UNL     1      -9.062  12.553  67.826  1.00  0.00    -0.191 C  
ENDROOT
BRANCH   2   4
HETATM    4  C   UNL     1     -10.128  10.461  68.516  1.00  0.00    -0.171 C  
BRANCH   4   5
HETATM    5  C   UNL     1      -9.523   9.290  69.310  1.00  0.00    -0.160 C  
BRANCH   5   6
HETATM    6  C   UNL     1      -9.617   9.464  70.809  1.00  0.00    -0.322 C  
BRANCH   6   7
HETATM    7  C   UNL     1     -10.168   8.596  71.685  1.00  0.00    -0.366 A  
HETATM    8  C   UNL     1      -9.290   7.735  72.513  1.00  0.00    -0.234 A  
HETATM    9  C   UNL     1      -8.483   8.308  73.506  1.00  0.00    -0.264 A  
HETATM   10  C   UNL     1      -7.746   7.499  74.371  1.00  0.00    -0.184 A  
HETATM   11  C   UNL     1      -7.796   6.114  74.240  1.00  0.00    -0.098 A  
HETATM   12  C   UNL     1      -8.580   5.534  73.240  1.00  0.00    -0.116 A  
HETATM   13  C   UNL     1      -9.350   6.331  72.381  1.00  0.00    -0.141 A  
HETATM   14  C   UNL     1     -10.157   5.651  71.348  1.00  0.00    -0.254 A  
HETATM   15  C   UNL     1     -11.382   6.001  70.920  1.00  0.00    -0.299 A  
HETATM   16  C   UNL     1     -12.189   7.142  71.392  1.00  0.00    -0.399 A  
HETATM   17  C   UNL     1     -13.581   6.989  71.457  1.00  0.00    -0.355 A  
HETATM   18  C   UNL     1     -14.397   8.037  71.894  1.00  0.00    -0.559 A  
HETATM   19  C   UNL     1     -13.834   9.252  72.272  1.00  0.00    -0.492 A  
HETATM   20  C   UNL     1     -12.455   9.426  72.200  1.00  0.00    -0.396 A  
HETATM   21  C   UNL     1     -11.630   8.387  71.739  1.00  0.00    -0.372 A  
ENDBRANCH   6   7
ENDBRANCH   5   6
ENDBRANCH   4   5
ENDBRANCH   2   4
TORSDOF 4
ENDMDL
MODEL       82
REMARK 921   NORMALIZED FREE ENERGY PREDICTED BY IDOCK:   -4.76 KCAL/MOL
REMARK 922        TOTAL FREE ENERGY PREDICTED BY IDOCK:   -6.33 KCAL/MOL
REMARK 923 INTER-LIGAND FREE ENERGY PREDICTED BY IDOCK:   -5.85 KCAL/MOL
REMARK 924 INTRA-LIGAND FREE ENERGY PREDICTED BY IDOCK:   -0.48 KCAL/MOL
REMARK 927      BINDING AFFINITY PREDICTED BY RF-SCORE:    0.00 PKD
ROOT
HETATM    1  C   UNL     1     -11.824  13.663  64.218  1.00  0.00    -0.425 C  
HETATM    2  N   UNL     1     -10.940  13.783  65.378  1.00  0.00    -0.300 NA 
HETATM    3  C   UNL     1     -11.572  14.617  66.401  1.00  0.00    -0.339 C  
ENDROOT
BRANCH   2   4
HETATM    4  C   UNL     1     -10.575  12.442  65.887  1.00  0.00    -0.258 C  
BRANCH   4   5
HETATM    5  C   UNL     1     -11.510  11.937  66.998  1.00  0.00    -0.384 C  
BRANCH   5   6
HETATM    6  C   UNL     1     -11.038  10.657  67.651  1.00  0.00    -0.385 C  
BRANCH   6   7
HETATM    7  C   UNL     1     -10.516  10.532  68.891  1.00  0.00    -0.226 A  
HETATM    8  C   UNL     1      -9.045  10.458  69.061  1.00  0.00    -0.193 A  
HETATM    9  C   UNL     1      -8.250  11.577  68.780  1.00  0.00    -0.082 A  
HETATM   10  C   UNL     1      -6.882  11.558  69.052  1.00  0.00    -0.107 A  
HETATM   11  C   UNL     1      -6.296  10.416  69.591  1.00  0.00    -0.068 A  
HETATM   12  C   UNL     1      -7.075   9.288  69.854  1.00  0.00    -0.064 A  
HETATM   13  C   UNL     1      -8.458   9.300  69.614  1.00  0.00    -0.140 A  
HETATM   14  C   UNL     1      -9.220   8.073  69.918  1.00  0.00    -0.152 A  
HETATM   15  C   UNL     1     -10.461   7.998  70.430  1.00  0.00    -0.218 A  
HETATM   16  C   UNL     1     -11.330   9.130  70.802  1.00  0.00    -0.337 A  
HETATM   17  C   UNL     1     -12.171   8.983  71.914  1.00  0.00    -0.451 A  
HETATM   18  C   UNL     1     -13.020  10.021  72.312  1.00  0.00    -0.356 A  
HETATM   19  C   UNL     1     -13.039  11.220  71.607  1.00  0.00    -0.513 A  
HETATM   20  C   UNL     1     -12.220  11.378  70.492  1.00  0.00    -0.478 A  
HETATM   21  C   UNL     1     -11.384  10.332  70.070  1.00  0.00    -0.370 A  
ENDBRANCH   6   7
ENDBRANCH   5   6
ENDBRANCH   4   5
ENDBRANCH   2   4
TORSDOF 4
ENDMDL
MODEL       83
REMARK 921   NORMALIZED FREE ENERGY PREDICTED BY IDOCK:   -4.74 KCAL/MOL
REMARK 922        TOTAL FREE ENERGY PREDICTED BY IDOCK:   -6.30 KCAL/MOL
REMARK 923 INTER-LIGAND FREE ENERGY PREDICTED BY IDOCK:   -5.70 KCAL/MOL
REMARK 924 INTRA-LIGAND FREE ENERGY PREDICTED BY IDOCK:   -0.60 KCAL/MOL
REMARK 927      BINDING AFFINITY PREDICTED BY RF-SCORE:    0.00 PKD
ROOT
HETATM    1  C   UNL     1     -12.979   9.501  71.801  1.00  0.00    -0.412 C  
HETATM    2  N   UNL     1     -11.610   9.704  71.323  1.00  0.00    -0.365 NA 
HETATM    3  C   UNL     1     -11.083   8.451  70.780  1.00  0.00    -0.258 C  
ENDROOT
BRANCH   2   4
HETATM    4  C   UNL     1     -11.567  10.809  70.340  1.00  0.00    -0.339 C  
BRANCH   4   5
HETATM    5  C   UNL     1     -11.370  10.329  68.892  1.00  0.00    -0.230 C  
BRANCH   5   6
HETATM    6  C   UNL     1     -10.024  10.701  68.309  1.00  0.00    -0.173 C  
BRANCH   6   7
HETATM    7  C   UNL     1      -9.801  11.549  67.282  1.00  0.00    -0.208 A  
HETATM    8  C   UNL     1     -10.252  12.958  67.385  1.00  0.00    -0.230 A  
HETATM    9  C   UNL     1      -9.642  13.823  68.303  1.00  0.00    -0.219 A  
HETATM   10  C   UNL     1      -9.973  15.178  68.325  1.00  0.00    -0.223 A  
HETATM   11  C   UNL     1     -10.927  15.675  67.442  1.00  0.00    -0.293 A  
HETATM   12  C   UNL     1     -11.558  14.817  66.538  1.00  0.00    -0.306 A  
HETATM   13  C   UNL     1     -11.216  13.457  66.483  1.00  0.00    -0.327 A  
HETATM   14  C   UNL     1     -11.920  12.609  65.501  1.00  0.00    -0.509 A  
HETATM   15  C   UNL     1     -11.398  11.599  64.784  1.00  0.00    -0.270 A  
HETATM   16  C   UNL     1     -10.004  11.120  64.821  1.00  0.00    -0.339 A  
HETATM   17  C   UNL     1      -9.430  10.655  63.629  1.00  0.00    -0.337 A  
HETATM   18  C   UNL     1      -8.113  10.186  63.604  1.00  0.00    -0.163 A  
HETATM   19  C   UNL     1      -7.351  10.176  64.767  1.00  0.00    -0.134 A  
HETATM   20  C   UNL     1      -7.909  10.621  65.963  1.00  0.00    -0.156 A  
HETATM   21  C   UNL     1      -9.238  11.070  66.002  1.00  0.00    -0.213 A  
ENDBRANCH   6   7
ENDBRANCH   5   6
ENDBRANCH   4   5
ENDBRANCH   2   4
TORSDOF 4
ENDMDL
MODEL       84
REMARK 921   NORMALIZED FREE ENERGY PREDICTED BY IDOCK:   -4.73 KCAL/MOL
REMARK 922        TOTAL FREE ENERGY PREDICTED BY IDOCK:   -6.28 KCAL/MOL
REMARK 923 INTER-LIGAND FREE ENERGY PREDICTED BY IDOCK:   -5.86 KCAL/MOL
REMARK 924 INTRA-LIGAND FREE ENERGY PREDICTED BY IDOCK:   -0.42 KCAL/MOL
REMARK 927      BINDING AFFINITY PREDICTED BY RF-SCORE:    0.00 PKD
ROOT
HETATM    1  C   UNL     1      -9.734  16.813  69.403  1.00  0.00    -0.046 C  
HETATM    2  N   UNL     1     -10.322  17.202  68.121  1.00  0.00    -0.331 NA 
HETATM    3  C   UNL     1      -9.500  18.236  67.490  1.00  0.00    -0.266 C  
ENDROOT
BRANCH   2   4
HETATM    4  C   UNL     1     -10.501  16.015  67.256  1.00  0.00    -0.308 C  
BRANCH   4   5
HETATM    5  C   UNL     1      -9.172  15.395  66.790  1.00  0.00    -0.273 C  
BRANCH   5   6
HETATM    6  C   UNL     1      -8.960  13.980  67.282  1.00  0.00    -0.223 C  
BRANCH   6   7
HETATM    7  C   UNL     1      -9.793  12.933  67.099  1.00  0.00    -0.225 A  
HETATM    8  C   UNL     1     -10.497  12.347  68.265  1.00  0.00    -0.234 A  
HETATM    9  C   UNL     1     -11.484  13.086  68.931  1.00  0.00    -0.345 A  
HETATM   10  C   UNL     1     -12.237  12.501  69.950  1.00  0.00    -0.233 A  
HETATM   11  C   UNL     1     -11.998  11.181  70.321  1.00  0.00    -0.460 A  
HETATM   12  C   UNL     1     -11.002  10.443  69.679  1.00  0.00    -0.325 A  
HETATM   13  C   UNL     1     -10.256  11.006  68.633  1.00  0.00    -0.211 A  
HETATM   14  C   UNL     1      -9.221  10.167  67.996  1.00  0.00    -0.142 A  
HETATM   15  C   UNL     1      -8.894  10.137  66.693  1.00  0.00    -0.145 A  
HETATM   16  C   UNL     1      -9.502  10.936  65.613  1.00  0.00    -0.252 A  
HETATM   17  C   UNL     1      -9.635  10.348  64.347  1.00  0.00    -0.375 A  
HETATM   18  C   UNL     1     -10.201  11.058  63.284  1.00  0.00    -0.360 A  
HETATM   19  C   UNL     1     -10.643  12.364  63.470  1.00  0.00    -0.451 A  
HETATM   20  C   UNL     1     -10.505  12.969  64.717  1.00  0.00    -0.382 A  
HETATM   21  C   UNL     1      -9.915  12.271  65.783  1.00  0.00    -0.273 A  
ENDBRANCH   6   7
ENDBRANCH   5   6
ENDBRANCH   4   5
ENDBRANCH   2   4
TORSDOF 4
ENDMDL
MODEL       85
REMARK 921   NORMALIZED FREE ENERGY PREDICTED BY IDOCK:   -4.68 KCAL/MOL
REMARK 922        TOTAL FREE ENERGY PREDICTED BY IDOCK:   -6.23 KCAL/MOL
REMARK 923 INTER-LIGAND FREE ENERGY PREDICTED BY IDOCK:   -5.33 KCAL/MOL
REMARK 924 INTRA-LIGAND FREE ENERGY PREDICTED BY IDOCK:   -0.90 KCAL/MOL
REMARK 927      BINDING AFFINITY PREDICTED BY RF-SCORE:    0.00 PKD
ROOT
HETATM    1  C   UNL     1      -6.363   9.470  68.438  1.00  0.00    -0.052 C  
HETATM    2  N   UNL     1      -6.535  10.919  68.320  1.00  0.00    -0.057 NA 
HETATM    3  C   UNL     1      -5.495  11.607  69.088  1.00  0.00    -0.047 C  
ENDROOT
BRANCH   2   4
HETATM    4  C   UNL     1      -6.547  11.322  66.897  1.00  0.00    -0.130 C  
BRANCH   4   5
HETATM    5  C   UNL     1      -7.082  10.227  65.958  1.00  0.00    -0.128 C  
BRANCH   5   6
HETATM    6  C   UNL     1      -8.403  10.578  65.310  1.00  0.00    -0.155 C  
BRANCH   6   7
HETATM    7  C   UNL     1      -9.621  10.535  65.893  1.00  0.00    -0.254 A  
HETATM    8  C   UNL     1     -10.617  11.588  65.584  1.00  0.00    -0.326 A  
HETATM    9  C   UNL     1     -11.176  11.670  64.301  1.00  0.00    -0.392 A  
HETATM   10  C   UNL     1     -12.201  12.576  64.033  1.00  0.00    -0.566 A  
HETATM   11  C   UNL     1     -12.665  13.418  65.039  1.00  0.00    -0.420 A  
HETATM   12  C   UNL     1     -12.101  13.361  66.315  1.00  0.00    -0.475 A  
HETATM   13  C   UNL     1     -11.089  12.435  66.610  1.00  0.00    -0.336 A  
HETATM   14  C   UNL     1     -10.540  12.428  67.980  1.00  0.00    -0.238 A  
HETATM   15  C   UNL     1     -10.158  11.353  68.692  1.00  0.00    -0.217 A  
HETATM   16  C   UNL     1     -10.208   9.945  68.257  1.00  0.00    -0.204 A  
HETATM   17  C   UNL     1     -10.500   8.964  69.216  1.00  0.00    -0.234 A  
HETATM   18  C   UNL     1     -10.558   7.613  68.862  1.00  0.00    -0.176 A  
HETATM   19  C   UNL     1     -10.324   7.221  67.548  1.00  0.00    -0.310 A  
HETATM   20  C   UNL     1     -10.019   8.180  66.586  1.00  0.00    -0.339 A  
HETATM   21  C   UNL     1      -9.934   9.537  66.937  1.00  0.00    -0.278 A  
ENDBRANCH   6   7
ENDBRANCH   5   6
ENDBRANCH   4   5
ENDBRANCH   2   4
TORSDOF 4
ENDMDL
MODEL       86
REMARK 921   NORMALIZED FREE ENERGY PREDICTED BY IDOCK:   -4.67 KCAL/MOL
REMARK 922        TOTAL FREE ENERGY PREDICTED BY IDOCK:   -6.22 KCAL/MOL
REMARK 923 INTER-LIGAND FREE ENERGY PREDICTED BY IDOCK:   -5.42 KCAL/MOL
REMARK 924 INTRA-LIGAND FREE ENERGY PREDICTED BY IDOCK:   -0.80 KCAL/MOL
REMARK 927      BINDING AFFINITY PREDICTED BY RF-SCORE:    0.00 PKD
ROOT
HETATM    1  C   UNL     1     -10.220   9.006  71.800  1.00  0.00    -0.319 C  
HETATM    2  N   UNL     1     -10.494   9.520  70.457  1.00  0.00    -0.274 NA 
HETATM    3  C   UNL     1     -10.517   8.415  69.497  1.00  0.00    -0.224 C  
ENDROOT
BRANCH   2   4
HETATM    4  C   UNL     1     -11.751  10.300  70.451  1.00  0.00    -0.319 C  
BRANCH   4   5
HETATM    5  C   UNL     1     -12.101  10.882  69.071  1.00  0.00    -0.240 C  
BRANCH   5   6
HETATM    6  C   UNL     1     -11.415  12.199  68.779  1.00  0.00    -0.359 C  
BRANCH   6   7
HETATM    7  C   UNL     1     -10.536  12.441  67.782  1.00  0.00    -0.231 A  
HETATM    8  C   UNL     1     -10.712  13.641  66.928  1.00  0.00    -0.275 A  
HETATM    9  C   UNL     1     -10.533  14.920  67.471  1.00  0.00    -0.254 A  
HETATM   10  C   UNL     1     -10.575  16.048  66.652  1.00  0.00    -0.297 A  
HETATM   11  C   UNL     1     -10.813  15.908  65.287  1.00  0.00    -0.401 A  
HETATM   12  C   UNL     1     -11.016  14.639  64.740  1.00  0.00    -0.399 A  
HETATM   13  C   UNL     1     -10.947  13.492  65.544  1.00  0.00    -0.295 A  
HETATM   14  C   UNL     1     -11.167  12.183  64.898  1.00  0.00    -0.374 A  
HETATM   15  C   UNL     1     -10.537  11.028  65.175  1.00  0.00    -0.295 A  
HETATM   16  C   UNL     1      -9.484  10.820  66.187  1.00  0.00    -0.221 A  
HETATM   17  C   UNL     1      -8.464   9.902  65.902  1.00  0.00    -0.137 A  
HETATM   18  C   UNL     1      -7.441   9.660  66.824  1.00  0.00    -0.094 A  
HETATM   19  C   UNL     1      -7.422  10.332  68.042  1.00  0.00    -0.087 A  
HETATM   20  C   UNL     1      -8.435  11.237  68.347  1.00  0.00    -0.153 A  
HETATM   21  C   UNL     1      -9.480  11.467  67.438  1.00  0.00    -0.174 A  
ENDBRANCH   6   7
ENDBRANCH   5   6
ENDBRANCH   4   5
ENDBRANCH   2   4
TORSDOF 4
ENDMDL
MODEL       87
REMARK 921   NORMALIZED FREE ENERGY PREDICTED BY IDOCK:   -4.66 KCAL/MOL
REMARK 922        TOTAL FREE ENERGY PREDICTED BY IDOCK:   -6.20 KCAL/MOL
REMARK 923 INTER-LIGAND FREE ENERGY PREDICTED BY IDOCK:   -5.59 KCAL/MOL
REMARK 924 INTRA-LIGAND FREE ENERGY PREDICTED BY IDOCK:   -0.62 KCAL/MOL
REMARK 927      BINDING AFFINITY PREDICTED BY RF-SCORE:    0.00 PKD
ROOT
HETATM    1  C   UNL     1     -10.520   5.254  66.352  1.00  0.00    -0.292 C  
HETATM    2  N   UNL     1     -10.693   6.468  67.151  1.00  0.00    -0.322 NA 
HETATM    3  C   UNL     1     -10.987   6.110  68.540  1.00  0.00    -0.320 C  
ENDROOT
BRANCH   2   4
HETATM    4  C   UNL     1      -9.502   7.338  67.031  1.00  0.00    -0.156 C  
BRANCH   4   5
HETATM    5  C   UNL     1      -9.818   8.726  66.449  1.00  0.00    -0.352 C  
BRANCH   5   6
HETATM    6  C   UNL     1      -8.921   9.823  66.979  1.00  0.00    -0.152 C  
BRANCH   6   7
HETATM    7  C   UNL     1      -9.214  10.689  67.973  1.00  0.00    -0.148 A  
HETATM    8  C   UNL     1      -9.904  10.198  69.191  1.00  0.00    -0.225 A  
HETATM    9  C   UNL     1      -9.241   9.330  70.069  1.00  0.00    -0.231 A  
HETATM   10  C   UNL     1      -9.833   8.959  71.276  1.00  0.00    -0.361 A  
HETATM   11  C   UNL     1     -11.096   9.439  71.608  1.00  0.00    -0.409 A  
HETATM   12  C   UNL     1     -11.775  10.287  70.730  1.00  0.00    -0.453 A  
HETATM   13  C   UNL     1     -11.182  10.693  69.525  1.00  0.00    -0.331 A  
HETATM   14  C   UNL     1     -11.955  11.593  68.646  1.00  0.00    -0.311 A  
HETATM   15  C   UNL     1     -11.476  12.605  67.903  1.00  0.00    -0.360 A  
HETATM   16  C   UNL     1     -10.069  13.039  67.807  1.00  0.00    -0.229 A  
HETATM   17  C   UNL     1      -9.806  14.407  67.656  1.00  0.00    -0.224 A  
HETATM   18  C   UNL     1      -8.492  14.877  67.556  1.00  0.00    -0.198 A  
HETATM   19  C   UNL     1      -7.425  13.987  67.606  1.00  0.00    -0.186 A  
HETATM   20  C   UNL     1      -7.668  12.623  67.741  1.00  0.00    -0.145 A  
HETATM   21  C   UNL     1      -8.985  12.140  67.817  1.00  0.00    -0.179 A  
ENDBRANCH   6   7
ENDBRANCH   5   6
ENDBRANCH   4   5
ENDBRANCH   2   4
TORSDOF 4
ENDMDL
MODEL       88
REMARK 921   NORMALIZED FREE ENERGY PREDICTED BY IDOCK:   -4.64 KCAL/MOL
REMARK 922        TOTAL FREE ENERGY PREDICTED BY IDOCK:   -6.17 KCAL/MOL
REMARK 923 INTER-LIGAND FREE ENERGY PREDICTED BY IDOCK:   -5.31 KCAL/MOL
REMARK 924 INTRA-LIGAND FREE ENERGY PREDICTED BY IDOCK:   -0.86 KCAL/MOL
REMARK 927      BINDING AFFINITY PREDICTED BY RF-SCORE:    0.00 PKD
ROOT
HETATM    1  C   UNL     1     -11.336   6.433  69.775  1.00  0.00    -0.427 C  
HETATM    2  N   UNL     1     -10.054   5.948  69.260  1.00  0.00    -0.178 NA 
HETATM    3  C   UNL     1      -9.582   4.828  70.076  1.00  0.00    -0.190 C  
ENDROOT
BRANCH   2   4
HETATM    4  C   UNL     1     -10.175   5.594  67.829  1.00  0.00    -0.193 C  
BRANCH   4   5
HETATM    5  C   UNL     1     -10.840   6.693  66.983  1.00  0.00    -0.467 C  
BRANCH   5   6
HETATM    6  C   UNL     1      -9.853   7.641  66.337  1.00  0.00    -0.174 C  
BRANCH   6   7
HETATM    7  C   UNL     1      -9.519   8.874  66.777  1.00  0.00    -0.243 A  
HETATM    8  C   UNL     1      -8.637   9.014  67.960  1.00  0.00    -0.129 A  
HETATM    9  C   UNL     1      -7.294   8.618  67.884  1.00  0.00    -0.092 A  
HETATM   10  C   UNL     1      -6.426   8.857  68.949  1.00  0.00    -0.048 A  
HETATM   11  C   UNL     1      -6.895   9.478  70.103  1.00  0.00    -0.085 A  
HETATM   12  C   UNL     1      -8.236   9.856  70.198  1.00  0.00    -0.162 A  
HETATM   13  C   UNL     1      -9.116   9.650  69.125  1.00  0.00    -0.154 A  
HETATM   14  C   UNL     1     -10.519  10.077  69.294  1.00  0.00    -0.245 A  
HETATM   15  C   UNL     1     -11.315  10.624  68.359  1.00  0.00    -0.348 A  
HETATM   16  C   UNL     1     -10.957  10.919  66.959  1.00  0.00    -0.310 A  
HETATM   17  C   UNL     1     -11.508  12.059  66.358  1.00  0.00    -0.417 A  
HETATM   18  C   UNL     1     -11.207  12.387  65.032  1.00  0.00    -0.354 A  
HETATM   19  C   UNL     1     -10.352  11.581  64.288  1.00  0.00    -0.376 A  
HETATM   20  C   UNL     1      -9.806  10.437  64.865  1.00  0.00    -0.400 A  
HETATM   21  C   UNL     1     -10.122  10.087  66.187  1.00  0.00    -0.317 A  
ENDBRANCH   6   7
ENDBRANCH   5   6
ENDBRANCH   4   5
ENDBRANCH   2   4
TORSDOF 4
ENDMDL
MODEL       89
REMARK 921   NORMALIZED FREE ENERGY PREDICTED BY IDOCK:   -4.62 KCAL/MOL
REMARK 922        TOTAL FREE ENERGY PREDICTED BY IDOCK:   -6.16 KCAL/MOL
REMARK 923 INTER-LIGAND FREE ENERGY PREDICTED BY IDOCK:   -5.72 KCAL/MOL
REMARK 924 INTRA-LIGAND FREE ENERGY PREDICTED BY IDOCK:   -0.43 KCAL/MOL
REMARK 927      BINDING AFFINITY PREDICTED BY RF-SCORE:    0.00 PKD
ROOT
HETATM    1  C   UNL     1      -7.880  13.784  68.604  1.00  0.00    -0.108 C  
HETATM    2  N   UNL     1      -7.275  12.505  68.229  1.00  0.00    -0.102 NA 
HETATM    3  C   UNL     1      -6.096  12.252  69.058  1.00  0.00    -0.076 C  
ENDROOT
BRANCH   2   4
HETATM    4  C   UNL     1      -8.273  11.417  68.318  1.00  0.00    -0.150 C  
BRANCH   4   5
HETATM    5  C   UNL     1      -7.760  10.178  69.070  1.00  0.00    -0.100 C  
BRANCH   5   6
HETATM    6  C   UNL     1      -8.707   9.685  70.142  1.00  0.00    -0.263 C  
BRANCH   6   7
HETATM    7  C   UNL     1      -9.964   9.227  69.954  1.00  0.00    -0.226 A  
HETATM    8  C   UNL     1     -11.090   9.862  70.680  1.00  0.00    -0.409 A  
HETATM    9  C   UNL     1     -11.466  11.177  70.376  1.00  0.00    -0.265 A  
HETATM   10  C   UNL     1     -12.598  11.742  70.964  1.00  0.00    -0.409 A  
HETATM   11  C   UNL     1     -13.352  11.003  71.871  1.00  0.00    -0.423 A  
HETATM   12  C   UNL     1     -12.973   9.700  72.198  1.00  0.00    -0.493 A  
HETATM   13  C   UNL     1     -11.855   9.106  71.594  1.00  0.00    -0.443 A  
HETATM   14  C   UNL     1     -11.514   7.723  71.984  1.00  0.00    -0.337 A  
HETATM   15  C   UNL     1     -11.038   6.753  71.186  1.00  0.00    -0.313 A  
HETATM   16  C   UNL     1     -10.755   6.858  69.742  1.00  0.00    -0.276 A  
HETATM   17  C   UNL     1     -10.986   5.734  68.937  1.00  0.00    -0.250 A  
HETATM   18  C   UNL     1     -10.733   5.774  67.562  1.00  0.00    -0.320 A  
HETATM   19  C   UNL     1     -10.246   6.936  66.973  1.00  0.00    -0.317 A  
HETATM   20  C   UNL     1      -9.997   8.058  67.760  1.00  0.00    -0.224 A  
HETATM   21  C   UNL     1     -10.225   8.018  69.145  1.00  0.00    -0.221 A  
ENDBRANCH   6   7
ENDBRANCH   5   6
ENDBRANCH   4   5
ENDBRANCH   2   4
TORSDOF 4
ENDMDL
MODEL       90
REMARK 921   NORMALIZED FREE ENERGY PREDICTED BY IDOCK:   -4.62 KCAL/MOL
REMARK 922        TOTAL FREE ENERGY PREDICTED BY IDOCK:   -6.16 KCAL/MOL
REMARK 923 INTER-LIGAND FREE ENERGY PREDICTED BY IDOCK:   -5.72 KCAL/MOL
REMARK 924 INTRA-LIGAND FREE ENERGY PREDICTED BY IDOCK:   -0.43 KCAL/MOL
REMARK 927      BINDING AFFINITY PREDICTED BY RF-SCORE:    0.00 PKD
ROOT
HETATM    1  C   UNL     1     -11.705  11.611  68.287  1.00  0.00    -0.304 C  
HETATM    2  N   UNL     1     -11.300  12.989  68.006  1.00  0.00    -0.271 NA 
HETATM    3  C   UNL     1     -11.941  13.454  66.775  1.00  0.00    -0.394 C  
ENDROOT
BRANCH   2   4
HETATM    4  C   UNL     1     -11.600  13.860  69.164  1.00  0.00    -0.313 C  
BRANCH   4   5
HETATM    5  C   UNL     1     -11.702  15.350  68.796  1.00  0.00    -0.369 C  
BRANCH   5   6
HETATM    6  C   UNL     1     -10.483  16.155  69.187  1.00  0.00    -0.265 C  
BRANCH   6   7
HETATM    7  C   UNL     1      -9.472  16.528  68.372  1.00  0.00    -0.223 A  
HETATM    8  C   UNL     1      -8.284  15.651  68.232  1.00  0.00    -0.142 A  
HETATM    9  C   UNL     1      -8.404  14.405  67.602  1.00  0.00    -0.186 A  
HETATM   10  C   UNL     1      -7.273  13.626  67.356  1.00  0.00    -0.108 A  
HETATM   11  C   UNL     1      -6.017  14.079  67.752  1.00  0.00    -0.115 A  
HETATM   12  C   UNL     1      -5.890  15.309  68.400  1.00  0.00    -0.106 A  
HETATM   13  C   UNL     1      -7.013  16.118  68.629  1.00  0.00    -0.141 A  
HETATM   14  C   UNL     1      -6.804  17.408  69.317  1.00  0.00    -0.200 A  
HETATM   15  C   UNL     1      -7.435  18.568  69.068  1.00  0.00    -0.226 A  
HETATM   16  C   UNL     1      -8.475  18.805  68.049  1.00  0.00    -0.319 A  
HETATM   17  C   UNL     1      -8.504  20.051  67.407  1.00  0.00    -0.391 A  
HETATM   18  C   UNL     1      -9.469  20.334  66.435  1.00  0.00    -0.425 A  
HETATM   19  C   UNL     1     -10.417  19.376  66.090  1.00  0.00    -0.600 A  
HETATM   20  C   UNL     1     -10.412  18.138  66.727  1.00  0.00    -0.363 A  
HETATM   21  C   UNL     1      -9.462  17.855  67.722  1.00  0.00    -0.263 A  
ENDBRANCH   6   7
ENDBRANCH   5   6
ENDBRANCH   4   5
ENDBRANCH   2   4
TORSDOF 4
ENDMDL
MODEL       91
REMARK 921   NORMALIZED FREE ENERGY PREDICTED BY IDOCK:   -4.62 KCAL/MOL
REMARK 922        TOTAL FREE ENERGY PREDICTED BY IDOCK:   -6.16 KCAL/MOL
REMARK 923 INTER-LIGAND FREE ENERGY PREDICTED BY IDOCK:   -5.33 KCAL/MOL
REMARK 924 INTRA-LIGAND FREE ENERGY PREDICTED BY IDOCK:   -0.83 KCAL/MOL
REMARK 927      BINDING AFFINITY PREDICTED BY RF-SCORE:    0.00 PKD
ROOT
HETATM    1  C   UNL     1     -12.761  14.181  65.362  1.00  0.00    -0.431 C  
HETATM    2  N   UNL     1     -11.653  14.339  64.419  1.00  0.00    -0.370 NA 
HETATM    3  C   UNL     1     -11.128  15.704  64.494  1.00  0.00    -0.286 C  
ENDROOT
BRANCH   2   4
HETATM    4  C   UNL     1     -10.613  13.318  64.669  1.00  0.00    -0.404 C  
BRANCH   4   5
HETATM    5  C   UNL     1     -11.061  12.220  65.650  1.00  0.00    -0.357 C  
BRANCH   5   6
HETATM    6  C   UNL     1     -10.035  11.908  66.717  1.00  0.00    -0.215 C  
BRANCH   6   7
HETATM    7  C   UNL     1      -9.589  12.752  67.673  1.00  0.00    -0.192 A  
HETATM    8  C   UNL     1     -10.521  13.737  68.272  1.00  0.00    -0.251 A  
HETATM    9  C   UNL     1     -11.581  13.299  69.078  1.00  0.00    -0.359 A  
HETATM   10  C   UNL     1     -12.389  14.220  69.744  1.00  0.00    -0.342 A  
HETATM   11  C   UNL     1     -12.155  15.585  69.597  1.00  0.00    -0.352 A  
HETATM   12  C   UNL     1     -11.116  16.032  68.779  1.00  0.00    -0.338 A  
HETATM   13  C   UNL     1     -10.275  15.119  68.125  1.00  0.00    -0.227 A  
HETATM   14  C   UNL     1      -9.195  15.663  67.278  1.00  0.00    -0.214 A  
HETATM   15  C   UNL     1      -7.954  15.166  67.134  1.00  0.00    -0.248 A  
HETATM   16  C   UNL     1      -7.401  13.969  67.794  1.00  0.00    -0.176 A  
HETATM   17  C   UNL     1      -6.047  13.977  68.157  1.00  0.00    -0.129 A  
HETATM   18  C   UNL     1      -5.467  12.869  68.783  1.00  0.00    -0.071 A  
HETATM   19  C   UNL     1      -6.231  11.739  69.056  1.00  0.00    -0.072 A  
HETATM   20  C   UNL     1      -7.574  11.709  68.690  1.00  0.00    -0.133 A  
HETATM   21  C   UNL     1      -8.158  12.807  68.038  1.00  0.00    -0.162 A  
ENDBRANCH   6   7
ENDBRANCH   5   6
ENDBRANCH   4   5
ENDBRANCH   2   4
TORSDOF 4
ENDMDL
MODEL       92
REMARK 921   NORMALIZED FREE ENERGY PREDICTED BY IDOCK:   -4.62 KCAL/MOL
REMARK 922        TOTAL FREE ENERGY PREDICTED BY IDOCK:   -6.15 KCAL/MOL
REMARK 923 INTER-LIGAND FREE ENERGY PREDICTED BY IDOCK:   -5.67 KCAL/MOL
REMARK 924 INTRA-LIGAND FREE ENERGY PREDICTED BY IDOCK:   -0.47 KCAL/MOL
REMARK 927      BINDING AFFINITY PREDICTED BY RF-SCORE:    0.00 PKD
ROOT
HETATM    1  C   UNL     1      -8.862   8.125  73.421  1.00  0.00    -0.253 C  
HETATM    2  N   UNL     1      -7.716   8.697  72.712  1.00  0.00    -0.371 NA 
HETATM    3  C   UNL     1      -6.470   8.245  73.335  1.00  0.00    -0.111 C  
ENDROOT
BRANCH   2   4
HETATM    4  C   UNL     1      -7.782   8.364  71.272  1.00  0.00    -0.098 C  
BRANCH   4   5
HETATM    5  C   UNL     1      -7.630   9.589  70.355  1.00  0.00    -0.169 C  
BRANCH   5   6
HETATM    6  C   UNL     1      -8.349   9.448  69.032  1.00  0.00    -0.124 C  
BRANCH   6   7
HETATM    7  C   UNL     1      -9.686   9.454  68.840  1.00  0.00    -0.166 A  
HETATM    8  C   UNL     1     -10.303  10.529  68.026  1.00  0.00    -0.212 A  
HETATM    9  C   UNL     1     -10.051  10.597  66.649  1.00  0.00    -0.270 A  
HETATM   10  C   UNL     1     -10.720  11.527  65.854  1.00  0.00    -0.325 A  
HETATM   11  C   UNL     1     -11.633  12.406  66.430  1.00  0.00    -0.442 A  
HETATM   12  C   UNL     1     -11.875  12.361  67.804  1.00  0.00    -0.362 A  
HETATM   13  C   UNL     1     -11.233  11.413  68.615  1.00  0.00    -0.303 A  
HETATM   14  C   UNL     1     -11.539  11.420  70.059  1.00  0.00    -0.382 A  
HETATM   15  C   UNL     1     -11.657  10.352  70.865  1.00  0.00    -0.428 A  
HETATM   16  C   UNL     1     -11.509   8.936  70.480  1.00  0.00    -0.231 A  
HETATM   17  C   UNL     1     -12.321   7.986  71.116  1.00  0.00    -0.234 A  
HETATM   18  C   UNL     1     -12.222   6.629  70.795  1.00  0.00    -0.302 A  
HETATM   19  C   UNL     1     -11.313   6.201  69.833  1.00  0.00    -0.454 A  
HETATM   20  C   UNL     1     -10.489   7.129  69.201  1.00  0.00    -0.219 A  
HETATM   21  C   UNL     1     -10.563   8.490  69.536  1.00  0.00    -0.215 A  
ENDBRANCH   6   7
ENDBRANCH   5   6
ENDBRANCH   4   5
ENDBRANCH   2   4
TORSDOF 4
ENDMDL
MODEL       93
REMARK 921   NORMALIZED FREE ENERGY PREDICTED BY IDOCK:   -4.61 KCAL/MOL
REMARK 922        TOTAL FREE ENERGY PREDICTED BY IDOCK:   -6.14 KCAL/MOL
REMARK 923 INTER-LIGAND FREE ENERGY PREDICTED BY IDOCK:   -5.49 KCAL/MOL
REMARK 924 INTRA-LIGAND FREE ENERGY PREDICTED BY IDOCK:   -0.66 KCAL/MOL
REMARK 927      BINDING AFFINITY PREDICTED BY RF-SCORE:    0.00 PKD
ROOT
HETATM    1  C   UNL     1      -8.375  17.327  68.399  1.00  0.00    -0.261 C  
HETATM    2  N   UNL     1      -9.317  16.235  68.648  1.00  0.00    -0.210 NA 
HETATM    3  C   UNL     1     -10.676  16.767  68.762  1.00  0.00    -0.341 C  
ENDROOT
BRANCH   2   4
HETATM    4  C   UNL     1      -9.200  15.205  67.592  1.00  0.00    -0.181 C  
BRANCH   4   5
HETATM    5  C   UNL     1      -8.657  13.862  68.109  1.00  0.00    -0.180 C  
BRANCH   5   6
HETATM    6  C   UNL     1      -9.741  12.889  68.519  1.00  0.00    -0.129 C  
BRANCH   6   7
HETATM    7  C   UNL     1     -10.184  11.833  67.803  1.00  0.00    -0.205 A  
HETATM    8  C   UNL     1     -10.100  10.470  68.380  1.00  0.00    -0.181 A  
HETATM    9  C   UNL     1     -10.895  10.125  69.482  1.00  0.00    -0.289 A  
HETATM   10  C   UNL     1     -10.914   8.814  69.957  1.00  0.00    -0.216 A  
HETATM   11  C   UNL     1     -10.128   7.841  69.346  1.00  0.00    -0.195 A  
HETATM   12  C   UNL     1      -9.315   8.179  68.262  1.00  0.00    -0.137 A  
HETATM   13  C   UNL     1      -9.306   9.486  67.753  1.00  0.00    -0.143 A  
HETATM   14  C   UNL     1      -8.425   9.772  66.603  1.00  0.00    -0.126 A  
HETATM   15  C   UNL     1      -8.687  10.587  65.567  1.00  0.00    -0.197 A  
HETATM   16  C   UNL     1      -9.916  11.374  65.353  1.00  0.00    -0.289 A  
HETATM   17  C   UNL     1     -10.372  11.550  64.039  1.00  0.00    -0.406 A  
HETATM   18  C   UNL     1     -11.529  12.289  63.776  1.00  0.00    -0.545 A  
HETATM   19  C   UNL     1     -12.248  12.862  64.820  1.00  0.00    -0.499 A  
HETATM   20  C   UNL     1     -11.802  12.709  66.130  1.00  0.00    -0.477 A  
HETATM   21  C   UNL     1     -10.627  11.990  66.402  1.00  0.00    -0.278 A  
ENDBRANCH   6   7
ENDBRANCH   5   6
ENDBRANCH   4   5
ENDBRANCH   2   4
TORSDOF 4
ENDMDL
MODEL       94
REMARK 921   NORMALIZED FREE ENERGY PREDICTED BY IDOCK:   -4.61 KCAL/MOL
REMARK 922        TOTAL FREE ENERGY PREDICTED BY IDOCK:   -6.14 KCAL/MOL
REMARK 923 INTER-LIGAND FREE ENERGY PREDICTED BY IDOCK:   -5.39 KCAL/MOL
REMARK 924 INTRA-LIGAND FREE ENERGY PREDICTED BY IDOCK:   -0.75 KCAL/MOL
REMARK 927      BINDING AFFINITY PREDICTED BY RF-SCORE:    0.00 PKD
ROOT
HETATM    1  C   UNL     1     -11.544  11.492  69.286  1.00  0.00    -0.322 C  
HETATM    2  N   UNL     1     -11.462  12.887  68.852  1.00  0.00    -0.284 NA 
HETATM    3  C   UNL     1     -12.127  13.045  67.558  1.00  0.00    -0.224 C  
ENDROOT
BRANCH   2   4
HETATM    4  C   UNL     1     -12.020  13.782  69.890  1.00  0.00    -0.347 C  
BRANCH   4   5
HETATM    5  C   UNL     1     -12.454  15.153  69.343  1.00  0.00    -0.069 C  
BRANCH   5   6
HETATM    6  C   UNL     1     -11.427  16.243  69.560  1.00  0.00    -0.231 C  
BRANCH   6   7
HETATM    7  C   UNL     1     -10.406  16.560  68.734  1.00  0.00    -0.286 A  
HETATM    8  C   UNL     1     -10.330  17.923  68.156  1.00  0.00    -0.395 A  
HETATM    9  C   UNL     1     -10.071  19.023  68.986  1.00  0.00    -0.335 A  
HETATM   10  C   UNL     1      -9.877  20.290  68.438  1.00  0.00    -0.284 A  
HETATM   11  C   UNL     1      -9.955  20.473  67.061  1.00  0.00    -0.489 A  
HETATM   12  C   UNL     1     -10.234  19.388  66.227  1.00  0.00    -0.566 A  
HETATM   13  C   UNL     1     -10.404  18.101  66.758  1.00  0.00    -0.376 A  
HETATM   14  C   UNL     1     -10.694  17.001  65.817  1.00  0.00    -0.146 A  
HETATM   15  C   UNL     1     -10.245  15.736  65.890  1.00  0.00    -0.377 A  
HETATM   16  C   UNL     1      -9.360  15.173  66.927  1.00  0.00    -0.251 A  
HETATM   17  C   UNL     1      -8.427  14.198  66.546  1.00  0.00     0.251 A  
HETATM   18  C   UNL     1      -7.565  13.626  67.487  1.00  0.00    -0.180 A  
HETATM   19  C   UNL     1      -7.621  14.020  68.819  1.00  0.00    -0.113 A  
HETATM   20  C   UNL     1      -8.551  14.977  69.218  1.00  0.00    -0.167 A  
HETATM   21  C   UNL     1      -9.438  15.537  68.285  1.00  0.00    -0.200 A  
ENDBRANCH   6   7
ENDBRANCH   5   6
ENDBRANCH   4   5
ENDBRANCH   2   4
TORSDOF 4
ENDMDL
MODEL       95
REMARK 921   NORMALIZED FREE ENERGY PREDICTED BY IDOCK:   -4.61 KCAL/MOL
REMARK 922        TOTAL FREE ENERGY PREDICTED BY IDOCK:   -6.14 KCAL/MOL
REMARK 923 INTER-LIGAND FREE ENERGY PREDICTED BY IDOCK:   -5.30 KCAL/MOL
REMARK 924 INTRA-LIGAND FREE ENERGY PREDICTED BY IDOCK:   -0.84 KCAL/MOL
REMARK 927      BINDING AFFINITY PREDICTED BY RF-SCORE:    0.00 PKD
ROOT
HETATM    1  C   UNL     1      -9.426  13.289  66.854  1.00  0.00    -0.249 C  
HETATM    2  N   UNL     1     -10.784  12.758  66.984  1.00  0.00    -0.250 NA 
HETATM    3  C   UNL     1     -10.889  11.483  66.273  1.00  0.00    -0.282 C  
ENDROOT
BRANCH   2   4
HETATM    4  C   UNL     1     -11.156  12.642  68.411  1.00  0.00    -0.265 C  
BRANCH   4   5
HETATM    5  C   UNL     1     -11.886  11.329  68.746  1.00  0.00    -0.396 C  
BRANCH   5   6
HETATM    6  C   UNL     1     -11.333  10.624  69.965  1.00  0.00    -0.400 C  
BRANCH   6   7
HETATM    7  C   UNL     1     -10.501   9.560  69.968  1.00  0.00    -0.283 A  
HETATM    8  C   UNL     1      -9.418   9.476  68.959  1.00  0.00    -0.158 A  
HETATM    9  C   UNL     1      -8.348  10.381  69.001  1.00  0.00    -0.150 A  
HETATM   10  C   UNL     1      -7.266  10.236  68.134  1.00  0.00    -0.084 A  
HETATM   11  C   UNL     1      -7.250   9.196  67.208  1.00  0.00    -0.083 A  
HETATM   12  C   UNL     1      -8.321   8.302  67.143  1.00  0.00    -0.123 A  
HETATM   13  C   UNL     1      -9.405   8.416  68.027  1.00  0.00    -0.146 A  
HETATM   14  C   UNL     1     -10.500   7.434  67.903  1.00  0.00    -0.265 A  
HETATM   15  C   UNL     1     -11.210   6.885  68.904  1.00  0.00    -0.111 A  
HETATM   16  C   UNL     1     -11.045   7.143  70.347  1.00  0.00    -0.309 A  
HETATM   17  C   UNL     1     -11.254   6.082  71.239  1.00  0.00    -0.323 A  
HETATM   18  C   UNL     1     -11.115   6.268  72.618  1.00  0.00    -0.298 A  
HETATM   19  C   UNL     1     -10.765   7.515  73.125  1.00  0.00    -0.452 A  
HETATM   20  C   UNL     1     -10.567   8.584  72.254  1.00  0.00    -0.408 A  
HETATM   21  C   UNL     1     -10.729   8.412  70.870  1.00  0.00    -0.260 A  
ENDBRANCH   6   7
ENDBRANCH   5   6
ENDBRANCH   4   5
ENDBRANCH   2   4
TORSDOF 4
ENDMDL
MODEL       96
REMARK 921   NORMALIZED FREE ENERGY PREDICTED BY IDOCK:   -4.54 KCAL/MOL
REMARK 922        TOTAL FREE ENERGY PREDICTED BY IDOCK:   -6.06 KCAL/MOL
REMARK 923 INTER-LIGAND FREE ENERGY PREDICTED BY IDOCK:   -5.78 KCAL/MOL
REMARK 924 INTRA-LIGAND FREE ENERGY PREDICTED BY IDOCK:   -0.28 KCAL/MOL
REMARK 927      BINDING AFFINITY PREDICTED BY RF-SCORE:    0.00 PKD
ROOT
HETATM    1  C   UNL     1     -10.693  13.799  64.376  1.00  0.00    -0.316 C  
HETATM    2  N   UNL     1     -12.138  13.568  64.326  1.00  0.00    -0.470 NA 
HETATM    3  C   UNL     1     -12.441  12.530  63.339  1.00  0.00    -0.408 C  
ENDROOT
BRANCH   2   4
HETATM    4  C   UNL     1     -12.653  13.236  65.673  1.00  0.00    -0.406 C  
BRANCH   4   5
HETATM    5  C   UNL     1     -11.560  13.214  66.755  1.00  0.00    -0.414 C  
BRANCH   5   6
HETATM    6  C   UNL     1     -11.713  12.082  67.746  1.00  0.00    -0.379 C  
BRANCH   6   7
HETATM    7  C   UNL     1     -10.714  11.397  68.343  1.00  0.00    -0.237 A  
HETATM    8  C   UNL     1      -9.308  11.671  67.959  1.00  0.00    -0.178 A  
HETATM    9  C   UNL     1      -8.723  12.905  68.275  1.00  0.00    -0.168 A  
HETATM   10  C   UNL     1      -7.369  13.129  68.028  1.00  0.00    -0.125 A  
HETATM   11  C   UNL     1      -6.593  12.128  67.449  1.00  0.00    -0.147 A  
HETATM   12  C   UNL     1      -7.171  10.903  67.110  1.00  0.00    -0.104 A  
HETATM   13  C   UNL     1      -8.524  10.651  67.378  1.00  0.00    -0.122 A  
HETATM   14  C   UNL     1      -9.068   9.332  66.996  1.00  0.00    -0.153 A  
HETATM   15  C   UNL     1      -9.974   8.605  67.672  1.00  0.00    -0.248 A  
HETATM   16  C   UNL     1     -10.620   8.966  68.948  1.00  0.00    -0.188 A  
HETATM   17  C   UNL     1     -10.909   7.941  69.859  1.00  0.00    -0.221 A  
HETATM   18  C   UNL     1     -11.524   8.223  71.083  1.00  0.00    -0.307 A  
HETATM   19  C   UNL     1     -11.858   9.532  71.414  1.00  0.00    -0.464 A  
HETATM   20  C   UNL     1     -11.591  10.561  70.514  1.00  0.00    -0.441 A  
HETATM   21  C   UNL     1     -10.997  10.284  69.273  1.00  0.00    -0.284 A  
ENDBRANCH   6   7
ENDBRANCH   5   6
ENDBRANCH   4   5
ENDBRANCH   2   4
TORSDOF 4
ENDMDL
MODEL       97
REMARK 921   NORMALIZED FREE ENERGY PREDICTED BY IDOCK:   -4.48 KCAL/MOL
REMARK 922        TOTAL FREE ENERGY PREDICTED BY IDOCK:   -5.98 KCAL/MOL
REMARK 923 INTER-LIGAND FREE ENERGY PREDICTED BY IDOCK:   -5.53 KCAL/MOL
REMARK 924 INTRA-LIGAND FREE ENERGY PREDICTED BY IDOCK:   -0.46 KCAL/MOL
REMARK 927      BINDING AFFINITY PREDICTED BY RF-SCORE:    0.00 PKD
ROOT
HETATM    1  C   UNL     1      -6.901  15.158  67.579  1.00  0.00    -0.174 C  
HETATM    2  N   UNL     1      -7.276  16.572  67.630  1.00  0.00    -0.130 NA 
HETATM    3  C   UNL     1      -6.120  17.378  68.029  1.00  0.00    -0.150 C  
ENDROOT
BRANCH   2   4
HETATM    4  C   UNL     1      -7.844  17.001  66.333  1.00  0.00    -0.308 C  
BRANCH   4   5
HETATM    5  C   UNL     1      -9.362  17.242  66.383  1.00  0.00    -0.281 C  
BRANCH   5   6
HETATM    6  C   UNL     1     -10.163  16.217  65.611  1.00  0.00    -0.368 C  
BRANCH   6   7
HETATM    7  C   UNL     1     -10.802  15.144  66.125  1.00  0.00    -0.330 A  
HETATM    8  C   UNL     1     -11.019  15.055  67.589  1.00  0.00    -0.305 A  
HETATM    9  C   UNL     1     -11.895  15.947  68.223  1.00  0.00    -0.065 A  
HETATM   10  C   UNL     1     -12.201  15.796  69.575  1.00  0.00    -0.178 A  
HETATM   11  C   UNL     1     -11.622  14.764  70.308  1.00  0.00    -0.333 A  
HETATM   12  C   UNL     1     -10.731  13.883  69.692  1.00  0.00     0.123 A  
HETATM   13  C   UNL     1     -10.435  14.002  68.326  1.00  0.00    -0.245 A  
HETATM   14  C   UNL     1      -9.486  13.034  67.739  1.00  0.00    -0.209 A  
HETATM   15  C   UNL     1      -9.546  12.486  66.514  1.00  0.00    -0.242 A  
HETATM   16  C   UNL     1     -10.577  12.730  65.488  1.00  0.00    -0.303 A  
HETATM   17  C   UNL     1     -10.954  11.665  64.659  1.00  0.00    -0.363 A  
HETATM   18  C   UNL     1     -11.923  11.838  63.666  1.00  0.00    -0.490 A  
HETATM   19  C   UNL     1     -12.531  13.077  63.488  1.00  0.00    -0.388 A  
HETATM   20  C   UNL     1     -12.159  14.150  64.294  1.00  0.00    -0.471 A  
HETATM   21  C   UNL     1     -11.168  13.991  65.276  1.00  0.00    -0.319 A  
ENDBRANCH   6   7
ENDBRANCH   5   6
ENDBRANCH   4   5
ENDBRANCH   2   4
TORSDOF 4
ENDMDL
MODEL       98
REMARK 921   NORMALIZED FREE ENERGY PREDICTED BY IDOCK:   -4.43 KCAL/MOL
REMARK 922        TOTAL FREE ENERGY PREDICTED BY IDOCK:   -5.92 KCAL/MOL
REMARK 923 INTER-LIGAND FREE ENERGY PREDICTED BY IDOCK:   -5.06 KCAL/MOL
REMARK 924 INTRA-LIGAND FREE ENERGY PREDICTED BY IDOCK:   -0.86 KCAL/MOL
REMARK 927      BINDING AFFINITY PREDICTED BY RF-SCORE:    0.00 PKD
ROOT
HETATM    1  C   UNL     1      -8.245   8.067  66.233  1.00  0.00    -0.116 C  
HETATM    2  N   UNL     1      -8.025   9.511  66.141  1.00  0.00    -0.107 NA 
HETATM    3  C   UNL     1      -7.224   9.816  64.954  1.00  0.00    -0.129 C  
ENDROOT
BRANCH   2   4
HETATM    4  C   UNL     1      -9.318  10.230  66.151  1.00  0.00    -0.170 C  
BRANCH   4   5
HETATM    5  C   UNL     1     -10.432   9.471  66.891  1.00  0.00    -0.279 C  
BRANCH   5   6
HETATM    6  C   UNL     1     -10.800  10.084  68.224  1.00  0.00    -0.286 C  
BRANCH   6   7
HETATM    7  C   UNL     1     -10.551   9.560  69.444  1.00  0.00    -0.235 A  
HETATM    8  C   UNL     1      -9.195   9.051  69.759  1.00  0.00    -0.172 A  
HETATM    9  C   UNL     1      -8.118   9.943  69.862  1.00  0.00    -0.200 A  
HETATM   10  C   UNL     1      -6.865   9.493  70.276  1.00  0.00    -0.092 A  
HETATM   11  C   UNL     1      -6.673   8.146  70.574  1.00  0.00    -0.037 A  
HETATM   12  C   UNL     1      -7.733   7.246  70.453  1.00  0.00    -0.094 A  
HETATM   13  C   UNL     1      -9.008   7.686  70.066  1.00  0.00    -0.143 A  
HETATM   14  C   UNL     1     -10.083   6.680  69.961  1.00  0.00    -0.199 A  
HETATM   15  C   UNL     1     -11.375   6.841  70.291  1.00  0.00    -0.404 A  
HETATM   16  C   UNL     1     -12.001   8.061  70.834  1.00  0.00    -0.201 A  
HETATM   17  C   UNL     1     -13.037   7.917  71.768  1.00  0.00    -0.352 A  
HETATM   18  C   UNL     1     -13.669   9.038  72.314  1.00  0.00    -0.550 A  
HETATM   19  C   UNL     1     -13.277  10.317  71.936  1.00  0.00    -0.550 A  
HETATM   20  C   UNL     1     -12.260  10.479  70.999  1.00  0.00    -0.505 A  
HETATM   21  C   UNL     1     -11.636   9.359  70.427  1.00  0.00    -0.241 A  
ENDBRANCH   6   7
ENDBRANCH   5   6
ENDBRANCH   4   5
ENDBRANCH   2   4
TORSDOF 4
ENDMDL
MODEL       99
REMARK 921   NORMALIZED FREE ENERGY PREDICTED BY IDOCK:   -4.42 KCAL/MOL
REMARK 922        TOTAL FREE ENERGY PREDICTED BY IDOCK:   -5.91 KCAL/MOL
REMARK 923 INTER-LIGAND FREE ENERGY PREDICTED BY IDOCK:   -5.51 KCAL/MOL
REMARK 924 INTRA-LIGAND FREE ENERGY PREDICTED BY IDOCK:   -0.40 KCAL/MOL
REMARK 927      BINDING AFFINITY PREDICTED BY RF-SCORE:    0.00 PKD
ROOT
HETATM    1  C   UNL     1      -9.473  16.405  68.911  1.00  0.00    -0.254 C  
HETATM    2  N   UNL     1      -8.616  15.937  67.821  1.00  0.00    -0.158 NA 
HETATM    3  C   UNL     1      -7.209  16.100  68.190  1.00  0.00    -0.134 C  
ENDROOT
BRANCH   2   4
HETATM    4  C   UNL     1      -8.950  14.540  67.467  1.00  0.00    -0.188 C  
BRANCH   4   5
HETATM    5  C   UNL     1      -7.764  13.572  67.619  1.00  0.00    -0.180 C  
BRANCH   5   6
HETATM    6  C   UNL     1      -8.127  12.273  68.304  1.00  0.00    -0.166 C  
BRANCH   6   7
HETATM    7  C   UNL     1      -9.194  11.492  68.030  1.00  0.00    -0.175 A  
HETATM    8  C   UNL     1      -9.713  11.423  66.643  1.00  0.00    -0.224 A  
HETATM    9  C   UNL     1      -8.946  10.820  65.636  1.00  0.00    -0.205 A  
HETATM   10  C   UNL     1      -9.473  10.641  64.358  1.00  0.00    -0.317 A  
HETATM   11  C   UNL     1     -10.763  11.076  64.070  1.00  0.00    -0.331 A  
HETATM   12  C   UNL     1     -11.528  11.699  65.059  1.00  0.00    -0.189 A  
HETATM   13  C   UNL     1     -11.024  11.861  66.358  1.00  0.00    -0.337 A  
HETATM   14  C   UNL     1     -11.889  12.524  67.354  1.00  0.00    -0.381 A  
HETATM   15  C   UNL     1     -11.999  12.221  68.659  1.00  0.00    -0.276 A  
HETATM   16  C   UNL     1     -11.279  11.154  69.379  1.00  0.00    -0.334 A  
HETATM   17  C   UNL     1     -11.949  10.481  70.411  1.00  0.00    -0.425 A  
HETATM   18  C   UNL     1     -11.316   9.463  71.131  1.00  0.00    -0.422 A  
HETATM   19  C   UNL     1     -10.007   9.103  70.831  1.00  0.00    -0.357 A  
HETATM   20  C   UNL     1      -9.321   9.769  69.819  1.00  0.00    -0.249 A  
HETATM   21  C   UNL     1      -9.940  10.810  69.108  1.00  0.00    -0.206 A  
ENDBRANCH   6   7
ENDBRANCH   5   6
ENDBRANCH   4   5
ENDBRANCH   2   4
TORSDOF 4
ENDMDL
MODEL      100
REMARK 921   NORMALIZED FREE ENERGY PREDICTED BY IDOCK:   -4.39 KCAL/MOL
REMARK 922        TOTAL FREE ENERGY PREDICTED BY IDOCK:   -5.87 KCAL/MOL
REMARK 923 INTER-LIGAND FREE ENERGY PREDICTED BY IDOCK:   -5.67 KCAL/MOL
REMARK 924 INTRA-LIGAND FREE ENERGY PREDICTED BY IDOCK:   -0.20 KCAL/MOL
REMARK 927      BINDING AFFINITY PREDICTED BY RF-SCORE:    0.00 PKD
ROOT
HETATM    1  C   UNL     1     -11.870  12.100  64.261  1.00  0.00    -0.378 C  
HETATM    2  N   UNL     1     -11.652  12.981  65.409  1.00  0.00    -0.327 NA 
HETATM    3  C   UNL     1     -12.690  14.013  65.448  1.00  0.00    -0.471 C  
ENDROOT
BRANCH   2   4
HETATM    4  C   UNL     1     -11.593  12.192  66.659  1.00  0.00    -0.350 C  
BRANCH   4   5
HETATM    5  C   UNL     1     -10.647  10.982  66.572  1.00  0.00    -0.310 C  
BRANCH   5   6
HETATM    6  C   UNL     1     -11.016   9.856  67.513  1.00  0.00    -0.239 C  
BRANCH   6   7
HETATM    7  C   UNL     1     -10.213   8.844  67.907  1.00  0.00    -0.274 A  
HETATM    8  C   UNL     1      -9.554   7.994  66.886  1.00  0.00    -0.265 A  
HETATM    9  C   UNL     1      -8.558   8.534  66.061  1.00  0.00    -0.162 A  
HETATM   10  C   UNL     1      -7.848   7.716  65.183  1.00  0.00    -0.124 A  
HETATM   11  C   UNL     1      -8.137   6.356  65.111  1.00  0.00    -0.136 A  
HETATM   12  C   UNL     1      -9.142   5.812  65.913  1.00  0.00    -0.148 A  
HETATM   13  C   UNL     1      -9.847   6.615  66.822  1.00  0.00    -0.227 A  
HETATM   14  C   UNL     1     -10.894   5.972  67.640  1.00  0.00    -0.386 A  
HETATM   15  C   UNL     1     -11.194   6.237  68.923  1.00  0.00    -0.387 A  
HETATM   16  C   UNL     1     -10.536   7.229  69.795  1.00  0.00    -0.247 A  
HETATM   17  C   UNL     1     -10.394   6.925  71.156  1.00  0.00    -0.222 A  
HETATM   18  C   UNL     1      -9.782   7.828  72.032  1.00  0.00    -0.224 A  
HETATM   19  C   UNL     1      -9.303   9.045  71.560  1.00  0.00    -0.294 A  
HETATM   20  C   UNL     1      -9.448   9.370  70.213  1.00  0.00    -0.294 A  
HETATM   21  C   UNL     1     -10.084   8.480  69.333  1.00  0.00    -0.205 A  
ENDBRANCH   6   7
ENDBRANCH   5   6
ENDBRANCH   4   5
ENDBRANCH   2   4
TORSDOF 4
ENDMDL
MODEL      101
REMARK 921   NORMALIZED FREE ENERGY PREDICTED BY IDOCK:   -4.35 KCAL/MOL
REMARK 922        TOTAL FREE ENERGY PREDICTED BY IDOCK:   -5.82 KCAL/MOL
REMARK 923 INTER-LIGAND FREE ENERGY PREDICTED BY IDOCK:   -5.38 KCAL/MOL
REMARK 924 INTRA-LIGAND FREE ENERGY PREDICTED BY IDOCK:   -0.45 KCAL/MOL
REMARK 927      BINDING AFFINITY PREDICTED BY RF-SCORE:    0.00 PKD
ROOT
HETATM    1  C   UNL     1     -10.591   4.935  66.319  1.00  0.00    -0.255 C  
HETATM    2  N   UNL     1     -10.933   6.217  66.938  1.00  0.00    -0.365 NA 
HETATM    3  C   UNL     1     -11.008   6.063  68.392  1.00  0.00    -0.251 C  
ENDROOT
BRANCH   2   4
HETATM    4  C   UNL     1      -9.966   7.260  66.529  1.00  0.00    -0.112 C  
BRANCH   4   5
HETATM    5  C   UNL     1      -9.538   8.181  67.684  1.00  0.00    -0.186 C  
BRANCH   5   6
HETATM    6  C   UNL     1     -10.122   9.574  67.596  1.00  0.00    -0.254 C  
BRANCH   6   7
HETATM    7  C   UNL     1     -10.020  10.547  68.527  1.00  0.00    -0.181 A  
HETATM    8  C   UNL     1     -11.052  10.658  69.586  1.00  0.00    -0.342 A  
HETATM    9  C   UNL     1     -11.162   9.660  70.564  1.00  0.00    -0.359 A  
HETATM   10  C   UNL     1     -12.045   9.813  71.632  1.00  0.00    -0.475 A  
HETATM   11  C   UNL     1     -12.836  10.954  71.724  1.00  0.00    -0.509 A  
HETATM   12  C   UNL     1     -12.750  11.944  70.742  1.00  0.00    -0.242 A  
HETATM   13  C   UNL     1     -11.847  11.821  69.676  1.00  0.00    -0.407 A  
HETATM   14  C   UNL     1     -11.807  12.907  68.677  1.00  0.00    -0.347 A  
HETATM   15  C   UNL     1     -10.721  13.389  68.050  1.00  0.00    -0.261 A  
HETATM   16  C   UNL     1      -9.328  12.938  68.228  1.00  0.00    -0.194 A  
HETATM   17  C   UNL     1      -8.305  13.893  68.145  1.00  0.00    -0.163 A  
HETATM   18  C   UNL     1      -6.965  13.523  68.301  1.00  0.00    -0.108 A  
HETATM   19  C   UNL     1      -6.629  12.195  68.543  1.00  0.00    -0.063 A  
HETATM   20  C   UNL     1      -7.631  11.230  68.614  1.00  0.00    -0.129 A  
HETATM   21  C   UNL     1      -8.976  11.589  68.433  1.00  0.00    -0.173 A  
ENDBRANCH   6   7
ENDBRANCH   5   6
ENDBRANCH   4   5
ENDBRANCH   2   4
TORSDOF 4
ENDMDL
MODEL      102
REMARK 921   NORMALIZED FREE ENERGY PREDICTED BY IDOCK:   -4.35 KCAL/MOL
REMARK 922        TOTAL FREE ENERGY PREDICTED BY IDOCK:   -5.82 KCAL/MOL
REMARK 923 INTER-LIGAND FREE ENERGY PREDICTED BY IDOCK:   -5.31 KCAL/MOL
REMARK 924 INTRA-LIGAND FREE ENERGY PREDICTED BY IDOCK:   -0.51 KCAL/MOL
REMARK 927      BINDING AFFINITY PREDICTED BY RF-SCORE:    0.00 PKD
ROOT
HETATM    1  C   UNL     1     -12.037  12.963  66.819  1.00  0.00    -0.265 C  
HETATM    2  N   UNL     1     -10.795  13.055  66.051  1.00  0.00    -0.270 NA 
HETATM    3  C   UNL     1     -10.259  11.714  65.811  1.00  0.00    -0.240 C  
ENDROOT
BRANCH   2   4
HETATM    4  C   UNL     1     -11.019  13.807  64.797  1.00  0.00    -0.392 C  
BRANCH   4   5
HETATM    5  C   UNL     1     -11.039  15.332  64.997  1.00  0.00    -0.436 C  
BRANCH   5   6
HETATM    6  C   UNL     1      -9.672  15.927  65.255  1.00  0.00     0.067 C  
BRANCH   6   7
HETATM    7  C   UNL     1      -9.282  16.587  66.367  1.00  0.00    -0.327 A  
HETATM    8  C   UNL     1      -9.832  16.190  67.685  1.00  0.00    -0.236 A  
HETATM    9  C   UNL     1      -9.495  14.947  68.239  1.00  0.00    -0.210 A  
HETATM   10  C   UNL     1      -9.908  14.614  69.529  1.00  0.00     0.072 A  
HETATM   11  C   UNL     1     -10.673  15.511  70.269  1.00  0.00    -0.352 A  
HETATM   12  C   UNL     1     -11.033  16.743  69.717  1.00  0.00    -0.096 A  
HETATM   13  C   UNL     1     -10.602  17.106  68.433  1.00  0.00    -0.371 A  
HETATM   14  C   UNL     1     -11.017  18.425  67.914  1.00  0.00    -0.083 A  
HETATM   15  C   UNL     1     -10.288  19.262  67.158  1.00  0.00    -0.533 A  
HETATM   16  C   UNL     1      -8.908  19.045  66.683  1.00  0.00    -0.327 A  
HETATM   17  C   UNL     1      -8.057  20.155  66.586  1.00  0.00    -0.330 A  
HETATM   18  C   UNL     1      -6.740  20.011  66.139  1.00  0.00    -0.248 A  
HETATM   19  C   UNL     1      -6.254  18.757  65.783  1.00  0.00    -0.262 A  
HETATM   20  C   UNL     1      -7.090  17.646  65.859  1.00  0.00    -0.250 A  
HETATM   21  C   UNL     1      -8.421  17.785  66.283  1.00  0.00    -0.225 A  
ENDBRANCH   6   7
ENDBRANCH   5   6
ENDBRANCH   4   5
ENDBRANCH   2   4
TORSDOF 4
ENDMDL
MODEL      103
REMARK 921   NORMALIZED FREE ENERGY PREDICTED BY IDOCK:   -4.34 KCAL/MOL
REMARK 922        TOTAL FREE ENERGY PREDICTED BY IDOCK:   -5.81 KCAL/MOL
REMARK 923 INTER-LIGAND FREE ENERGY PREDICTED BY IDOCK:   -5.13 KCAL/MOL
REMARK 924 INTRA-LIGAND FREE ENERGY PREDICTED BY IDOCK:   -0.69 KCAL/MOL
REMARK 927      BINDING AFFINITY PREDICTED BY RF-SCORE:    0.00 PKD
ROOT
HETATM    1  C   UNL     1      -8.305  10.630  62.791  1.00  0.00    -0.174 C  
HETATM    2  N   UNL     1      -8.649   9.895  64.009  1.00  0.00    -0.173 NA 
HETATM    3  C   UNL     1      -7.576  10.036  64.994  1.00  0.00    -0.139 C  
ENDROOT
BRANCH   2   4
HETATM    4  C   UNL     1      -9.958  10.346  64.530  1.00  0.00    -0.331 C  
BRANCH   4   5
HETATM    5  C   UNL     1     -10.249   9.852  65.957  1.00  0.00    -0.269 C  
BRANCH   5   6
HETATM    6  C   UNL     1     -10.780  10.932  66.874  1.00  0.00    -0.318 C  
BRANCH   6   7
HETATM    7  C   UNL     1     -10.303  11.254  68.096  1.00  0.00    -0.205 A  
HETATM    8  C   UNL     1      -9.092  12.102  68.208  1.00  0.00    -0.191 A  
HETATM    9  C   UNL     1      -9.139  13.446  67.813  1.00  0.00    -0.202 A  
HETATM   10  C   UNL     1      -8.045  14.284  68.026  1.00  0.00    -0.145 A  
HETATM   11  C   UNL     1      -6.890  13.783  68.620  1.00  0.00    -0.102 A  
HETATM   12  C   UNL     1      -6.824  12.439  68.997  1.00  0.00    -0.093 A  
HETATM   13  C   UNL     1      -7.926  11.590  68.817  1.00  0.00    -0.107 A  
HETATM   14  C   UNL     1      -7.787  10.182  69.241  1.00  0.00    -0.134 A  
HETATM   15  C   UNL     1      -8.731   9.413  69.810  1.00  0.00    -0.189 A  
HETATM   16  C   UNL     1     -10.113   9.811  70.137  1.00  0.00    -0.317 A  
HETATM   17  C   UNL     1     -10.702   9.277  71.292  1.00  0.00    -0.422 A  
HETATM   18  C   UNL     1     -12.011   9.615  71.650  1.00  0.00    -0.470 A  
HETATM   19  C   UNL     1     -12.749  10.491  70.862  1.00  0.00    -0.495 A  
HETATM   20  C   UNL     1     -12.185  11.021  69.704  1.00  0.00    -0.370 A  
HETATM   21  C   UNL     1     -10.881  10.667  69.323  1.00  0.00    -0.282 A  
ENDBRANCH   6   7
ENDBRANCH   5   6
ENDBRANCH   4   5
ENDBRANCH   2   4
TORSDOF 4
ENDMDL
MODEL      104
REMARK 921   NORMALIZED FREE ENERGY PREDICTED BY IDOCK:   -4.34 KCAL/MOL
REMARK 922        TOTAL FREE ENERGY PREDICTED BY IDOCK:   -5.81 KCAL/MOL
REMARK 923 INTER-LIGAND FREE ENERGY PREDICTED BY IDOCK:   -5.21 KCAL/MOL
REMARK 924 INTRA-LIGAND FREE ENERGY PREDICTED BY IDOCK:   -0.60 KCAL/MOL
REMARK 927      BINDING AFFINITY PREDICTED BY RF-SCORE:    0.00 PKD
ROOT
HETATM    1  C   UNL     1     -12.198  12.674  65.546  1.00  0.00    -0.440 C  
HETATM    2  N   UNL     1     -11.634  13.425  66.669  1.00  0.00    -0.344 NA 
HETATM    3  C   UNL     1     -12.031  14.831  66.575  1.00  0.00    -0.179 C  
ENDROOT
BRANCH   2   4
HETATM    4  C   UNL     1     -12.035  12.809  67.953  1.00  0.00    -0.266 C  
BRANCH   4   5
HETATM    5  C   UNL     1     -10.936  11.932  68.577  1.00  0.00    -0.277 C  
BRANCH   5   6
HETATM    6  C   UNL     1     -11.380  10.513  68.857  1.00  0.00    -0.313 C  
BRANCH   6   7
HETATM    7  C   UNL     1     -10.579   9.460  69.131  1.00  0.00    -0.234 A  
HETATM    8  C   UNL     1     -10.435   8.995  70.531  1.00  0.00    -0.271 A  
HETATM    9  C   UNL     1     -11.524   8.407  71.189  1.00  0.00    -0.314 A  
HETATM   10  C   UNL     1     -11.367   7.856  72.461  1.00  0.00    -0.449 A  
HETATM   11  C   UNL     1     -10.127   7.903  73.091  1.00  0.00    -0.362 A  
HETATM   12  C   UNL     1      -9.041   8.508  72.454  1.00  0.00    -0.308 A  
HETATM   13  C   UNL     1      -9.174   9.040  71.163  1.00  0.00    -0.326 A  
HETATM   14  C   UNL     1      -7.983   9.661  70.548  1.00  0.00    -0.148 A  
HETATM   15  C   UNL     1      -7.620   9.605  69.255  1.00  0.00    -0.091 A  
HETATM   16  C   UNL     1      -8.332   8.907  68.168  1.00  0.00    -0.125 A  
HETATM   17  C   UNL     1      -7.572   8.312  67.152  1.00  0.00    -0.093 A  
HETATM   18  C   UNL     1      -8.192   7.639  66.094  1.00  0.00    -0.124 A  
HETATM   19  C   UNL     1      -9.579   7.551  66.037  1.00  0.00     0.042 A  
HETATM   20  C   UNL     1     -10.350   8.148  67.031  1.00  0.00    -0.403 A  
HETATM   21  C   UNL     1      -9.737   8.847  68.083  1.00  0.00    -0.180 A  
ENDBRANCH   6   7
ENDBRANCH   5   6
ENDBRANCH   4   5
ENDBRANCH   2   4
TORSDOF 4
ENDMDL
MODEL      105
REMARK 921   NORMALIZED FREE ENERGY PREDICTED BY IDOCK:   -4.32 KCAL/MOL
REMARK 922        TOTAL FREE ENERGY PREDICTED BY IDOCK:   -5.78 KCAL/MOL
REMARK 923 INTER-LIGAND FREE ENERGY PREDICTED BY IDOCK:   -5.55 KCAL/MOL
REMARK 924 INTRA-LIGAND FREE ENERGY PREDICTED BY IDOCK:   -0.22 KCAL/MOL
REMARK 927      BINDING AFFINITY PREDICTED BY RF-SCORE:    0.00 PKD
ROOT
HETATM    1  C   UNL     1      -6.828   9.868  65.954  1.00  0.00    -0.101 C  
HETATM    2  N   UNL     1      -6.112  10.439  67.096  1.00  0.00    -0.054 NA 
HETATM    3  C   UNL     1      -5.382  11.637  66.677  1.00  0.00    -0.099 C  
ENDROOT
BRANCH   2   4
HETATM    4  C   UNL     1      -7.050  10.709  68.209  1.00  0.00    -0.081 C  
BRANCH   4   5
HETATM    5  C   UNL     1      -7.682  12.109  68.147  1.00  0.00    -0.129 C  
BRANCH   5   6
HETATM    6  C   UNL     1      -9.087  12.115  67.585  1.00  0.00    -0.181 C  
BRANCH   6   7
HETATM    7  C   UNL     1      -9.638  13.076  66.812  1.00  0.00    -0.248 A  
HETATM    8  C   UNL     1      -9.408  14.503  67.144  1.00  0.00    -0.225 A  
HETATM    9  C   UNL     1      -8.127  15.055  67.010  1.00  0.00    -0.225 A  
HETATM   10  C   UNL     1      -7.923  16.422  67.202  1.00  0.00    -0.215 A  
HETATM   11  C   UNL     1      -8.994  17.243  67.543  1.00  0.00    -0.222 A  
HETATM   12  C   UNL     1     -10.270  16.699  67.700  1.00  0.00    -0.285 A  
HETATM   13  C   UNL     1     -10.498  15.332  67.483  1.00  0.00    -0.265 A  
HETATM   14  C   UNL     1     -11.873  14.826  67.665  1.00  0.00    -0.319 A  
HETATM   15  C   UNL     1     -12.490  13.881  66.934  1.00  0.00    -0.201 A  
HETATM   16  C   UNL     1     -11.924  13.146  65.787  1.00  0.00    -0.473 A  
HETATM   17  C   UNL     1     -12.780  12.802  64.732  1.00  0.00    -0.469 A  
HETATM   18  C   UNL     1     -12.302  12.102  63.620  1.00  0.00    -0.673 A  
HETATM   19  C   UNL     1     -10.962  11.735  63.546  1.00  0.00    -0.499 A  
HETATM   20  C   UNL     1     -10.100  12.056  64.592  1.00  0.00    -0.291 A  
HETATM   21  C   UNL     1     -10.578  12.737  65.723  1.00  0.00    -0.295 A  
ENDBRANCH   6   7
ENDBRANCH   5   6
ENDBRANCH   4   5
ENDBRANCH   2   4
TORSDOF 4
ENDMDL
MODEL      106
REMARK 921   NORMALIZED FREE ENERGY PREDICTED BY IDOCK:   -4.29 KCAL/MOL
REMARK 922        TOTAL FREE ENERGY PREDICTED BY IDOCK:   -5.74 KCAL/MOL
REMARK 923 INTER-LIGAND FREE ENERGY PREDICTED BY IDOCK:   -5.30 KCAL/MOL
REMARK 924 INTRA-LIGAND FREE ENERGY PREDICTED BY IDOCK:   -0.44 KCAL/MOL
REMARK 927      BINDING AFFINITY PREDICTED BY RF-SCORE:    0.00 PKD
ROOT
HETATM    1  C   UNL     1     -12.536  11.916  63.342  1.00  0.00    -0.463 C  
HETATM    2  N   UNL     1     -11.648  12.625  64.265  1.00  0.00    -0.348 NA 
HETATM    3  C   UNL     1     -10.261  12.504  63.813  1.00  0.00    -0.333 C  
ENDROOT
BRANCH   2   4
HETATM    4  C   UNL     1     -12.075  14.034  64.410  1.00  0.00    -0.458 C  
BRANCH   4   5
HETATM    5  C   UNL     1     -12.625  14.363  65.808  1.00  0.00    -0.314 C  
BRANCH   5   6
HETATM    6  C   UNL     1     -11.568  14.361  66.890  1.00  0.00    -0.404 C  
BRANCH   6   7
HETATM    7  C   UNL     1     -11.273  15.381  67.727  1.00  0.00    -0.321 A  
HETATM    8  C   UNL     1     -10.467  16.523  67.233  1.00  0.00    -0.304 A  
HETATM    9  C   UNL     1     -11.000  17.393  66.272  1.00  0.00     0.237 A  
HETATM   10  C   UNL     1     -10.300  18.538  65.891  1.00  0.00    -0.344 A  
HETATM   11  C   UNL     1      -9.057  18.813  66.453  1.00  0.00    -0.305 A  
HETATM   12  C   UNL     1      -8.507  17.940  67.394  1.00  0.00    -0.236 A  
HETATM   13  C   UNL     1      -9.210  16.800  67.811  1.00  0.00    -0.222 A  
HETATM   14  C   UNL     1      -8.569  15.923  68.811  1.00  0.00    -0.212 A  
HETATM   15  C   UNL     1      -9.174  15.268  69.818  1.00  0.00    -0.060 A  
HETATM   16  C   UNL     1     -10.612  15.287  70.143  1.00  0.00    -0.279 A  
HETATM   17  C   UNL     1     -10.989  15.228  71.492  1.00  0.00    -0.143 A  
HETATM   18  C   UNL     1     -12.338  15.239  71.860  1.00  0.00    -0.427 A  
HETATM   19  C   UNL     1     -13.329  15.309  70.887  1.00  0.00    -0.475 A  
HETATM   20  C   UNL     1     -12.974  15.355  69.541  1.00  0.00     0.461 A  
HETATM   21  C   UNL     1     -11.622  15.319  69.161  1.00  0.00    -0.349 A  
ENDBRANCH   6   7
ENDBRANCH   5   6
ENDBRANCH   4   5
ENDBRANCH   2   4
TORSDOF 4
ENDMDL
MODEL      107
REMARK 921   NORMALIZED FREE ENERGY PREDICTED BY IDOCK:   -4.27 KCAL/MOL
REMARK 922        TOTAL FREE ENERGY PREDICTED BY IDOCK:   -5.72 KCAL/MOL
REMARK 923 INTER-LIGAND FREE ENERGY PREDICTED BY IDOCK:   -4.98 KCAL/MOL
REMARK 924 INTRA-LIGAND FREE ENERGY PREDICTED BY IDOCK:   -0.73 KCAL/MOL
REMARK 927      BINDING AFFINITY PREDICTED BY RF-SCORE:    0.00 PKD
ROOT
HETATM    1  C   UNL     1      -7.911   6.391  72.654  1.00  0.00    -0.104 C  
HETATM    2  N   UNL     1      -7.483   5.991  71.313  1.00  0.00    -0.087 NA 
HETATM    3  C   UNL     1      -8.431   5.025  70.756  1.00  0.00    -0.115 C  
ENDROOT
BRANCH   2   4
HETATM    4  C   UNL     1      -7.317   7.182  70.450  1.00  0.00    -0.079 C  
BRANCH   4   5
HETATM    5  C   UNL     1      -7.480   8.511  71.207  1.00  0.00    -0.107 C  
BRANCH   5   6
HETATM    6  C   UNL     1      -8.203   9.575  70.412  1.00  0.00    -0.220 C  
BRANCH   6   7
HETATM    7  C   UNL     1      -9.439   9.477  69.876  1.00  0.00    -0.247 A  
HETATM    8  C   UNL     1     -10.457   8.624  70.536  1.00  0.00    -0.237 A  
HETATM    9  C   UNL     1     -10.970   8.989  71.789  1.00  0.00    -0.443 A  
HETATM   10  C   UNL     1     -12.013   8.263  72.363  1.00  0.00    -0.447 A  
HETATM   11  C   UNL     1     -12.540   7.158  71.699  1.00  0.00    -0.410 A  
HETATM   12  C   UNL     1     -12.020   6.773  70.462  1.00  0.00    -0.385 A  
HETATM   13  C   UNL     1     -10.991   7.510  69.856  1.00  0.00    -0.223 A  
HETATM   14  C   UNL     1     -10.493   7.047  68.545  1.00  0.00    -0.226 A  
HETATM   15  C   UNL     1     -10.104   7.814  67.512  1.00  0.00    -0.272 A  
HETATM   16  C   UNL     1     -10.093   9.288  67.464  1.00  0.00    -0.273 A  
HETATM   17  C   UNL     1     -10.389   9.914  66.245  1.00  0.00    -0.233 A  
HETATM   18  C   UNL     1     -10.391  11.308  66.138  1.00  0.00    -0.300 A  
HETATM   19  C   UNL     1     -10.098  12.097  67.246  1.00  0.00    -0.214 A  
HETATM   20  C   UNL     1      -9.788  11.491  68.461  1.00  0.00    -0.198 A  
HETATM   21  C   UNL     1      -9.759  10.092  68.571  1.00  0.00    -0.161 A  
ENDBRANCH   6   7
ENDBRANCH   5   6
ENDBRANCH   4   5
ENDBRANCH   2   4
TORSDOF 4
ENDMDL
MODEL      108
REMARK 921   NORMALIZED FREE ENERGY PREDICTED BY IDOCK:   -4.26 KCAL/MOL
REMARK 922        TOTAL FREE ENERGY PREDICTED BY IDOCK:   -5.71 KCAL/MOL
REMARK 923 INTER-LIGAND FREE ENERGY PREDICTED BY IDOCK:   -5.04 KCAL/MOL
REMARK 924 INTRA-LIGAND FREE ENERGY PREDICTED BY IDOCK:   -0.67 KCAL/MOL
REMARK 927      BINDING AFFINITY PREDICTED BY RF-SCORE:    0.00 PKD
ROOT
HETATM    1  C   UNL     1      -5.320  10.589  71.052  1.00  0.00    -0.093 C  
HETATM    2  N   UNL     1      -6.564  10.618  70.280  1.00  0.00    -0.224 NA 
HETATM    3  C   UNL     1      -6.644  11.862  69.514  1.00  0.00    -0.093 C  
ENDROOT
BRANCH   2   4
HETATM    4  C   UNL     1      -6.664   9.417  69.422  1.00  0.00    -0.048 C  
BRANCH   4   5
HETATM    5  C   UNL     1      -7.261   8.198  70.146  1.00  0.00    -0.056 C  
BRANCH   5   6
HETATM    6  C   UNL     1      -8.621   8.462  70.754  1.00  0.00    -0.159 C  
BRANCH   6   7
HETATM    7  C   UNL     1      -9.810   8.414  70.113  1.00  0.00    -0.183 A  
HETATM    8  C   UNL     1      -9.978   7.507  68.952  1.00  0.00    -0.168 A  
HETATM    9  C   UNL     1      -9.962   6.118  69.140  1.00  0.00    -0.190 A  
HETATM   10  C   UNL     1     -10.240   5.258  68.077  1.00  0.00    -0.204 A  
HETATM   11  C   UNL     1     -10.521   5.778  66.817  1.00  0.00    -0.350 A  
HETATM   12  C   UNL     1     -10.518   7.160  66.614  1.00  0.00    -0.205 A  
HETATM   13  C   UNL     1     -10.269   8.040  67.678  1.00  0.00    -0.291 A  
HETATM   14  C   UNL     1     -10.285   9.488  67.392  1.00  0.00    -0.285 A  
HETATM   15  C   UNL     1     -10.752  10.464  68.190  1.00  0.00    -0.277 A  
HETATM   16  C   UNL     1     -11.354  10.298  69.526  1.00  0.00    -0.299 A  
HETATM   17  C   UNL     1     -12.394  11.161  69.897  1.00  0.00    -0.330 A  
HETATM   18  C   UNL     1     -13.001  11.053  71.152  1.00  0.00    -0.421 A  
HETATM   19  C   UNL     1     -12.578  10.083  72.054  1.00  0.00    -0.379 A  
HETATM   20  C   UNL     1     -11.536   9.226  71.708  1.00  0.00    -0.448 A  
HETATM   21  C   UNL     1     -10.904   9.344  70.459  1.00  0.00    -0.336 A  
ENDBRANCH   6   7
ENDBRANCH   5   6
ENDBRANCH   4   5
ENDBRANCH   2   4
TORSDOF 4
ENDMDL
MODEL      109
REMARK 921   NORMALIZED FREE ENERGY PREDICTED BY IDOCK:   -4.26 KCAL/MOL
REMARK 922        TOTAL FREE ENERGY PREDICTED BY IDOCK:   -5.71 KCAL/MOL
REMARK 923 INTER-LIGAND FREE ENERGY PREDICTED BY IDOCK:   -4.86 KCAL/MOL
REMARK 924 INTRA-LIGAND FREE ENERGY PREDICTED BY IDOCK:   -0.84 KCAL/MOL
REMARK 927      BINDING AFFINITY PREDICTED BY RF-SCORE:    0.00 PKD
ROOT
HETATM    1  C   UNL     1     -10.409  13.825  67.917  1.00  0.00    -0.244 C  
HETATM    2  N   UNL     1     -11.675  13.464  67.276  1.00  0.00    -0.358 NA 
HETATM    3  C   UNL     1     -11.893  14.305  66.098  1.00  0.00    -0.402 C  
ENDROOT
BRANCH   2   4
HETATM    4  C   UNL     1     -11.696  12.021  66.954  1.00  0.00    -0.266 C  
BRANCH   4   5
HETATM    5  C   UNL     1     -10.875  11.664  65.703  1.00  0.00    -0.330 C  
BRANCH   5   6
HETATM    6  C   UNL     1     -10.411  10.225  65.673  1.00  0.00    -0.152 C  
BRANCH   6   7
HETATM    7  C   UNL     1      -9.633   9.613  66.593  1.00  0.00    -0.241 A  
HETATM    8  C   UNL     1     -10.176   8.472  67.368  1.00  0.00    -0.329 A  
HETATM    9  C   UNL     1     -10.461   7.260  66.724  1.00  0.00    -0.311 A  
HETATM   10  C   UNL     1     -10.857   6.144  67.462  1.00  0.00    -0.422 A  
HETATM   11  C   UNL     1     -10.985   6.234  68.845  1.00  0.00    -0.435 A  
HETATM   12  C   UNL     1     -10.725   7.443  69.493  1.00  0.00    -0.233 A  
HETATM   13  C   UNL     1     -10.298   8.567  68.771  1.00  0.00    -0.233 A  
HETATM   14  C   UNL     1     -10.038   9.811  69.522  1.00  0.00    -0.233 A  
HETATM   15  C   UNL     1      -9.063  10.707  69.289  1.00  0.00    -0.117 A  
HETATM   16  C   UNL     1      -8.038  10.639  68.231  1.00  0.00    -0.118 A  
HETATM   17  C   UNL     1      -6.757  11.131  68.516  1.00  0.00    -0.062 A  
HETATM   18  C   UNL     1      -5.745  11.096  67.551  1.00  0.00    -0.047 A  
HETATM   19  C   UNL     1      -5.998  10.568  66.290  1.00  0.00    -0.094 A  
HETATM   20  C   UNL     1      -7.269  10.087  65.985  1.00  0.00    -0.112 A  
HETATM   21  C   UNL     1      -8.297  10.142  66.939  1.00  0.00    -0.122 A  
ENDBRANCH   6   7
ENDBRANCH   5   6
ENDBRANCH   4   5
ENDBRANCH   2   4
TORSDOF 4
ENDMDL
MODEL      110
REMARK 921   NORMALIZED FREE ENERGY PREDICTED BY IDOCK:   -4.26 KCAL/MOL
REMARK 922        TOTAL FREE ENERGY PREDICTED BY IDOCK:   -5.70 KCAL/MOL
REMARK 923 INTER-LIGAND FREE ENERGY PREDICTED BY IDOCK:   -5.42 KCAL/MOL
REMARK 924 INTRA-LIGAND FREE ENERGY PREDICTED BY IDOCK:   -0.28 KCAL/MOL
REMARK 927      BINDING AFFINITY PREDICTED BY RF-SCORE:    0.00 PKD
ROOT
HETATM    1  C   UNL     1      -9.235   6.206  65.990  1.00  0.00    -0.095 C  
HETATM    2  N   UNL     1     -10.524   6.053  66.669  1.00  0.00    -0.237 NA 
HETATM    3  C   UNL     1     -10.362   5.218  67.860  1.00  0.00    -0.125 C  
ENDROOT
BRANCH   2   4
HETATM    4  C   UNL     1     -11.101   7.379  66.981  1.00  0.00     0.093 C  
BRANCH   4   5
HETATM    5  C   UNL     1     -10.050   8.414  67.418  1.00  0.00    -0.301 C  
BRANCH   5   6
HETATM    6  C   UNL     1     -10.587   9.826  67.498  1.00  0.00    -0.335 C  
BRANCH   6   7
HETATM    7  C   UNL     1     -10.220  10.869  66.723  1.00  0.00    -0.277 A  
HETATM    8  C   UNL     1     -10.712  12.230  67.047  1.00  0.00    -0.263 A  
HETATM    9  C   UNL     1     -10.276  12.873  68.214  1.00  0.00    -0.245 A  
HETATM   10  C   UNL     1     -10.636  14.196  68.467  1.00  0.00    -0.257 A  
HETATM   11  C   UNL     1     -11.446  14.882  67.566  1.00  0.00    -0.361 A  
HETATM   12  C   UNL     1     -11.904  14.243  66.412  1.00  0.00    -0.427 A  
HETATM   13  C   UNL     1     -11.528  12.922  66.127  1.00  0.00    -0.393 A  
HETATM   14  C   UNL     1     -12.046  12.311  64.887  1.00  0.00    -0.422 A  
HETATM   15  C   UNL     1     -11.394  11.469  64.067  1.00  0.00    -0.380 A  
HETATM   16  C   UNL     1     -10.013  10.975  64.227  1.00  0.00    -0.373 A  
HETATM   17  C   UNL     1      -9.245  10.766  63.074  1.00  0.00    -0.320 A  
HETATM   18  C   UNL     1      -7.931  10.296  63.164  1.00  0.00    -0.151 A  
HETATM   19  C   UNL     1      -7.366  10.029  64.406  1.00  0.00    -0.138 A  
HETATM   20  C   UNL     1      -8.119  10.218  65.562  1.00  0.00    -0.156 A  
HETATM   21  C   UNL     1      -9.448  10.665  65.480  1.00  0.00    -0.261 A  
ENDBRANCH   6   7
ENDBRANCH   5   6
ENDBRANCH   4   5
ENDBRANCH   2   4
TORSDOF 4
ENDMDL
MODEL      111
REMARK 921   NORMALIZED FREE ENERGY PREDICTED BY IDOCK:   -4.25 KCAL/MOL
REMARK 922        TOTAL FREE ENERGY PREDICTED BY IDOCK:   -5.70 KCAL/MOL
REMARK 923 INTER-LIGAND FREE ENERGY PREDICTED BY IDOCK:   -4.92 KCAL/MOL
REMARK 924 INTRA-LIGAND FREE ENERGY PREDICTED BY IDOCK:   -0.78 KCAL/MOL
REMARK 927      BINDING AFFINITY PREDICTED BY RF-SCORE:    0.00 PKD
ROOT
HETATM    1  C   UNL     1      -8.499   7.137  66.908  1.00  0.00    -0.123 C  
HETATM    2  N   UNL     1      -9.866   6.861  66.464  1.00  0.00    -0.144 NA 
HETATM    3  C   UNL     1     -10.308   5.569  66.991  1.00  0.00    -0.254 C  
ENDROOT
BRANCH   2   4
HETATM    4  C   UNL     1     -10.766   7.969  66.853  1.00  0.00    -0.131 C  
BRANCH   4   5
HETATM    5  C   UNL     1     -10.283   9.346  66.367  1.00  0.00    -0.300 C  
BRANCH   5   6
HETATM    6  C   UNL     1     -10.789  10.497  67.209  1.00  0.00    -0.338 C  
BRANCH   6   7
HETATM    7  C   UNL     1     -10.320  10.875  68.417  1.00  0.00    -0.196 A  
HETATM    8  C   UNL     1      -9.014  11.572  68.508  1.00  0.00    -0.146 A  
HETATM    9  C   UNL     1      -8.872  12.866  67.988  1.00  0.00    -0.195 A  
HETATM   10  C   UNL     1      -7.687  13.577  68.175  1.00  0.00    -0.139 A  
HETATM   11  C   UNL     1      -6.630  12.996  68.870  1.00  0.00    -0.094 A  
HETATM   12  C   UNL     1      -6.752  11.699  69.373  1.00  0.00    -0.110 A  
HETATM   13  C   UNL     1      -7.948  10.981  69.219  1.00  0.00    -0.034 A  
HETATM   14  C   UNL     1      -8.008   9.616  69.780  1.00  0.00    -0.154 A  
HETATM   15  C   UNL     1      -9.064   9.032  70.371  1.00  0.00    -0.242 A  
HETATM   16  C   UNL     1     -10.394   9.630  70.591  1.00  0.00    -0.365 A  
HETATM   17  C   UNL     1     -11.089   9.291  71.760  1.00  0.00    -0.398 A  
HETATM   18  C   UNL     1     -12.355   9.825  72.021  1.00  0.00    -0.336 A  
HETATM   19  C   UNL     1     -12.944  10.704  71.119  1.00  0.00    -0.483 A  
HETATM   20  C   UNL     1     -12.274  11.042  69.945  1.00  0.00    -0.408 A  
HETATM   21  C   UNL     1     -11.014  10.491  69.664  1.00  0.00    -0.333 A  
ENDBRANCH   6   7
ENDBRANCH   5   6
ENDBRANCH   4   5
ENDBRANCH   2   4
TORSDOF 4
ENDMDL
MODEL      112
REMARK 921   NORMALIZED FREE ENERGY PREDICTED BY IDOCK:   -4.24 KCAL/MOL
REMARK 922        TOTAL FREE ENERGY PREDICTED BY IDOCK:   -5.68 KCAL/MOL
REMARK 923 INTER-LIGAND FREE ENERGY PREDICTED BY IDOCK:   -4.74 KCAL/MOL
REMARK 924 INTRA-LIGAND FREE ENERGY PREDICTED BY IDOCK:   -0.94 KCAL/MOL
REMARK 927      BINDING AFFINITY PREDICTED BY RF-SCORE:    0.00 PKD
ROOT
HETATM    1  C   UNL     1      -9.432   9.413  70.177  1.00  0.00    -0.240 C  
HETATM    2  N   UNL     1     -10.688   8.862  69.665  1.00  0.00    -0.233 NA 
HETATM    3  C   UNL     1     -10.414   7.683  68.841  1.00  0.00    -0.199 C  
ENDROOT
BRANCH   2   4
HETATM    4  C   UNL     1     -11.614   8.569  70.782  1.00  0.00    -0.231 C  
BRANCH   4   5
HETATM    5  C   UNL     1     -12.024   7.089  70.861  1.00  0.00    -0.409 C  
BRANCH   5   6
HETATM    6  C   UNL     1     -11.719   6.447  72.197  1.00  0.00    -0.366 C  
BRANCH   6   7
HETATM    7  C   UNL     1     -10.576   5.816  72.542  1.00  0.00    -0.262 A  
HETATM    8  C   UNL     1      -9.337   6.605  72.744  1.00  0.00    -0.149 A  
HETATM    9  C   UNL     1      -9.238   7.490  73.826  1.00  0.00    -0.327 A  
HETATM   10  C   UNL     1      -8.037   8.145  74.096  1.00  0.00    -0.312 A  
HETATM   11  C   UNL     1      -6.931   7.934  73.279  1.00  0.00    -0.114 A  
HETATM   12  C   UNL     1      -7.025   7.071  72.184  1.00  0.00    -0.064 A  
HETATM   13  C   UNL     1      -8.216   6.382  71.915  1.00  0.00    -0.109 A  
HETATM   14  C   UNL     1      -8.243   5.483  70.744  1.00  0.00    -0.117 A  
HETATM   15  C   UNL     1      -8.871   4.299  70.648  1.00  0.00    -0.135 A  
HETATM   16  C   UNL     1      -9.670   3.637  71.697  1.00  0.00    -0.236 A  
HETATM   17  C   UNL     1      -9.629   2.238  71.779  1.00  0.00    -0.207 A  
HETATM   18  C   UNL     1     -10.368   1.556  72.751  1.00  0.00    -0.207 A  
HETATM   19  C   UNL     1     -11.156   2.260  73.654  1.00  0.00    -0.302 A  
HETATM   20  C   UNL     1     -11.219   3.649  73.579  1.00  0.00    -0.285 A  
HETATM   21  C   UNL     1     -10.501   4.341  72.591  1.00  0.00    -0.241 A  
ENDBRANCH   6   7
ENDBRANCH   5   6
ENDBRANCH   4   5
ENDBRANCH   2   4
TORSDOF 4
ENDMDL
MODEL      113
REMARK 921   NORMALIZED FREE ENERGY PREDICTED BY IDOCK:   -4.23 KCAL/MOL
REMARK 922        TOTAL FREE ENERGY PREDICTED BY IDOCK:   -5.67 KCAL/MOL
REMARK 923 INTER-LIGAND FREE ENERGY PREDICTED BY IDOCK:   -5.28 KCAL/MOL
REMARK 924 INTRA-LIGAND FREE ENERGY PREDICTED BY IDOCK:   -0.38 KCAL/MOL
REMARK 927      BINDING AFFINITY PREDICTED BY RF-SCORE:    0.00 PKD
ROOT
HETATM    1  C   UNL     1     -10.453  15.753  66.052  1.00  0.00    -0.338 C  
HETATM    2  N   UNL     1     -11.430  14.764  65.594  1.00  0.00    -0.346 NA 
HETATM    3  C   UNL     1     -12.032  15.206  64.336  1.00  0.00    -0.310 C  
ENDROOT
BRANCH   2   4
HETATM    4  C   UNL     1     -10.799  13.431  65.482  1.00  0.00    -0.289 C  
BRANCH   4   5
HETATM    5  C   UNL     1     -11.670  12.294  66.042  1.00  0.00    -0.451 C  
BRANCH   5   6
HETATM    6  C   UNL     1     -10.909  11.010  66.283  1.00  0.00    -0.234 C  
BRANCH   6   7
HETATM    7  C   UNL     1     -10.174  10.705  67.376  1.00  0.00    -0.243 A  
HETATM    8  C   UNL     1      -8.712  10.496  67.239  1.00  0.00    -0.126 A  
HETATM    9  C   UNL     1      -7.878  11.574  66.911  1.00  0.00    -0.163 A  
HETATM   10  C   UNL     1      -6.492  11.416  66.899  1.00  0.00    -0.138 A  
HETATM   11  C   UNL     1      -5.931  10.178  67.198  1.00  0.00    -0.051 A  
HETATM   12  C   UNL     1      -6.754   9.092  67.504  1.00  0.00    -0.069 A  
HETATM   13  C   UNL     1      -8.148   9.240  67.549  1.00  0.00    -0.107 A  
HETATM   14  C   UNL     1      -8.957   8.051  67.882  1.00  0.00    -0.129 A  
HETATM   15  C   UNL     1     -10.077   8.017  68.624  1.00  0.00    -0.212 A  
HETATM   16  C   UNL     1     -10.742   9.165  69.270  1.00  0.00    -0.199 A  
HETATM   17  C   UNL     1     -11.365   8.960  70.508  1.00  0.00    -0.268 A  
HETATM   18  C   UNL     1     -12.013  10.010  71.166  1.00  0.00    -0.484 A  
HETATM   19  C   UNL     1     -12.048  11.279  70.596  1.00  0.00    -0.480 A  
HETATM   20  C   UNL     1     -11.446  11.497  69.359  1.00  0.00    -0.376 A  
HETATM   21  C   UNL     1     -10.815  10.443  68.681  1.00  0.00    -0.270 A  
ENDBRANCH   6   7
ENDBRANCH   5   6
ENDBRANCH   4   5
ENDBRANCH   2   4
TORSDOF 4
ENDMDL
MODEL      114
REMARK 921   NORMALIZED FREE ENERGY PREDICTED BY IDOCK:   -4.22 KCAL/MOL
REMARK 922        TOTAL FREE ENERGY PREDICTED BY IDOCK:   -5.66 KCAL/MOL
REMARK 923 INTER-LIGAND FREE ENERGY PREDICTED BY IDOCK:   -5.04 KCAL/MOL
REMARK 924 INTRA-LIGAND FREE ENERGY PREDICTED BY IDOCK:   -0.62 KCAL/MOL
REMARK 927      BINDING AFFINITY PREDICTED BY RF-SCORE:    0.00 PKD
ROOT
HETATM    1  C   UNL     1     -12.653  14.132  65.625  1.00  0.00    -0.470 C  
HETATM    2  N   UNL     1     -11.576  13.383  64.977  1.00  0.00    -0.309 NA 
HETATM    3  C   UNL     1     -11.979  13.008  63.620  1.00  0.00    -0.539 C  
ENDROOT
BRANCH   2   4
HETATM    4  C   UNL     1     -10.320  14.164  64.998  1.00  0.00    -0.418 C  
BRANCH   4   5
HETATM    5  C   UNL     1      -9.431  13.855  66.215  1.00  0.00    -0.235 C  
BRANCH   5   6
HETATM    6  C   UNL     1      -9.924  12.691  67.045  1.00  0.00    -0.220 C  
BRANCH   6   7
HETATM    7  C   UNL     1      -9.380  11.456  67.099  1.00  0.00    -0.180 A  
HETATM    8  C   UNL     1      -9.182  10.801  68.415  1.00  0.00    -0.164 A  
HETATM    9  C   UNL     1     -10.292  10.405  69.174  1.00  0.00    -0.241 A  
HETATM   10  C   UNL     1     -10.118   9.681  70.353  1.00  0.00    -0.336 A  
HETATM   11  C   UNL     1      -8.836   9.361  70.791  1.00  0.00    -0.233 A  
HETATM   12  C   UNL     1      -7.723   9.771  70.054  1.00  0.00    -0.179 A  
HETATM   13  C   UNL     1      -7.880  10.474  68.850  1.00  0.00    -0.124 A  
HETATM   14  C   UNL     1      -6.660  10.873  68.121  1.00  0.00    -0.062 A  
HETATM   15  C   UNL     1      -6.485  10.894  66.789  1.00  0.00    -0.115 A  
HETATM   16  C   UNL     1      -7.478  10.519  65.764  1.00  0.00    -0.139 A  
HETATM   17  C   UNL     1      -7.021   9.893  64.595  1.00  0.00    -0.133 A  
HETATM   18  C   UNL     1      -7.915   9.518  63.587  1.00  0.00    -0.141 A  
HETATM   19  C   UNL     1      -9.276   9.762  63.732  1.00  0.00    -0.237 A  
HETATM   20  C   UNL     1      -9.746  10.395  64.880  1.00  0.00    -0.372 A  
HETATM   21  C   UNL     1      -8.853  10.797  65.886  1.00  0.00    -0.191 A  
ENDBRANCH   6   7
ENDBRANCH   5   6
ENDBRANCH   4   5
ENDBRANCH   2   4
TORSDOF 4
ENDMDL
MODEL      115
REMARK 921   NORMALIZED FREE ENERGY PREDICTED BY IDOCK:   -4.21 KCAL/MOL
REMARK 922        TOTAL FREE ENERGY PREDICTED BY IDOCK:   -5.65 KCAL/MOL
REMARK 923 INTER-LIGAND FREE ENERGY PREDICTED BY IDOCK:   -5.23 KCAL/MOL
REMARK 924 INTRA-LIGAND FREE ENERGY PREDICTED BY IDOCK:   -0.42 KCAL/MOL
REMARK 927      BINDING AFFINITY PREDICTED BY RF-SCORE:    0.00 PKD
ROOT
HETATM    1  C   UNL     1     -10.245  19.309  68.347  1.00  0.00    -0.411 C  
HETATM    2  N   UNL     1     -10.694  18.785  67.056  1.00  0.00    -0.409 NA 
HETATM    3  C   UNL     1     -10.313  19.709  65.986  1.00  0.00    -0.523 C  
ENDROOT
BRANCH   2   4
HETATM    4  C   UNL     1     -10.163  17.421  66.841  1.00  0.00    -0.322 C  
BRANCH   4   5
HETATM    5  C   UNL     1     -11.017  16.324  67.498  1.00  0.00    -0.207 C  
BRANCH   5   6
HETATM    6  C   UNL     1     -10.526  14.922  67.212  1.00  0.00    -0.263 C  
BRANCH   6   7
HETATM    7  C   UNL     1      -9.938  14.082  68.092  1.00  0.00    -0.242 A  
HETATM    8  C   UNL     1      -8.494  14.234  68.394  1.00  0.00    -0.166 A  
HETATM    9  C   UNL     1      -8.038  15.365  69.085  1.00  0.00    -0.233 A  
HETATM   10  C   UNL     1      -6.704  15.461  69.481  1.00  0.00    -0.174 A  
HETATM   11  C   UNL     1      -5.813  14.436  69.175  1.00  0.00    -0.093 A  
HETATM   12  C   UNL     1      -6.252  13.315  68.467  1.00  0.00    -0.081 A  
HETATM   13  C   UNL     1      -7.597  13.189  68.087  1.00  0.00    -0.141 A  
HETATM   14  C   UNL     1      -7.991  11.976  67.343  1.00  0.00    -0.165 A  
HETATM   15  C   UNL     1      -9.144  11.296  67.462  1.00  0.00    -0.151 A  
HETATM   16  C   UNL     1     -10.267  11.613  68.364  1.00  0.00    -0.211 A  
HETATM   17  C   UNL     1     -10.990  10.550  68.922  1.00  0.00    -0.291 A  
HETATM   18  C   UNL     1     -12.066  10.789  69.783  1.00  0.00    -0.389 A  
HETATM   19  C   UNL     1     -12.434  12.093  70.098  1.00  0.00    -0.108 A  
HETATM   20  C   UNL     1     -11.736  13.162  69.542  1.00  0.00    -0.382 A  
HETATM   21  C   UNL     1     -10.670  12.930  68.657  1.00  0.00    -0.273 A  
ENDBRANCH   6   7
ENDBRANCH   5   6
ENDBRANCH   4   5
ENDBRANCH   2   4
TORSDOF 4
ENDMDL
MODEL      116
REMARK 921   NORMALIZED FREE ENERGY PREDICTED BY IDOCK:   -4.20 KCAL/MOL
REMARK 922        TOTAL FREE ENERGY PREDICTED BY IDOCK:   -5.64 KCAL/MOL
REMARK 923 INTER-LIGAND FREE ENERGY PREDICTED BY IDOCK:   -4.90 KCAL/MOL
REMARK 924 INTRA-LIGAND FREE ENERGY PREDICTED BY IDOCK:   -0.74 KCAL/MOL
REMARK 927      BINDING AFFINITY PREDICTED BY RF-SCORE:    0.00 PKD
ROOT
HETATM    1  C   UNL     1      -8.222   5.555  66.498  1.00  0.00    -0.105 C  
HETATM    2  N   UNL     1      -9.629   5.961  66.479  1.00  0.00    -0.154 NA 
HETATM    3  C   UNL     1     -10.473   4.811  66.152  1.00  0.00    -0.290 C  
ENDROOT
BRANCH   2   4
HETATM    4  C   UNL     1     -10.000   6.589  67.766  1.00  0.00    -0.131 C  
BRANCH   4   5
HETATM    5  C   UNL     1      -8.970   7.619  68.261  1.00  0.00    -0.127 C  
BRANCH   5   6
HETATM    6  C   UNL     1      -9.542   8.627  69.233  1.00  0.00    -0.166 C  
BRANCH   6   7
HETATM    7  C   UNL     1      -9.946   8.382  70.499  1.00  0.00    -0.205 A  
HETATM    8  C   UNL     1      -9.006   7.750  71.456  1.00  0.00    -0.156 A  
HETATM    9  C   UNL     1      -7.875   8.452  71.895  1.00  0.00    -0.165 A  
HETATM   10  C   UNL     1      -7.052   7.916  72.886  1.00  0.00    -0.104 A  
HETATM   11  C   UNL     1      -7.343   6.670  73.434  1.00  0.00    -0.080 A  
HETATM   12  C   UNL     1      -8.455   5.953  72.987  1.00  0.00    -0.117 A  
HETATM   13  C   UNL     1      -9.310   6.489  72.013  1.00  0.00    -0.147 A  
HETATM   14  C   UNL     1     -10.469   5.677  71.591  1.00  0.00    -0.286 A  
HETATM   15  C   UNL     1     -11.698   6.122  71.282  1.00  0.00    -0.211 A  
HETATM   16  C   UNL     1     -12.159   7.523  71.302  1.00  0.00    -0.351 A  
HETATM   17  C   UNL     1     -13.482   7.782  71.687  1.00  0.00    -0.401 A  
HETATM   18  C   UNL     1     -13.975   9.090  71.721  1.00  0.00    -0.415 A  
HETATM   19  C   UNL     1     -13.155  10.157  71.372  1.00  0.00    -0.512 A  
HETATM   20  C   UNL     1     -11.842   9.918  70.974  1.00  0.00    -0.463 A  
HETATM   21  C   UNL     1     -11.346   8.606  70.912  1.00  0.00    -0.314 A  
ENDBRANCH   6   7
ENDBRANCH   5   6
ENDBRANCH   4   5
ENDBRANCH   2   4
TORSDOF 4
ENDMDL
MODEL      117
REMARK 921   NORMALIZED FREE ENERGY PREDICTED BY IDOCK:   -4.19 KCAL/MOL
REMARK 922        TOTAL FREE ENERGY PREDICTED BY IDOCK:   -5.62 KCAL/MOL
REMARK 923 INTER-LIGAND FREE ENERGY PREDICTED BY IDOCK:   -5.12 KCAL/MOL
REMARK 924 INTRA-LIGAND FREE ENERGY PREDICTED BY IDOCK:   -0.51 KCAL/MOL
REMARK 927      BINDING AFFINITY PREDICTED BY RF-SCORE:    0.00 PKD
ROOT
HETATM    1  C   UNL     1     -12.782  13.923  65.548  1.00  0.00    -0.499 C  
HETATM    2  N   UNL     1     -11.679  14.211  64.630  1.00  0.00    -0.396 NA 
HETATM    3  C   UNL     1     -10.984  15.427  65.055  1.00  0.00    -0.436 C  
ENDROOT
BRANCH   2   4
HETATM    4  C   UNL     1     -10.773  13.046  64.532  1.00  0.00    -0.385 C  
BRANCH   4   5
HETATM    5  C   UNL     1     -11.021  11.987  65.619  1.00  0.00    -0.343 C  
BRANCH   5   6
HETATM    6  C   UNL     1      -9.781  11.623  66.404  1.00  0.00    -0.236 C  
BRANCH   6   7
HETATM    7  C   UNL     1      -9.553  11.880  67.711  1.00  0.00    -0.190 A  
HETATM    8  C   UNL     1      -8.851  13.128  68.098  1.00  0.00    -0.194 A  
HETATM    9  C   UNL     1      -9.472  14.370  67.906  1.00  0.00    -0.214 A  
HETATM   10  C   UNL     1      -8.875  15.539  68.377  1.00  0.00    -0.183 A  
HETATM   11  C   UNL     1      -7.646  15.478  69.029  1.00  0.00    -0.180 A  
HETATM   12  C   UNL     1      -7.008  14.248  69.206  1.00  0.00    -0.116 A  
HETATM   13  C   UNL     1      -7.609  13.060  68.764  1.00  0.00    -0.027 A  
HETATM   14  C   UNL     1      -6.879  11.795  68.987  1.00  0.00    -0.106 A  
HETATM   15  C   UNL     1      -7.409  10.604  69.313  1.00  0.00    -0.119 A  
HETATM   16  C   UNL     1      -8.837  10.301  69.521  1.00  0.00    -0.166 A  
HETATM   17  C   UNL     1      -9.180   9.358  70.499  1.00  0.00    -0.314 A  
HETATM   18  C   UNL     1     -10.518   9.028  70.739  1.00  0.00    -0.304 A  
HETATM   19  C   UNL     1     -11.531   9.635  70.004  1.00  0.00    -0.191 A  
HETATM   20  C   UNL     1     -11.208  10.564  69.018  1.00  0.00    -0.316 A  
HETATM   21  C   UNL     1      -9.866  10.882  68.754  1.00  0.00    -0.203 A  
ENDBRANCH   6   7
ENDBRANCH   5   6
ENDBRANCH   4   5
ENDBRANCH   2   4
TORSDOF 4
ENDMDL
MODEL      118
REMARK 921   NORMALIZED FREE ENERGY PREDICTED BY IDOCK:   -4.19 KCAL/MOL
REMARK 922        TOTAL FREE ENERGY PREDICTED BY IDOCK:   -5.62 KCAL/MOL
REMARK 923 INTER-LIGAND FREE ENERGY PREDICTED BY IDOCK:   -5.24 KCAL/MOL
REMARK 924 INTRA-LIGAND FREE ENERGY PREDICTED BY IDOCK:   -0.38 KCAL/MOL
REMARK 927      BINDING AFFINITY PREDICTED BY RF-SCORE:    0.00 PKD
ROOT
HETATM    1  C   UNL     1     -11.058  14.182  67.151  1.00  0.00    -0.307 C  
HETATM    2  N   UNL     1     -11.169  15.391  67.970  1.00  0.00    -0.315 NA 
HETATM    3  C   UNL     1     -10.875  15.072  69.368  1.00  0.00    -0.260 C  
ENDROOT
BRANCH   2   4
HETATM    4  C   UNL     1     -10.292  16.456  67.436  1.00  0.00    -0.295 C  
BRANCH   4   5
HETATM    5  C   UNL     1      -8.975  15.923  66.847  1.00  0.00    -0.257 C  
BRANCH   5   6
HETATM    6  C   UNL     1      -8.169  16.975  66.118  1.00  0.00    -0.284 C  
BRANCH   6   7
HETATM    7  C   UNL     1      -7.087  17.631  66.594  1.00  0.00    -0.258 A  
HETATM    8  C   UNL     1      -6.491  17.216  67.887  1.00  0.00    -0.157 A  
HETATM    9  C   UNL     1      -5.854  15.972  67.998  1.00  0.00    -0.135 A  
HETATM   10  C   UNL     1      -5.185  15.624  69.171  1.00  0.00    -0.096 A  
HETATM   11  C   UNL     1      -5.162  16.507  70.247  1.00  0.00    -0.194 A  
HETATM   12  C   UNL     1      -5.813  17.739  70.155  1.00  0.00    -0.189 A  
HETATM   13  C   UNL     1      -6.465  18.118  68.972  1.00  0.00    -0.245 A  
HETATM   14  C   UNL     1      -7.130  19.436  68.944  1.00  0.00    -0.393 A  
HETATM   15  C   UNL     1      -7.192  20.288  67.906  1.00  0.00    -0.319 A  
HETATM   16  C   UNL     1      -6.605  20.090  66.567  1.00  0.00    -0.226 A  
HETATM   17  C   UNL     1      -6.101  21.210  65.892  1.00  0.00    -0.275 A  
HETATM   18  C   UNL     1      -5.536  21.084  64.618  1.00  0.00    -0.265 A  
HETATM   19  C   UNL     1      -5.467  19.839  64.003  1.00  0.00    -0.272 A  
HETATM   20  C   UNL     1      -5.976  18.717  64.653  1.00  0.00    -0.214 A  
HETATM   21  C   UNL     1      -6.567  18.839  65.921  1.00  0.00    -0.282 A  
ENDBRANCH   6   7
ENDBRANCH   5   6
ENDBRANCH   4   5
ENDBRANCH   2   4
TORSDOF 4
ENDMDL
MODEL      119
REMARK 921   NORMALIZED FREE ENERGY PREDICTED BY IDOCK:   -4.14 KCAL/MOL
REMARK 922        TOTAL FREE ENERGY PREDICTED BY IDOCK:   -5.56 KCAL/MOL
REMARK 923 INTER-LIGAND FREE ENERGY PREDICTED BY IDOCK:   -4.78 KCAL/MOL
REMARK 924 INTRA-LIGAND FREE ENERGY PREDICTED BY IDOCK:   -0.79 KCAL/MOL
REMARK 927      BINDING AFFINITY PREDICTED BY RF-SCORE:    0.00 PKD
ROOT
HETATM    1  C   UNL     1     -13.077   9.490  70.855  1.00  0.00    -0.109 C  
HETATM    2  N   UNL     1     -11.752  10.078  71.055  1.00  0.00    -0.364 NA 
HETATM    3  C   UNL     1     -10.807   9.042  71.475  1.00  0.00    -0.346 C  
ENDROOT
BRANCH   2   4
HETATM    4  C   UNL     1     -11.312  10.782  69.830  1.00  0.00    -0.311 C  
BRANCH   4   5
HETATM    5  C   UNL     1     -11.700  10.051  68.534  1.00  0.00     0.288 C  
BRANCH   5   6
HETATM    6  C   UNL     1     -10.632  10.109  67.464  1.00  0.00    -0.327 C  
BRANCH   6   7
HETATM    7  C   UNL     1     -10.134  11.224  66.886  1.00  0.00    -0.246 A  
HETATM    8  C   UNL     1      -8.686  11.522  66.998  1.00  0.00    -0.169 A  
HETATM    9  C   UNL     1      -7.750  10.703  66.351  1.00  0.00    -0.141 A  
HETATM   10  C   UNL     1      -6.398  11.042  66.348  1.00  0.00    -0.133 A  
HETATM   11  C   UNL     1      -5.967  12.191  67.005  1.00  0.00    -0.095 A  
HETATM   12  C   UNL     1      -6.888  13.002  67.672  1.00  0.00    -0.155 A  
HETATM   13  C   UNL     1      -8.257  12.692  67.660  1.00  0.00    -0.174 A  
HETATM   14  C   UNL     1      -9.174  13.595  68.383  1.00  0.00    -0.169 A  
HETATM   15  C   UNL     1     -10.415  13.953  68.011  1.00  0.00    -0.243 A  
HETATM   16  C   UNL     1     -11.129  13.523  66.795  1.00  0.00    -0.311 A  
HETATM   17  C   UNL     1     -11.985  14.439  66.169  1.00  0.00    -0.381 A  
HETATM   18  C   UNL     1     -12.692  14.087  65.014  1.00  0.00    -0.359 A  
HETATM   19  C   UNL     1     -12.552  12.815  64.469  1.00  0.00    -0.463 A  
HETATM   20  C   UNL     1     -11.717  11.886  65.086  1.00  0.00    -0.244 A  
HETATM   21  C   UNL     1     -11.024  12.224  66.259  1.00  0.00    -0.327 A  
ENDBRANCH   6   7
ENDBRANCH   5   6
ENDBRANCH   4   5
ENDBRANCH   2   4
TORSDOF 4
ENDMDL
MODEL      120
REMARK 921   NORMALIZED FREE ENERGY PREDICTED BY IDOCK:   -4.14 KCAL/MOL
REMARK 922        TOTAL FREE ENERGY PREDICTED BY IDOCK:   -5.56 KCAL/MOL
REMARK 923 INTER-LIGAND FREE ENERGY PREDICTED BY IDOCK:   -5.22 KCAL/MOL
REMARK 924 INTRA-LIGAND FREE ENERGY PREDICTED BY IDOCK:   -0.34 KCAL/MOL
REMARK 927      BINDING AFFINITY PREDICTED BY RF-SCORE:    0.00 PKD
ROOT
HETATM    1  C   UNL     1      -6.203   6.835  68.083  1.00  0.00    -0.033 C  
HETATM    2  N   UNL     1      -7.060   7.533  69.043  1.00  0.00    -0.077 NA 
HETATM    3  C   UNL     1      -6.931   6.915  70.364  1.00  0.00    -0.063 C  
ENDROOT
BRANCH   2   4
HETATM    4  C   UNL     1      -6.743   8.978  69.061  1.00  0.00    -0.051 C  
BRANCH   4   5
HETATM    5  C   UNL     1      -7.716   9.805  69.918  1.00  0.00    -0.162 C  
BRANCH   5   6
HETATM    6  C   UNL     1      -8.601  10.728  69.110  1.00  0.00    -0.097 C  
BRANCH   6   7
HETATM    7  C   UNL     1      -9.747  10.393  68.478  1.00  0.00    -0.174 A  
HETATM    8  C   UNL     1     -10.147   8.967  68.398  1.00  0.00    -0.216 A  
HETATM    9  C   UNL     1     -10.523   8.279  69.560  1.00  0.00    -0.228 A  
HETATM   10  C   UNL     1     -11.017   6.977  69.481  1.00  0.00    -0.251 A  
HETATM   11  C   UNL     1     -11.125   6.348  68.244  1.00  0.00    -0.359 A  
HETATM   12  C   UNL     1     -10.732   7.017  67.083  1.00  0.00    -0.433 A  
HETATM   13  C   UNL     1     -10.260   8.337  67.141  1.00  0.00    -0.365 A  
HETATM   14  C   UNL     1      -9.865   8.983  65.873  1.00  0.00    -0.257 A  
HETATM   15  C   UNL     1     -10.050  10.270  65.531  1.00  0.00    -0.351 A  
HETATM   16  C   UNL     1     -10.692  11.316  66.349  1.00  0.00    -0.320 A  
HETATM   17  C   UNL     1     -11.454  12.295  65.695  1.00  0.00    -0.416 A  
HETATM   18  C   UNL     1     -12.083  13.313  66.418  1.00  0.00    -0.454 A  
HETATM   19  C   UNL     1     -11.961  13.368  67.802  1.00  0.00    -0.363 A  
HETATM   20  C   UNL     1     -11.196  12.412  68.467  1.00  0.00    -0.321 A  
HETATM   21  C   UNL     1     -10.541  11.401  67.746  1.00  0.00    -0.231 A  
ENDBRANCH   6   7
ENDBRANCH   5   6
ENDBRANCH   4   5
ENDBRANCH   2   4
TORSDOF 4
ENDMDL
MODEL      121
REMARK 921   NORMALIZED FREE ENERGY PREDICTED BY IDOCK:   -4.12 KCAL/MOL
REMARK 922        TOTAL FREE ENERGY PREDICTED BY IDOCK:   -5.53 KCAL/MOL
REMARK 923 INTER-LIGAND FREE ENERGY PREDICTED BY IDOCK:   -5.13 KCAL/MOL
REMARK 924 INTRA-LIGAND FREE ENERGY PREDICTED BY IDOCK:   -0.41 KCAL/MOL
REMARK 927      BINDING AFFINITY PREDICTED BY RF-SCORE:    0.00 PKD
ROOT
HETATM    1  C   UNL     1      -6.353  18.130  69.174  1.00  0.00    -0.249 C  
HETATM    2  N   UNL     1      -6.180  16.676  69.147  1.00  0.00    -0.172 NA 
HETATM    3  C   UNL     1      -5.479  16.238  70.355  1.00  0.00    -0.171 C  
ENDROOT
BRANCH   2   4
HETATM    4  C   UNL     1      -7.488  16.005  68.976  1.00  0.00    -0.202 C  
BRANCH   4   5
HETATM    5  C   UNL     1      -7.384  14.636  68.285  1.00  0.00    -0.117 C  
BRANCH   5   6
HETATM    6  C   UNL     1      -8.677  13.850  68.301  1.00  0.00    -0.183 C  
BRANCH   6   7
HETATM    7  C   UNL     1      -9.197  13.139  67.277  1.00  0.00    -0.221 A  
HETATM    8  C   UNL     1     -10.260  13.741  66.435  1.00  0.00    -0.292 A  
HETATM    9  C   UNL     1      -9.962  14.827  65.601  1.00  0.00    -0.390 A  
HETATM   10  C   UNL     1     -10.920  15.322  64.717  1.00  0.00    -0.403 A  
HETATM   11  C   UNL     1     -12.186  14.746  64.670  1.00  0.00    -0.405 A  
HETATM   12  C   UNL     1     -12.501  13.678  65.513  1.00  0.00    -0.544 A  
HETATM   13  C   UNL     1     -11.540  13.149  66.388  1.00  0.00    -0.394 A  
HETATM   14  C   UNL     1     -11.941  12.018  67.248  1.00  0.00    -0.111 A  
HETATM   15  C   UNL     1     -11.186  10.963  67.599  1.00  0.00    -0.379 A  
HETATM   16  C   UNL     1      -9.790  10.705  67.197  1.00  0.00    -0.208 A  
HETATM   17  C   UNL     1      -9.395   9.377  66.983  1.00  0.00    -0.185 A  
HETATM   18  C   UNL     1      -8.084   9.072  66.605  1.00  0.00    -0.107 A  
HETATM   19  C   UNL     1      -7.150  10.088  66.434  1.00  0.00    -0.102 A  
HETATM   20  C   UNL     1      -7.520  11.412  66.656  1.00  0.00    -0.110 A  
HETATM   21  C   UNL     1      -8.828  11.725  67.061  1.00  0.00    -0.182 A  
ENDBRANCH   6   7
ENDBRANCH   5   6
ENDBRANCH   4   5
ENDBRANCH   2   4
TORSDOF 4
ENDMDL
MODEL      122
REMARK 921   NORMALIZED FREE ENERGY PREDICTED BY IDOCK:   -4.12 KCAL/MOL
REMARK 922        TOTAL FREE ENERGY PREDICTED BY IDOCK:   -5.53 KCAL/MOL
REMARK 923 INTER-LIGAND FREE ENERGY PREDICTED BY IDOCK:   -4.79 KCAL/MOL
REMARK 924 INTRA-LIGAND FREE ENERGY PREDICTED BY IDOCK:   -0.74 KCAL/MOL
REMARK 927      BINDING AFFINITY PREDICTED BY RF-SCORE:    0.00 PKD
ROOT
HETATM    1  C   UNL     1      -8.744  19.784  66.391  1.00  0.00    -0.368 C  
HETATM    2  N   UNL     1      -9.105  18.579  67.140  1.00  0.00    -0.273 NA 
HETATM    3  C   UNL     1      -9.130  18.875  68.573  1.00  0.00    -0.352 C  
ENDROOT
BRANCH   2   4
HETATM    4  C   UNL     1     -10.392  18.036  66.652  1.00  0.00    -0.371 C  
BRANCH   4   5
HETATM    5  C   UNL     1     -10.262  16.646  66.008  1.00  0.00    -0.366 C  
BRANCH   5   6
HETATM    6  C   UNL     1     -11.133  15.594  66.658  1.00  0.00    -0.147 C  
BRANCH   6   7
HETATM    7  C   UNL     1     -10.792  14.799  67.696  1.00  0.00    -0.285 A  
HETATM    8  C   UNL     1     -11.220  15.164  69.068  1.00  0.00    -0.282 A  
HETATM    9  C   UNL     1     -12.578  15.124  69.413  1.00  0.00     0.040 A  
HETATM   10  C   UNL     1     -12.980  15.347  70.729  1.00  0.00    -0.510 A  
HETATM   11  C   UNL     1     -12.031  15.627  71.708  1.00  0.00    -0.518 A  
HETATM   12  C   UNL     1     -10.677  15.692  71.371  1.00  0.00     0.230 A  
HETATM   13  C   UNL     1     -10.253  15.441  70.057  1.00  0.00    -0.265 A  
HETATM   14  C   UNL     1      -8.806  15.524  69.773  1.00  0.00    -0.016 A  
HETATM   15  C   UNL     1      -8.101  14.741  68.939  1.00  0.00    -0.160 A  
HETATM   16  C   UNL     1      -8.621  13.624  68.127  1.00  0.00    -0.176 A  
HETATM   17  C   UNL     1      -7.795  12.510  67.925  1.00  0.00    -0.144 A  
HETATM   18  C   UNL     1      -8.232  11.423  67.162  1.00  0.00    -0.157 A  
HETATM   19  C   UNL     1      -9.500  11.434  66.590  1.00  0.00    -0.206 A  
HETATM   20  C   UNL     1     -10.329  12.539  66.768  1.00  0.00    -0.241 A  
HETATM   21  C   UNL     1      -9.888  13.645  67.512  1.00  0.00    -0.227 A  
ENDBRANCH   6   7
ENDBRANCH   5   6
ENDBRANCH   4   5
ENDBRANCH   2   4
TORSDOF 4
ENDMDL
MODEL      123
REMARK 921   NORMALIZED FREE ENERGY PREDICTED BY IDOCK:   -4.10 KCAL/MOL
REMARK 922        TOTAL FREE ENERGY PREDICTED BY IDOCK:   -5.51 KCAL/MOL
REMARK 923 INTER-LIGAND FREE ENERGY PREDICTED BY IDOCK:   -5.10 KCAL/MOL
REMARK 924 INTRA-LIGAND FREE ENERGY PREDICTED BY IDOCK:   -0.41 KCAL/MOL
REMARK 927      BINDING AFFINITY PREDICTED BY RF-SCORE:    0.00 PKD
ROOT
HETATM    1  C   UNL     1      -9.818   4.395  70.597  1.00  0.00    -0.210 C  
HETATM    2  N   UNL     1     -10.009   5.814  70.291  1.00  0.00    -0.187 NA 
HETATM    3  C   UNL     1      -9.252   6.633  71.239  1.00  0.00    -0.155 C  
ENDROOT
BRANCH   2   4
HETATM    4  C   UNL     1      -9.641   6.091  68.885  1.00  0.00    -0.126 C  
BRANCH   4   5
HETATM    5  C   UNL     1     -10.857   6.229  67.953  1.00  0.00    -0.417 C  
BRANCH   5   6
HETATM    6  C   UNL     1     -10.784   7.430  67.037  1.00  0.00    -0.389 C  
BRANCH   6   7
HETATM    7  C   UNL     1     -10.124   8.584  67.277  1.00  0.00    -0.317 A  
HETATM    8  C   UNL     1     -10.760   9.628  68.117  1.00  0.00    -0.266 A  
HETATM    9  C   UNL     1     -10.966   9.398  69.484  1.00  0.00    -0.193 A  
HETATM   10  C   UNL     1     -11.450  10.416  70.306  1.00  0.00    -0.406 A  
HETATM   11  C   UNL     1     -11.746  11.664  69.767  1.00  0.00    -0.425 A  
HETATM   12  C   UNL     1     -11.566  11.897  68.402  1.00  0.00    -0.376 A  
HETATM   13  C   UNL     1     -11.052  10.894  67.566  1.00  0.00    -0.375 A  
HETATM   14  C   UNL     1     -10.884  11.211  66.133  1.00  0.00    -0.247 A  
HETATM   15  C   UNL     1      -9.887  10.807  65.328  1.00  0.00    -0.329 A  
HETATM   16  C   UNL     1      -8.740   9.958  65.703  1.00  0.00    -0.168 A  
HETATM   17  C   UNL     1      -7.503  10.208  65.093  1.00  0.00    -0.141 A  
HETATM   18  C   UNL     1      -6.381   9.434  65.407  1.00  0.00    -0.066 A  
HETATM   19  C   UNL     1      -6.479   8.401  66.333  1.00  0.00    -0.058 A  
HETATM   20  C   UNL     1      -7.704   8.130  66.938  1.00  0.00    -0.096 A  
HETATM   21  C   UNL     1      -8.841   8.886  66.611  1.00  0.00    -0.150 A  
ENDBRANCH   6   7
ENDBRANCH   5   6
ENDBRANCH   4   5
ENDBRANCH   2   4
TORSDOF 4
ENDMDL
MODEL      124
REMARK 921   NORMALIZED FREE ENERGY PREDICTED BY IDOCK:   -4.08 KCAL/MOL
REMARK 922        TOTAL FREE ENERGY PREDICTED BY IDOCK:   -5.49 KCAL/MOL
REMARK 923 INTER-LIGAND FREE ENERGY PREDICTED BY IDOCK:   -4.95 KCAL/MOL
REMARK 924 INTRA-LIGAND FREE ENERGY PREDICTED BY IDOCK:   -0.54 KCAL/MOL
REMARK 927      BINDING AFFINITY PREDICTED BY RF-SCORE:    0.00 PKD
ROOT
HETATM    1  C   UNL     1     -10.867  17.360  65.368  1.00  0.00     0.020 C  
HETATM    2  N   UNL     1      -9.942  16.563  66.175  1.00  0.00    -0.325 NA 
HETATM    3  C   UNL     1      -8.686  17.293  66.359  1.00  0.00    -0.250 C  
ENDROOT
BRANCH   2   4
HETATM    4  C   UNL     1     -10.572  16.188  67.460  1.00  0.00    -0.314 C  
BRANCH   4   5
HETATM    5  C   UNL     1     -11.625  15.076  67.321  1.00  0.00    -0.285 C  
BRANCH   5   6
HETATM    6  C   UNL     1     -11.126  13.713  67.748  1.00  0.00    -0.293 C  
BRANCH   6   7
HETATM    7  C   UNL     1     -10.075  13.044  67.226  1.00  0.00    -0.235 A  
HETATM    8  C   UNL     1     -10.218  12.363  65.917  1.00  0.00    -0.273 A  
HETATM    9  C   UNL     1     -10.385  13.119  64.749  1.00  0.00    -0.369 A  
HETATM   10  C   UNL     1     -10.399  12.496  63.501  1.00  0.00    -0.311 A  
HETATM   11  C   UNL     1     -10.262  11.114  63.411  1.00  0.00    -0.435 A  
HETATM   12  C   UNL     1     -10.117  10.349  64.571  1.00  0.00    -0.365 A  
HETATM   13  C   UNL     1     -10.072  10.962  65.832  1.00  0.00    -0.307 A  
HETATM   14  C   UNL     1      -9.913  10.092  67.015  1.00  0.00    -0.249 A  
HETATM   15  C   UNL     1      -9.199  10.357  68.122  1.00  0.00    -0.145 A  
HETATM   16  C   UNL     1      -8.414  11.575  68.395  1.00  0.00    -0.159 A  
HETATM   17  C   UNL     1      -7.223  11.448  69.123  1.00  0.00    -0.102 A  
HETATM   18  C   UNL     1      -6.439  12.569  69.415  1.00  0.00    -0.102 A  
HETATM   19  C   UNL     1      -6.833  13.831  68.983  1.00  0.00    -0.111 A  
HETATM   20  C   UNL     1      -8.020  13.978  68.270  1.00  0.00    -0.146 A  
HETATM   21  C   UNL     1      -8.826  12.861  67.995  1.00  0.00    -0.195 A  
ENDBRANCH   6   7
ENDBRANCH   5   6
ENDBRANCH   4   5
ENDBRANCH   2   4
TORSDOF 4
ENDMDL
MODEL      125
REMARK 921   NORMALIZED FREE ENERGY PREDICTED BY IDOCK:   -4.08 KCAL/MOL
REMARK 922        TOTAL FREE ENERGY PREDICTED BY IDOCK:   -5.49 KCAL/MOL
REMARK 923 INTER-LIGAND FREE ENERGY PREDICTED BY IDOCK:   -4.92 KCAL/MOL
REMARK 924 INTRA-LIGAND FREE ENERGY PREDICTED BY IDOCK:   -0.56 KCAL/MOL
REMARK 927      BINDING AFFINITY PREDICTED BY RF-SCORE:    0.00 PKD
ROOT
HETATM    1  C   UNL     1     -10.170   4.877  71.702  1.00  0.00    -0.197 C  
HETATM    2  N   UNL     1      -9.541   6.087  71.168  1.00  0.00    -0.171 NA 
HETATM    3  C   UNL     1      -8.250   6.305  71.822  1.00  0.00    -0.117 C  
ENDROOT
BRANCH   2   4
HETATM    4  C   UNL     1      -9.422   5.998  69.696  1.00  0.00    -0.144 C  
BRANCH   4   5
HETATM    5  C   UNL     1     -10.640   6.568  68.950  1.00  0.00    -0.280 C  
BRANCH   5   6
HETATM    6  C   UNL     1     -10.437   7.982  68.452  1.00  0.00    -0.205 C  
BRANCH   6   7
HETATM    7  C   UNL     1     -10.179   9.070  69.208  1.00  0.00    -0.210 A  
HETATM    8  C   UNL     1     -11.249   9.638  70.063  1.00  0.00    -0.271 A  
HETATM    9  C   UNL     1     -11.721   8.915  71.168  1.00  0.00    -0.356 A  
HETATM   10  C   UNL     1     -12.638   9.489  72.047  1.00  0.00    -0.456 A  
HETATM   11  C   UNL     1     -13.104  10.781  71.822  1.00  0.00    -0.573 A  
HETATM   12  C   UNL     1     -12.658  11.501  70.712  1.00  0.00    -0.390 A  
HETATM   13  C   UNL     1     -11.713  10.951  69.833  1.00  0.00    -0.418 A  
HETATM   14  C   UNL     1     -11.283  11.770  68.682  1.00  0.00    -0.312 A  
HETATM   15  C   UNL     1     -10.048  11.840  68.156  1.00  0.00    -0.196 A  
HETATM   16  C   UNL     1      -8.851  11.112  68.618  1.00  0.00    -0.155 A  
HETATM   17  C   UNL     1      -7.609  11.757  68.532  1.00  0.00    -0.131 A  
HETATM   18  C   UNL     1      -6.439  11.116  68.952  1.00  0.00    -0.056 A  
HETATM   19  C   UNL     1      -6.493   9.824  69.463  1.00  0.00    -0.046 A  
HETATM   20  C   UNL     1      -7.717   9.163  69.543  1.00  0.00    -0.080 A  
HETATM   21  C   UNL     1      -8.892   9.790  69.100  1.00  0.00    -0.160 A  
ENDBRANCH   6   7
ENDBRANCH   5   6
ENDBRANCH   4   5
ENDBRANCH   2   4
TORSDOF 4
ENDMDL
MODEL      126
REMARK 921   NORMALIZED FREE ENERGY PREDICTED BY IDOCK:   -4.08 KCAL/MOL
REMARK 922        TOTAL FREE ENERGY PREDICTED BY IDOCK:   -5.48 KCAL/MOL
REMARK 923 INTER-LIGAND FREE ENERGY PREDICTED BY IDOCK:   -5.03 KCAL/MOL
REMARK 924 INTRA-LIGAND FREE ENERGY PREDICTED BY IDOCK:   -0.46 KCAL/MOL
REMARK 927      BINDING AFFINITY PREDICTED BY RF-SCORE:    0.00 PKD
ROOT
HETATM    1  C   UNL     1      -8.610   6.723  65.835  1.00  0.00    -0.147 C  
HETATM    2  N   UNL     1      -7.494   7.273  66.606  1.00  0.00    -0.087 NA 
HETATM    3  C   UNL     1      -7.163   8.612  66.115  1.00  0.00    -0.085 C  
ENDROOT
BRANCH   2   4
HETATM    4  C   UNL     1      -7.813   7.263  68.051  1.00  0.00    -0.118 C  
BRANCH   4   5
HETATM    5  C   UNL     1      -8.641   8.479  68.500  1.00  0.00    -0.138 C  
BRANCH   5   6
HETATM    6  C   UNL     1      -9.783   8.125  69.426  1.00  0.00    -0.170 C  
BRANCH   6   7
HETATM    7  C   UNL     1     -10.026   8.658  70.643  1.00  0.00    -0.230 A  
HETATM    8  C   UNL     1      -9.302   8.138  71.827  1.00  0.00    -0.241 A  
HETATM    9  C   UNL     1      -7.921   8.346  71.952  1.00  0.00    -0.180 A  
HETATM   10  C   UNL     1      -7.252   7.969  73.116  1.00  0.00    -0.144 A  
HETATM   11  C   UNL     1      -7.953   7.367  74.157  1.00  0.00    -0.178 A  
HETATM   12  C   UNL     1      -9.324   7.135  74.034  1.00  0.00    -0.291 A  
HETATM   13  C   UNL     1     -10.019   7.534  72.882  1.00  0.00    -0.303 A  
HETATM   14  C   UNL     1     -11.468   7.260  72.822  1.00  0.00    -0.273 A  
HETATM   15  C   UNL     1     -12.418   8.045  72.286  1.00  0.00    -0.302 A  
HETATM   16  C   UNL     1     -12.216   9.357  71.642  1.00  0.00    -0.467 A  
HETATM   17  C   UNL     1     -13.208  10.334  71.802  1.00  0.00    -0.534 A  
HETATM   18  C   UNL     1     -13.074  11.595  71.212  1.00  0.00    -0.254 A  
HETATM   19  C   UNL     1     -11.947  11.897  70.455  1.00  0.00    -0.400 A  
HETATM   20  C   UNL     1     -10.958  10.934  70.273  1.00  0.00    -0.061 A  
HETATM   21  C   UNL     1     -11.097   9.657  70.841  1.00  0.00    -0.422 A  
ENDBRANCH   6   7
ENDBRANCH   5   6
ENDBRANCH   4   5
ENDBRANCH   2   4
TORSDOF 4
ENDMDL
MODEL      127
REMARK 921   NORMALIZED FREE ENERGY PREDICTED BY IDOCK:   -4.03 KCAL/MOL
REMARK 922        TOTAL FREE ENERGY PREDICTED BY IDOCK:   -5.43 KCAL/MOL
REMARK 923 INTER-LIGAND FREE ENERGY PREDICTED BY IDOCK:   -5.00 KCAL/MOL
REMARK 924 INTRA-LIGAND FREE ENERGY PREDICTED BY IDOCK:   -0.43 KCAL/MOL
REMARK 927      BINDING AFFINITY PREDICTED BY RF-SCORE:    0.00 PKD
ROOT
HETATM    1  C   UNL     1      -8.606   5.625  65.210  1.00  0.00    -0.141 C  
HETATM    2  N   UNL     1      -9.474   4.919  66.154  1.00  0.00    -0.150 NA 
HETATM    3  C   UNL     1      -9.281   3.474  66.022  1.00  0.00    -0.165 C  
ENDROOT
BRANCH   2   4
HETATM    4  C   UNL     1      -9.233   5.399  67.532  1.00  0.00    -0.112 C  
BRANCH   4   5
HETATM    5  C   UNL     1     -10.451   6.104  68.154  1.00  0.00    -0.284 C  
BRANCH   5   6
HETATM    6  C   UNL     1     -10.541   7.574  67.809  1.00  0.00    -0.274 C  
BRANCH   6   7
HETATM    7  C   UNL     1     -10.527   8.605  68.681  1.00  0.00    -0.208 A  
HETATM    8  C   UNL     1     -10.309   9.984  68.179  1.00  0.00    -0.228 A  
HETATM    9  C   UNL     1     -11.283  10.601  67.382  1.00  0.00    -0.280 A  
HETATM   10  C   UNL     1     -11.145  11.937  67.007  1.00  0.00    -0.354 A  
HETATM   11  C   UNL     1     -10.028  12.661  67.411  1.00  0.00    -0.204 A  
HETATM   12  C   UNL     1      -9.041  12.049  68.186  1.00  0.00    -0.191 A  
HETATM   13  C   UNL     1      -9.177  10.715  68.597  1.00  0.00    -0.181 A  
HETATM   14  C   UNL     1      -8.097  10.133  69.419  1.00  0.00    -0.163 A  
HETATM   15  C   UNL     1      -8.233   9.270  70.439  1.00  0.00    -0.199 A  
HETATM   16  C   UNL     1      -9.497   8.717  70.963  1.00  0.00    -0.261 A  
HETATM   17  C   UNL     1      -9.597   8.481  72.341  1.00  0.00    -0.356 A  
HETATM   18  C   UNL     1     -10.769   7.955  72.894  1.00  0.00    -0.440 A  
HETATM   19  C   UNL     1     -11.856   7.657  72.080  1.00  0.00    -0.342 A  
HETATM   20  C   UNL     1     -11.769   7.872  70.706  1.00  0.00    -0.230 A  
HETATM   21  C   UNL     1     -10.587   8.376  70.139  1.00  0.00    -0.235 A  
ENDBRANCH   6   7
ENDBRANCH   5   6
ENDBRANCH   4   5
ENDBRANCH   2   4
TORSDOF 4
ENDMDL
MODEL      128
REMARK 921   NORMALIZED FREE ENERGY PREDICTED BY IDOCK:   -3.98 KCAL/MOL
REMARK 922        TOTAL FREE ENERGY PREDICTED BY IDOCK:   -5.36 KCAL/MOL
REMARK 923 INTER-LIGAND FREE ENERGY PREDICTED BY IDOCK:   -4.62 KCAL/MOL
REMARK 924 INTRA-LIGAND FREE ENERGY PREDICTED BY IDOCK:   -0.75 KCAL/MOL
REMARK 927      BINDING AFFINITY PREDICTED BY RF-SCORE:    0.00 PKD
ROOT
HETATM    1  C   UNL     1      -7.520   7.089  64.505  1.00  0.00    -0.099 C  
HETATM    2  N   UNL     1      -7.685   7.761  65.795  1.00  0.00    -0.094 NA 
HETATM    3  C   UNL     1      -6.503   8.572  66.088  1.00  0.00    -0.053 C  
ENDROOT
BRANCH   2   4
HETATM    4  C   UNL     1      -8.933   8.555  65.806  1.00  0.00    -0.182 C  
BRANCH   4   5
HETATM    5  C   UNL     1     -10.010   7.987  66.746  1.00  0.00    -0.344 C  
BRANCH   5   6
HETATM    6  C   UNL     1     -10.896   9.047  67.361  1.00  0.00    -0.116 C  
BRANCH   6   7
HETATM    7  C   UNL     1     -10.581   9.854  68.399  1.00  0.00    -0.258 A  
HETATM    8  C   UNL     1     -10.367  11.301  68.160  1.00  0.00    -0.205 A  
HETATM    9  C   UNL     1     -11.443  12.116  67.783  1.00  0.00    -0.398 A  
HETATM   10  C   UNL     1     -11.279  13.497  67.675  1.00  0.00    -0.304 A  
HETATM   11  C   UNL     1     -10.036  14.072  67.927  1.00  0.00    -0.237 A  
HETATM   12  C   UNL     1      -8.952  13.266  68.282  1.00  0.00    -0.176 A  
HETATM   13  C   UNL     1      -9.106  11.879  68.424  1.00  0.00    -0.167 A  
HETATM   14  C   UNL     1      -7.918  11.089  68.805  1.00  0.00    -0.144 A  
HETATM   15  C   UNL     1      -7.885  10.023  69.621  1.00  0.00    -0.171 A  
HETATM   16  C   UNL     1      -9.032   9.410  70.318  1.00  0.00    -0.277 A  
HETATM   17  C   UNL     1      -8.822   8.872  71.595  1.00  0.00    -0.214 A  
HETATM   18  C   UNL     1      -9.870   8.276  72.302  1.00  0.00    -0.364 A  
HETATM   19  C   UNL     1     -11.143   8.208  71.744  1.00  0.00    -0.329 A  
HETATM   20  C   UNL     1     -11.366   8.724  70.470  1.00  0.00    -0.255 A  
HETATM   21  C   UNL     1     -10.313   9.302  69.743  1.00  0.00    -0.232 A  
ENDBRANCH   6   7
ENDBRANCH   5   6
ENDBRANCH   4   5
ENDBRANCH   2   4
TORSDOF 4
ENDMDL
MODEL      129
REMARK 921   NORMALIZED FREE ENERGY PREDICTED BY IDOCK:   -3.98 KCAL/MOL
REMARK 922        TOTAL FREE ENERGY PREDICTED BY IDOCK:   -5.36 KCAL/MOL
REMARK 923 INTER-LIGAND FREE ENERGY PREDICTED BY IDOCK:   -4.75 KCAL/MOL
REMARK 924 INTRA-LIGAND FREE ENERGY PREDICTED BY IDOCK:   -0.61 KCAL/MOL
REMARK 927      BINDING AFFINITY PREDICTED BY RF-SCORE:    0.00 PKD
ROOT
HETATM    1  C   UNL     1     -12.186  12.017  64.561  1.00  0.00    -0.241 C  
HETATM    2  N   UNL     1     -11.825  12.857  65.703  1.00  0.00    -0.393 NA 
HETATM    3  C   UNL     1     -12.773  13.966  65.823  1.00  0.00    -0.461 C  
ENDROOT
BRANCH   2   4
HETATM    4  C   UNL     1     -11.746  12.044  66.937  1.00  0.00    -0.266 C  
BRANCH   4   5
HETATM    5  C   UNL     1     -10.386  12.145  67.648  1.00  0.00    -0.215 C  
BRANCH   5   6
HETATM    6  C   UNL     1     -10.221  11.157  68.782  1.00  0.00    -0.219 C  
BRANCH   6   7
HETATM    7  C   UNL     1      -9.607   9.956  68.716  1.00  0.00    -0.160 A  
HETATM    8  C   UNL     1      -8.285   9.846  68.055  1.00  0.00    -0.113 A  
HETATM    9  C   UNL     1      -7.160  10.450  68.632  1.00  0.00    -0.076 A  
HETATM   10  C   UNL     1      -5.892  10.251  68.085  1.00  0.00    -0.041 A  
HETATM   11  C   UNL     1      -5.741   9.461  66.949  1.00  0.00    -0.051 A  
HETATM   12  C   UNL     1      -6.858   8.873  66.353  1.00  0.00    -0.075 A  
HETATM   13  C   UNL     1      -8.137   9.038  66.907  1.00  0.00    -0.112 A  
HETATM   14  C   UNL     1      -9.272   8.385  66.226  1.00  0.00    -0.263 A  
HETATM   15  C   UNL     1     -10.340   7.810  66.805  1.00  0.00    -0.348 A  
HETATM   16  C   UNL     1     -10.607   7.705  68.252  1.00  0.00    -0.175 A  
HETATM   17  C   UNL     1     -11.251   6.554  68.726  1.00  0.00    -0.319 A  
HETATM   18  C   UNL     1     -11.534   6.400  70.087  1.00  0.00    -0.484 A  
HETATM   19  C   UNL     1     -11.178   7.393  70.993  1.00  0.00    -0.285 A  
HETATM   20  C   UNL     1     -10.550   8.551  70.538  1.00  0.00    -0.238 A  
HETATM   21  C   UNL     1     -10.285   8.724  69.170  1.00  0.00    -0.215 A  
ENDBRANCH   6   7
ENDBRANCH   5   6
ENDBRANCH   4   5
ENDBRANCH   2   4
TORSDOF 4
ENDMDL
MODEL      130
REMARK 921   NORMALIZED FREE ENERGY PREDICTED BY IDOCK:   -3.97 KCAL/MOL
REMARK 922        TOTAL FREE ENERGY PREDICTED BY IDOCK:   -5.35 KCAL/MOL
REMARK 923 INTER-LIGAND FREE ENERGY PREDICTED BY IDOCK:   -4.93 KCAL/MOL
REMARK 924 INTRA-LIGAND FREE ENERGY PREDICTED BY IDOCK:   -0.43 KCAL/MOL
REMARK 927      BINDING AFFINITY PREDICTED BY RF-SCORE:    0.00 PKD
ROOT
HETATM    1  C   UNL     1     -10.260  14.061  68.319  1.00  0.00    -0.249 C  
HETATM    2  N   UNL     1     -11.455  13.754  67.532  1.00  0.00    -0.312 NA 
HETATM    3  C   UNL     1     -11.708  14.831  66.573  1.00  0.00    -0.271 C  
ENDROOT
BRANCH   2   4
HETATM    4  C   UNL     1     -11.315  12.435  66.876  1.00  0.00    -0.333 C  
BRANCH   4   5
HETATM    5  C   UNL     1     -10.049  11.674  67.303  1.00  0.00    -0.221 C  
BRANCH   5   6
HETATM    6  C   UNL     1     -10.198  10.170  67.244  1.00  0.00    -0.273 C  
BRANCH   6   7
HETATM    7  C   UNL     1      -9.761   9.358  66.257  1.00  0.00    -0.330 A  
HETATM    8  C   UNL     1      -9.585   7.910  66.525  1.00  0.00    -0.281 A  
HETATM    9  C   UNL     1     -10.705   7.102  66.768  1.00  0.00    -0.259 A  
HETATM   10  C   UNL     1     -10.563   5.721  66.900  1.00  0.00    -0.377 A  
HETATM   11  C   UNL     1      -9.302   5.138  66.807  1.00  0.00    -0.134 A  
HETATM   12  C   UNL     1      -8.178   5.937  66.588  1.00  0.00    -0.106 A  
HETATM   13  C   UNL     1      -8.305   7.324  66.423  1.00  0.00    -0.124 A  
HETATM   14  C   UNL     1      -7.075   8.106  66.191  1.00  0.00    -0.062 A  
HETATM   15  C   UNL     1      -6.934   9.170  65.382  1.00  0.00    -0.081 A  
HETATM   16  C   UNL     1      -7.981   9.786  64.545  1.00  0.00    -0.144 A  
HETATM   17  C   UNL     1      -7.610  10.317  63.302  1.00  0.00    -0.124 A  
HETATM   18  C   UNL     1      -8.559  10.917  62.468  1.00  0.00    -0.313 A  
HETATM   19  C   UNL     1      -9.890  10.993  62.862  1.00  0.00    -0.319 A  
HETATM   20  C   UNL     1     -10.274  10.483  64.100  1.00  0.00    -0.287 A  
HETATM   21  C   UNL     1      -9.323   9.902  64.955  1.00  0.00    -0.329 A  
ENDBRANCH   6   7
ENDBRANCH   5   6
ENDBRANCH   4   5
ENDBRANCH   2   4
TORSDOF 4
ENDMDL
MODEL      131
REMARK 921   NORMALIZED FREE ENERGY PREDICTED BY IDOCK:   -3.96 KCAL/MOL
REMARK 922        TOTAL FREE ENERGY PREDICTED BY IDOCK:   -5.34 KCAL/MOL
REMARK 923 INTER-LIGAND FREE ENERGY PREDICTED BY IDOCK:   -4.99 KCAL/MOL
REMARK 924 INTRA-LIGAND FREE ENERGY PREDICTED BY IDOCK:   -0.35 KCAL/MOL
REMARK 927      BINDING AFFINITY PREDICTED BY RF-SCORE:    0.00 PKD
ROOT
HETATM    1  C   UNL     1     -10.674  14.438  67.759  1.00  0.00    -0.248 C  
HETATM    2  N   UNL     1     -11.921  13.731  67.464  1.00  0.00    -0.383 NA 
HETATM    3  C   UNL     1     -12.357  14.040  66.101  1.00  0.00    -0.458 C  
ENDROOT
BRANCH   2   4
HETATM    4  C   UNL     1     -11.755  12.278  67.689  1.00  0.00    -0.334 C  
BRANCH   4   5
HETATM    5  C   UNL     1     -10.582  11.937  68.624  1.00  0.00    -0.259 C  
BRANCH   5   6
HETATM    6  C   UNL     1     -10.749  10.619  69.347  1.00  0.00    -0.281 C  
BRANCH   6   7
HETATM    7  C   UNL     1      -9.887   9.578  69.328  1.00  0.00    -0.184 A  
HETATM    8  C   UNL     1     -10.306   8.292  68.723  1.00  0.00    -0.223 A  
HETATM    9  C   UNL     1     -10.524   8.206  67.340  1.00  0.00    -0.356 A  
HETATM   10  C   UNL     1     -10.800   6.976  66.744  1.00  0.00    -0.228 A  
HETATM   11  C   UNL     1     -10.876   5.826  67.525  1.00  0.00    -0.268 A  
HETATM   12  C   UNL     1     -10.683   5.904  68.905  1.00  0.00    -0.370 A  
HETATM   13  C   UNL     1     -10.376   7.128  69.518  1.00  0.00    -0.224 A  
HETATM   14  C   UNL     1     -10.181   7.136  70.982  1.00  0.00    -0.205 A  
HETATM   15  C   UNL     1      -9.289   7.866  71.674  1.00  0.00    -0.189 A  
HETATM   16  C   UNL     1      -8.308   8.817  71.119  1.00  0.00    -0.219 A  
HETATM   17  C   UNL     1      -7.058   8.921  71.745  1.00  0.00    -0.032 A  
HETATM   18  C   UNL     1      -6.088   9.807  71.266  1.00  0.00    -0.003 A  
HETATM   19  C   UNL     1      -6.353  10.602  70.155  1.00  0.00    -0.139 A  
HETATM   20  C   UNL     1      -7.595  10.521  69.529  1.00  0.00    -0.148 A  
HETATM   21  C   UNL     1      -8.583   9.652  70.019  1.00  0.00    -0.237 A  
ENDBRANCH   6   7
ENDBRANCH   5   6
ENDBRANCH   4   5
ENDBRANCH   2   4
TORSDOF 4
ENDMDL
MODEL      132
REMARK 921   NORMALIZED FREE ENERGY PREDICTED BY IDOCK:   -3.96 KCAL/MOL
REMARK 922        TOTAL FREE ENERGY PREDICTED BY IDOCK:   -5.33 KCAL/MOL
REMARK 923 INTER-LIGAND FREE ENERGY PREDICTED BY IDOCK:   -4.47 KCAL/MOL
REMARK 924 INTRA-LIGAND FREE ENERGY PREDICTED BY IDOCK:   -0.86 KCAL/MOL
REMARK 927      BINDING AFFINITY PREDICTED BY RF-SCORE:    0.00 PKD
ROOT
HETATM    1  C   UNL     1     -11.680   9.881  70.799  1.00  0.00    -0.341 C  
HETATM    2  N   UNL     1     -10.342   9.443  71.202  1.00  0.00    -0.315 NA 
HETATM    3  C   UNL     1     -10.445   8.475  72.296  1.00  0.00    -0.332 C  
ENDROOT
BRANCH   2   4
HETATM    4  C   UNL     1      -9.604   8.906  70.038  1.00  0.00    -0.178 C  
BRANCH   4   5
HETATM    5  C   UNL     1      -8.149   9.396  69.960  1.00  0.00    -0.159 C  
BRANCH   5   6
HETATM    6  C   UNL     1      -7.993  10.718  69.241  1.00  0.00    -0.110 C  
BRANCH   6   7
HETATM    7  C   UNL     1      -8.420  11.009  67.993  1.00  0.00    -0.129 A  
HETATM    8  C   UNL     1      -9.536  11.967  67.806  1.00  0.00    -0.190 A  
HETATM    9  C   UNL     1      -9.357  13.321  68.118  1.00  0.00    -0.220 A  
HETATM   10  C   UNL     1     -10.357  14.250  67.833  1.00  0.00    -0.233 A  
HETATM   11  C   UNL     1     -11.549  13.832  67.249  1.00  0.00    -0.391 A  
HETATM   12  C   UNL     1     -11.747  12.481  66.955  1.00  0.00    -0.437 A  
HETATM   13  C   UNL     1     -10.741  11.537  67.208  1.00  0.00    -0.286 A  
HETATM   14  C   UNL     1     -11.017  10.127  66.869  1.00  0.00    -0.106 A  
HETATM   15  C   UNL     1     -10.150   9.232  66.367  1.00  0.00    -0.337 A  
HETATM   16  C   UNL     1      -8.730   9.466  66.042  1.00  0.00    -0.171 A  
HETATM   17  C   UNL     1      -8.185   8.803  64.934  1.00  0.00    -0.160 A  
HETATM   18  C   UNL     1      -6.844   8.983  64.580  1.00  0.00    -0.081 A  
HETATM   19  C   UNL     1      -6.030   9.829  65.326  1.00  0.00    -0.074 A  
HETATM   20  C   UNL     1      -6.552  10.485  66.438  1.00  0.00    -0.106 A  
HETATM   21  C   UNL     1      -7.890  10.290  66.816  1.00  0.00    -0.114 A  
ENDBRANCH   6   7
ENDBRANCH   5   6
ENDBRANCH   4   5
ENDBRANCH   2   4
TORSDOF 4
ENDMDL
MODEL      133
REMARK 921   NORMALIZED FREE ENERGY PREDICTED BY IDOCK:   -3.94 KCAL/MOL
REMARK 922        TOTAL FREE ENERGY PREDICTED BY IDOCK:   -5.31 KCAL/MOL
REMARK 923 INTER-LIGAND FREE ENERGY PREDICTED BY IDOCK:   -4.84 KCAL/MOL
REMARK 924 INTRA-LIGAND FREE ENERGY PREDICTED BY IDOCK:   -0.48 KCAL/MOL
REMARK 927      BINDING AFFINITY PREDICTED BY RF-SCORE:    0.00 PKD
ROOT
HETATM    1  C   UNL     1     -13.609   9.064  72.343  1.00  0.00    -0.477 C  
HETATM    2  N   UNL     1     -12.146   9.063  72.383  1.00  0.00    -0.286 NA 
HETATM    3  C   UNL     1     -11.657   7.712  72.665  1.00  0.00    -0.317 C  
ENDROOT
BRANCH   2   4
HETATM    4  C   UNL     1     -11.596   9.612  71.124  1.00  0.00    -0.381 C  
BRANCH   4   5
HETATM    5  C   UNL     1     -10.767   8.593  70.325  1.00  0.00    -0.243 C  
BRANCH   5   6
HETATM    6  C   UNL     1      -9.663   9.222  69.503  1.00  0.00    -0.179 C  
BRANCH   6   7
HETATM    7  C   UNL     1      -9.670   9.418  68.167  1.00  0.00    -0.164 A  
HETATM    8  C   UNL     1      -9.190   8.341  67.267  1.00  0.00    -0.165 A  
HETATM    9  C   UNL     1      -9.919   7.149  67.151  1.00  0.00    -0.270 A  
HETATM   10  C   UNL     1      -9.546   6.181  66.219  1.00  0.00    -0.123 A  
HETATM   11  C   UNL     1      -8.433   6.388  65.409  1.00  0.00    -0.126 A  
HETATM   12  C   UNL     1      -7.686   7.561  65.533  1.00  0.00    -0.103 A  
HETATM   13  C   UNL     1      -8.065   8.559  66.444  1.00  0.00    -0.103 A  
HETATM   14  C   UNL     1      -7.231   9.775  66.520  1.00  0.00    -0.094 A  
HETATM   15  C   UNL     1      -7.657  11.036  66.709  1.00  0.00    -0.139 A  
HETATM   16  C   UNL     1      -9.054  11.478  66.880  1.00  0.00    -0.181 A  
HETATM   17  C   UNL     1      -9.426  12.720  66.347  1.00  0.00    -0.229 A  
HETATM   18  C   UNL     1     -10.735  13.193  66.481  1.00  0.00    -0.288 A  
HETATM   19  C   UNL     1     -11.690  12.433  67.147  1.00  0.00    -0.415 A  
HETATM   20  C   UNL     1     -11.335  11.203  67.695  1.00  0.00    -0.356 A  
HETATM   21  C   UNL     1     -10.016  10.732  67.587  1.00  0.00    -0.199 A  
ENDBRANCH   6   7
ENDBRANCH   5   6
ENDBRANCH   4   5
ENDBRANCH   2   4
TORSDOF 4
ENDMDL
MODEL      134
REMARK 921   NORMALIZED FREE ENERGY PREDICTED BY IDOCK:   -3.92 KCAL/MOL
REMARK 922        TOTAL FREE ENERGY PREDICTED BY IDOCK:   -5.29 KCAL/MOL
REMARK 923 INTER-LIGAND FREE ENERGY PREDICTED BY IDOCK:   -4.42 KCAL/MOL
REMARK 924 INTRA-LIGAND FREE ENERGY PREDICTED BY IDOCK:   -0.86 KCAL/MOL
REMARK 927      BINDING AFFINITY PREDICTED BY RF-SCORE:    0.00 PKD
ROOT
HETATM    1  C   UNL     1     -12.857   9.858  71.085  1.00  0.00    -0.368 C  
HETATM    2  N   UNL     1     -11.519   9.657  71.643  1.00  0.00    -0.367 NA 
HETATM    3  C   UNL     1     -11.498   8.439  72.454  1.00  0.00    -0.380 C  
ENDROOT
BRANCH   2   4
HETATM    4  C   UNL     1     -10.509   9.634  70.562  1.00  0.00    -0.303 C  
BRANCH   4   5
HETATM    5  C   UNL     1      -9.087   9.326  71.063  1.00  0.00    -0.253 C  
BRANCH   5   6
HETATM    6  C   UNL     1      -8.250   8.552  70.068  1.00  0.00    -0.121 C  
BRANCH   6   7
HETATM    7  C   UNL     1      -8.449   7.275  69.674  1.00  0.00    -0.133 A  
HETATM    8  C   UNL     1      -8.421   6.944  68.229  1.00  0.00    -0.125 A  
HETATM    9  C   UNL     1      -7.221   7.037  67.511  1.00  0.00    -0.090 A  
HETATM   10  C   UNL     1      -7.156   6.612  66.184  1.00  0.00    -0.063 A  
HETATM   11  C   UNL     1      -8.293   6.108  65.559  1.00  0.00    -0.147 A  
HETATM   12  C   UNL     1      -9.500   6.033  66.258  1.00  0.00    -0.153 A  
HETATM   13  C   UNL     1      -9.576   6.428  67.602  1.00  0.00    -0.126 A  
HETATM   14  C   UNL     1     -10.883   6.318  68.280  1.00  0.00    -0.397 A  
HETATM   15  C   UNL     1     -11.103   5.960  69.556  1.00  0.00    -0.403 A  
HETATM   16  C   UNL     1     -10.084   5.595  70.558  1.00  0.00    -0.280 A  
HETATM   17  C   UNL     1     -10.402   4.604  71.497  1.00  0.00    -0.174 A  
HETATM   18  C   UNL     1      -9.477   4.219  72.473  1.00  0.00    -0.172 A  
HETATM   19  C   UNL     1      -8.222   4.818  72.524  1.00  0.00    -0.115 A  
HETATM   20  C   UNL     1      -7.895   5.815  71.608  1.00  0.00    -0.109 A  
HETATM   21  C   UNL     1      -8.827   6.225  70.641  1.00  0.00    -0.144 A  
ENDBRANCH   6   7
ENDBRANCH   5   6
ENDBRANCH   4   5
ENDBRANCH   2   4
TORSDOF 4
ENDMDL
MODEL      135
REMARK 921   NORMALIZED FREE ENERGY PREDICTED BY IDOCK:   -3.91 KCAL/MOL
REMARK 922        TOTAL FREE ENERGY PREDICTED BY IDOCK:   -5.28 KCAL/MOL
REMARK 923 INTER-LIGAND FREE ENERGY PREDICTED BY IDOCK:   -4.62 KCAL/MOL
REMARK 924 INTRA-LIGAND FREE ENERGY PREDICTED BY IDOCK:   -0.66 KCAL/MOL
REMARK 927      BINDING AFFINITY PREDICTED BY RF-SCORE:    0.00 PKD
ROOT
HETATM    1  C   UNL     1      -9.519  10.389  63.355  1.00  0.00    -0.315 C  
HETATM    2  N   UNL     1      -9.602  10.655  64.792  1.00  0.00    -0.253 NA 
HETATM    3  C   UNL     1     -10.796  11.450  65.082  1.00  0.00    -0.238 C  
ENDROOT
BRANCH   2   4
HETATM    4  C   UNL     1      -9.568   9.387  65.553  1.00  0.00    -0.258 C  
BRANCH   4   5
HETATM    5  C   UNL     1     -10.406   9.427  66.842  1.00  0.00    -0.308 C  
BRANCH   5   6
HETATM    6  C   UNL     1     -10.593   8.070  67.484  1.00  0.00    -0.302 C  
BRANCH   6   7
HETATM    7  C   UNL     1      -9.895   7.574  68.529  1.00  0.00    -0.170 A  
HETATM    8  C   UNL     1     -10.497   7.590  69.884  1.00  0.00    -0.232 A  
HETATM    9  C   UNL     1     -11.604   6.779  70.169  1.00  0.00    -0.397 A  
HETATM   10  C   UNL     1     -12.102   6.695  71.469  1.00  0.00    -0.406 A  
HETATM   11  C   UNL     1     -11.508   7.431  72.490  1.00  0.00    -0.346 A  
HETATM   12  C   UNL     1     -10.419   8.259  72.213  1.00  0.00    -0.392 A  
HETATM   13  C   UNL     1      -9.887   8.334  70.917  1.00  0.00    -0.215 A  
HETATM   14  C   UNL     1      -8.732   9.227  70.697  1.00  0.00    -0.282 A  
HETATM   15  C   UNL     1      -7.682   9.006  69.887  1.00  0.00    -0.076 A  
HETATM   16  C   UNL     1      -7.454   7.818  69.044  1.00  0.00    -0.095 A  
HETATM   17  C   UNL     1      -6.137   7.371  68.868  1.00  0.00    -0.030 A  
HETATM   18  C   UNL     1      -5.860   6.252  68.077  1.00  0.00    -0.013 A  
HETATM   19  C   UNL     1      -6.893   5.564  67.451  1.00  0.00    -0.060 A  
HETATM   20  C   UNL     1      -8.206   6.002  67.602  1.00  0.00    -0.109 A  
HETATM   21  C   UNL     1      -8.491   7.139  68.375  1.00  0.00    -0.124 A  
ENDBRANCH   6   7
ENDBRANCH   5   6
ENDBRANCH   4   5
ENDBRANCH   2   4
TORSDOF 4
ENDMDL
MODEL      136
REMARK 921   NORMALIZED FREE ENERGY PREDICTED BY IDOCK:   -3.90 KCAL/MOL
REMARK 922        TOTAL FREE ENERGY PREDICTED BY IDOCK:   -5.27 KCAL/MOL
REMARK 923 INTER-LIGAND FREE ENERGY PREDICTED BY IDOCK:   -4.65 KCAL/MOL
REMARK 924 INTRA-LIGAND FREE ENERGY PREDICTED BY IDOCK:   -0.62 KCAL/MOL
REMARK 927      BINDING AFFINITY PREDICTED BY RF-SCORE:    0.00 PKD
ROOT
HETATM    1  C   UNL     1      -5.200  10.959  71.110  1.00  0.00    -0.093 C  
HETATM    2  N   UNL     1      -6.387  11.279  70.315  1.00  0.00    -0.237 NA 
HETATM    3  C   UNL     1      -6.055  12.292  69.312  1.00  0.00    -0.094 C  
ENDROOT
BRANCH   2   4
HETATM    4  C   UNL     1      -6.950  10.050  69.713  1.00  0.00    -0.107 C  
BRANCH   4   5
HETATM    5  C   UNL     1      -8.375   9.732  70.196  1.00  0.00    -0.201 C  
BRANCH   5   6
HETATM    6  C   UNL     1      -9.453  10.456  69.420  1.00  0.00    -0.204 C  
BRANCH   6   7
HETATM    7  C   UNL     1      -9.964  10.090  68.224  1.00  0.00    -0.173 A  
HETATM    8  C   UNL     1      -9.967   8.658  67.838  1.00  0.00    -0.232 A  
HETATM    9  C   UNL     1     -10.781   7.748  68.526  1.00  0.00    -0.080 A  
HETATM   10  C   UNL     1     -10.884   6.426  68.095  1.00  0.00    -0.386 A  
HETATM   11  C   UNL     1     -10.163   5.998  66.984  1.00  0.00    -0.253 A  
HETATM   12  C   UNL     1      -9.331   6.891  66.304  1.00  0.00    -0.144 A  
HETATM   13  C   UNL     1      -9.238   8.232  66.707  1.00  0.00    -0.212 A  
HETATM   14  C   UNL     1      -8.342   9.120  65.941  1.00  0.00    -0.127 A  
HETATM   15  C   UNL     1      -8.551  10.413  65.637  1.00  0.00    -0.175 A  
HETATM   16  C   UNL     1      -9.728  11.224  66.002  1.00  0.00    -0.253 A  
HETATM   17  C   UNL     1     -10.172  12.195  65.094  1.00  0.00    -0.308 A  
HETATM   18  C   UNL     1     -11.280  12.997  65.387  1.00  0.00    -0.317 A  
HETATM   19  C   UNL     1     -11.959  12.840  66.590  1.00  0.00    -0.411 A  
HETATM   20  C   UNL     1     -11.523  11.890  67.511  1.00  0.00    -0.396 A  
HETATM   21  C   UNL     1     -10.397  11.098  67.235  1.00  0.00    -0.243 A  
ENDBRANCH   6   7
ENDBRANCH   5   6
ENDBRANCH   4   5
ENDBRANCH   2   4
TORSDOF 4
ENDMDL
MODEL      137
REMARK 921   NORMALIZED FREE ENERGY PREDICTED BY IDOCK:   -3.87 KCAL/MOL
REMARK 922        TOTAL FREE ENERGY PREDICTED BY IDOCK:   -5.23 KCAL/MOL
REMARK 923 INTER-LIGAND FREE ENERGY PREDICTED BY IDOCK:   -4.38 KCAL/MOL
REMARK 924 INTRA-LIGAND FREE ENERGY PREDICTED BY IDOCK:   -0.85 KCAL/MOL
REMARK 927      BINDING AFFINITY PREDICTED BY RF-SCORE:    0.00 PKD
ROOT
HETATM    1  C   UNL     1     -12.407  12.600  65.296  1.00  0.00    -0.466 C  
HETATM    2  N   UNL     1     -11.235  12.182  66.067  1.00  0.00    -0.322 NA 
HETATM    3  C   UNL     1     -10.056  12.925  65.620  1.00  0.00    -0.272 C  
ENDROOT
BRANCH   2   4
HETATM    4  C   UNL     1     -11.489  12.341  67.516  1.00  0.00    -0.347 C  
BRANCH   4   5
HETATM    5  C   UNL     1     -11.032  11.133  68.351  1.00  0.00    -0.277 C  
BRANCH   5   6
HETATM    6  C   UNL     1     -10.967   9.842  67.564  1.00  0.00    -0.239 C  
BRANCH   6   7
HETATM    7  C   UNL     1      -9.891   9.037  67.428  1.00  0.00    -0.244 A  
HETATM    8  C   UNL     1      -9.786   7.811  68.255  1.00  0.00    -0.185 A  
HETATM    9  C   UNL     1     -10.676   6.748  68.047  1.00  0.00    -0.302 A  
HETATM   10  C   UNL     1     -10.511   5.545  68.733  1.00  0.00    -0.261 A  
HETATM   11  C   UNL     1      -9.468   5.400  69.643  1.00  0.00    -0.194 A  
HETATM   12  C   UNL     1      -8.590   6.461  69.874  1.00  0.00    -0.138 A  
HETATM   13  C   UNL     1      -8.723   7.668  69.172  1.00  0.00    -0.139 A  
HETATM   14  C   UNL     1      -7.757   8.746  69.464  1.00  0.00    -0.089 A  
HETATM   15  C   UNL     1      -7.223   9.612  68.587  1.00  0.00    -0.073 A  
HETATM   16  C   UNL     1      -7.484   9.671  67.136  1.00  0.00    -0.088 A  
HETATM   17  C   UNL     1      -6.430  10.034  66.287  1.00  0.00    -0.081 A  
HETATM   18  C   UNL     1      -6.619  10.111  64.903  1.00  0.00    -0.127 A  
HETATM   19  C   UNL     1      -7.863   9.825  64.349  1.00  0.00    -0.137 A  
HETATM   20  C   UNL     1      -8.925   9.477  65.180  1.00  0.00    -0.253 A  
HETATM   21  C   UNL     1      -8.750   9.422  66.572  1.00  0.00    -0.148 A  
ENDBRANCH   6   7
ENDBRANCH   5   6
ENDBRANCH   4   5
ENDBRANCH   2   4
TORSDOF 4
ENDMDL
MODEL      138
REMARK 921   NORMALIZED FREE ENERGY PREDICTED BY IDOCK:   -3.86 KCAL/MOL
REMARK 922        TOTAL FREE ENERGY PREDICTED BY IDOCK:   -5.21 KCAL/MOL
REMARK 923 INTER-LIGAND FREE ENERGY PREDICTED BY IDOCK:   -4.55 KCAL/MOL
REMARK 924 INTRA-LIGAND FREE ENERGY PREDICTED BY IDOCK:   -0.67 KCAL/MOL
REMARK 927      BINDING AFFINITY PREDICTED BY RF-SCORE:    0.00 PKD
ROOT
HETATM    1  C   UNL     1     -11.663  12.102  63.605  1.00  0.00    -0.498 C  
HETATM    2  N   UNL     1     -11.029  12.251  64.917  1.00  0.00    -0.293 NA 
HETATM    3  C   UNL     1     -11.986  12.816  65.869  1.00  0.00    -0.449 C  
ENDROOT
BRANCH   2   4
HETATM    4  C   UNL     1     -10.477  10.956  65.371  1.00  0.00    -0.223 C  
BRANCH   4   5
HETATM    5  C   UNL     1     -10.660  10.710  66.878  1.00  0.00    -0.311 C  
BRANCH   5   6
HETATM    6  C   UNL     1     -10.863   9.253  67.233  1.00  0.00    -0.140 C  
BRANCH   6   7
HETATM    7  C   UNL     1      -9.900   8.366  67.565  1.00  0.00    -0.235 A  
HETATM    8  C   UNL     1      -8.923   8.710  68.626  1.00  0.00    -0.142 A  
HETATM    9  C   UNL     1      -9.347   8.830  69.956  1.00  0.00    -0.175 A  
HETATM   10  C   UNL     1      -8.419   9.033  70.978  1.00  0.00    -0.254 A  
HETATM   11  C   UNL     1      -7.064   9.134  70.676  1.00  0.00    -0.099 A  
HETATM   12  C   UNL     1      -6.633   9.038  69.351  1.00  0.00    -0.044 A  
HETATM   13  C   UNL     1      -7.550   8.805  68.315  1.00  0.00    -0.096 A  
HETATM   14  C   UNL     1      -7.024   8.712  66.938  1.00  0.00    -0.077 A  
HETATM   15  C   UNL     1      -7.449   7.889  65.965  1.00  0.00    -0.078 A  
HETATM   16  C   UNL     1      -8.535   6.896  66.062  1.00  0.00    -0.140 A  
HETATM   17  C   UNL     1      -8.402   5.695  65.352  1.00  0.00    -0.144 A  
HETATM   18  C   UNL     1      -9.401   4.717  65.403  1.00  0.00    -0.161 A  
HETATM   19  C   UNL     1     -10.546   4.925  66.166  1.00  0.00    -0.322 A  
HETATM   20  C   UNL     1     -10.701   6.118  66.867  1.00  0.00    -0.413 A  
HETATM   21  C   UNL     1      -9.715   7.115  66.800  1.00  0.00    -0.252 A  
ENDBRANCH   6   7
ENDBRANCH   5   6
ENDBRANCH   4   5
ENDBRANCH   2   4
TORSDOF 4
ENDMDL
MODEL      139
REMARK 921   NORMALIZED FREE ENERGY PREDICTED BY IDOCK:   -3.85 KCAL/MOL
REMARK 922        TOTAL FREE ENERGY PREDICTED BY IDOCK:   -5.20 KCAL/MOL
REMARK 923 INTER-LIGAND FREE ENERGY PREDICTED BY IDOCK:   -4.77 KCAL/MOL
REMARK 924 INTRA-LIGAND FREE ENERGY PREDICTED BY IDOCK:   -0.42 KCAL/MOL
REMARK 927      BINDING AFFINITY PREDICTED BY RF-SCORE:    0.00 PKD
ROOT
HETATM    1  C   UNL     1     -10.225   3.664  64.671  1.00  0.00    -0.140 C  
HETATM    2  N   UNL     1      -9.647   3.399  65.989  1.00  0.00    -0.109 NA 
HETATM    3  C   UNL     1      -8.652   2.330  65.889  1.00  0.00    -0.111 C  
ENDROOT
BRANCH   2   4
HETATM    4  C   UNL     1      -9.086   4.642  66.564  1.00  0.00    -0.123 C  
BRANCH   4   5
HETATM    5  C   UNL     1      -9.483   4.867  68.033  1.00  0.00    -0.173 C  
BRANCH   5   6
HETATM    6  C   UNL     1      -8.943   6.154  68.616  1.00  0.00    -0.126 C  
BRANCH   6   7
HETATM    7  C   UNL     1      -9.640   7.290  68.837  1.00  0.00    -0.143 A  
HETATM    8  C   UNL     1      -9.453   8.451  67.933  1.00  0.00    -0.164 A  
HETATM    9  C   UNL     1      -9.887   8.379  66.602  1.00  0.00    -0.343 A  
HETATM   10  C   UNL     1      -9.827   9.503  65.779  1.00  0.00    -0.363 A  
HETATM   11  C   UNL     1      -9.319  10.701  66.273  1.00  0.00    -0.199 A  
HETATM   12  C   UNL     1      -8.863  10.777  67.590  1.00  0.00    -0.132 A  
HETATM   13  C   UNL     1      -8.943   9.664  68.441  1.00  0.00    -0.123 A  
HETATM   14  C   UNL     1      -8.445   9.817  69.823  1.00  0.00    -0.206 A  
HETATM   15  C   UNL     1      -8.970   9.275  70.935  1.00  0.00    -0.273 A  
HETATM   16  C   UNL     1     -10.163   8.411  71.017  1.00  0.00    -0.245 A  
HETATM   17  C   UNL     1     -10.991   8.527  72.142  1.00  0.00    -0.427 A  
HETATM   18  C   UNL     1     -12.133   7.731  72.275  1.00  0.00    -0.332 A  
HETATM   19  C   UNL     1     -12.465   6.810  71.288  1.00  0.00    -0.365 A  
HETATM   20  C   UNL     1     -11.646   6.672  70.169  1.00  0.00    -0.446 A  
HETATM   21  C   UNL     1     -10.483   7.448  70.040  1.00  0.00    -0.233 A  
ENDBRANCH   6   7
ENDBRANCH   5   6
ENDBRANCH   4   5
ENDBRANCH   2   4
TORSDOF 4
ENDMDL
MODEL      140
REMARK 921   NORMALIZED FREE ENERGY PREDICTED BY IDOCK:   -3.82 KCAL/MOL
REMARK 922        TOTAL FREE ENERGY PREDICTED BY IDOCK:   -5.16 KCAL/MOL
REMARK 923 INTER-LIGAND FREE ENERGY PREDICTED BY IDOCK:   -4.43 KCAL/MOL
REMARK 924 INTRA-LIGAND FREE ENERGY PREDICTED BY IDOCK:   -0.73 KCAL/MOL
REMARK 927      BINDING AFFINITY PREDICTED BY RF-SCORE:    0.00 PKD
ROOT
HETATM    1  C   UNL     1     -10.423   7.071  67.052  1.00  0.00    -0.316 C  
HETATM    2  N   UNL     1      -9.459   5.971  67.013  1.00  0.00    -0.123 NA 
HETATM    3  C   UNL     1      -8.605   6.100  65.831  1.00  0.00    -0.147 C  
ENDROOT
BRANCH   2   4
HETATM    4  C   UNL     1      -8.681   5.923  68.271  1.00  0.00    -0.112 C  
BRANCH   4   5
HETATM    5  C   UNL     1      -8.894   4.626  69.069  1.00  0.00    -0.122 C  
BRANCH   5   6
HETATM    6  C   UNL     1     -10.074   4.683  70.014  1.00  0.00    -0.267 C  
BRANCH   6   7
HETATM    7  C   UNL     1     -10.111   5.298  71.216  1.00  0.00    -0.278 A  
HETATM    8  C   UNL     1     -10.839   6.583  71.358  1.00  0.00    -0.289 A  
HETATM    9  C   UNL     1     -12.235   6.614  71.238  1.00  0.00    -0.369 A  
HETATM   10  C   UNL     1     -12.939   7.791  71.490  1.00  0.00    -0.357 A  
HETATM   11  C   UNL     1     -12.254   8.949  71.847  1.00  0.00    -0.445 A  
HETATM   12  C   UNL     1     -10.861   8.934  71.947  1.00  0.00    -0.433 A  
HETATM   13  C   UNL     1     -10.139   7.752  71.726  1.00  0.00    -0.223 A  
HETATM   14  C   UNL     1      -8.669   7.808  71.852  1.00  0.00    -0.150 A  
HETATM   15  C   UNL     1      -7.865   6.859  72.360  1.00  0.00    -0.096 A  
HETATM   16  C   UNL     1      -8.278   5.553  72.906  1.00  0.00    -0.109 A  
HETATM   17  C   UNL     1      -7.562   5.031  73.992  1.00  0.00    -0.094 A  
HETATM   18  C   UNL     1      -7.906   3.795  74.549  1.00  0.00    -0.077 A  
HETATM   19  C   UNL     1      -8.969   3.064  74.030  1.00  0.00    -0.083 A  
HETATM   20  C   UNL     1      -9.683   3.561  72.943  1.00  0.00    -0.188 A  
HETATM   21  C   UNL     1      -9.329   4.789  72.361  1.00  0.00    -0.157 A  
ENDBRANCH   6   7
ENDBRANCH   5   6
ENDBRANCH   4   5
ENDBRANCH   2   4
TORSDOF 4
ENDMDL
MODEL      141
REMARK 921   NORMALIZED FREE ENERGY PREDICTED BY IDOCK:   -3.80 KCAL/MOL
REMARK 922        TOTAL FREE ENERGY PREDICTED BY IDOCK:   -5.14 KCAL/MOL
REMARK 923 INTER-LIGAND FREE ENERGY PREDICTED BY IDOCK:   -4.47 KCAL/MOL
REMARK 924 INTRA-LIGAND FREE ENERGY PREDICTED BY IDOCK:   -0.67 KCAL/MOL
REMARK 927      BINDING AFFINITY PREDICTED BY RF-SCORE:    0.00 PKD
ROOT
HETATM    1  C   UNL     1      -7.957   7.915  66.435  1.00  0.00    -0.102 C  
HETATM    2  N   UNL     1      -9.281   7.303  66.309  1.00  0.00    -0.158 NA 
HETATM    3  C   UNL     1      -9.232   5.914  66.767  1.00  0.00    -0.133 C  
ENDROOT
BRANCH   2   4
HETATM    4  C   UNL     1     -10.290   8.104  67.037  1.00  0.00    -0.333 C  
BRANCH   4   5
HETATM    5  C   UNL     1     -10.363   9.566  66.565  1.00  0.00    -0.263 C  
BRANCH   5   6
HETATM    6  C   UNL     1     -10.910  10.513  67.611  1.00  0.00    -0.355 C  
BRANCH   6   7
HETATM    7  C   UNL     1     -10.190  11.335  68.405  1.00  0.00    -0.205 A  
HETATM    8  C   UNL     1     -10.620  12.743  68.582  1.00  0.00    -0.256 A  
HETATM    9  C   UNL     1     -11.808  13.032  69.267  1.00  0.00    -0.370 A  
HETATM   10  C   UNL     1     -12.159  14.353  69.544  1.00  0.00    -0.366 A  
HETATM   11  C   UNL     1     -11.335  15.395  69.126  1.00  0.00    -0.323 A  
HETATM   12  C   UNL     1     -10.161  15.118  68.423  1.00  0.00    -0.221 A  
HETATM   13  C   UNL     1      -9.777  13.794  68.161  1.00  0.00    -0.227 A  
HETATM   14  C   UNL     1      -8.522  13.575  67.415  1.00  0.00    -0.203 A  
HETATM   15  C   UNL     1      -7.625  12.594  67.614  1.00  0.00    -0.152 A  
HETATM   16  C   UNL     1      -7.700  11.522  68.624  1.00  0.00    -0.139 A  
HETATM   17  C   UNL     1      -6.507  11.076  69.208  1.00  0.00    -0.079 A  
HETATM   18  C   UNL     1      -6.516  10.060  70.169  1.00  0.00    -0.107 A  
HETATM   19  C   UNL     1      -7.716   9.476  70.560  1.00  0.00    -0.177 A  
HETATM   20  C   UNL     1      -8.910   9.897  69.979  1.00  0.00    -0.194 A  
HETATM   21  C   UNL     1      -8.907  10.899  68.995  1.00  0.00    -0.105 A  
ENDBRANCH   6   7
ENDBRANCH   5   6
ENDBRANCH   4   5
ENDBRANCH   2   4
TORSDOF 4
ENDMDL
MODEL      142
REMARK 921   NORMALIZED FREE ENERGY PREDICTED BY IDOCK:   -3.79 KCAL/MOL
REMARK 922        TOTAL FREE ENERGY PREDICTED BY IDOCK:   -5.13 KCAL/MOL
REMARK 923 INTER-LIGAND FREE ENERGY PREDICTED BY IDOCK:   -4.51 KCAL/MOL
REMARK 924 INTRA-LIGAND FREE ENERGY PREDICTED BY IDOCK:   -0.62 KCAL/MOL
REMARK 927      BINDING AFFINITY PREDICTED BY RF-SCORE:    0.00 PKD
ROOT
HETATM    1  C   UNL     1      -8.585  17.478  68.885  1.00  0.00    -0.133 C  
HETATM    2  N   UNL     1      -9.298  16.207  69.025  1.00  0.00    -0.237 NA 
HETATM    3  C   UNL     1     -10.737  16.454  69.128  1.00  0.00    -0.317 C  
ENDROOT
BRANCH   2   4
HETATM    4  C   UNL     1      -8.957  15.301  67.907  1.00  0.00    -0.170 C  
BRANCH   4   5
HETATM    5  C   UNL     1      -8.619  13.871  68.363  1.00  0.00    -0.169 C  
BRANCH   5   6
HETATM    6  C   UNL     1      -8.330  12.924  67.219  1.00  0.00    -0.185 C  
BRANCH   6   7
HETATM    7  C   UNL     1      -9.164  11.981  66.728  1.00  0.00    -0.201 A  
HETATM    8  C   UNL     1     -10.246  12.377  65.795  1.00  0.00    -0.283 A  
HETATM    9  C   UNL     1      -9.930  12.843  64.511  1.00  0.00    -0.160 A  
HETATM   10  C   UNL     1     -10.939  13.103  63.585  1.00  0.00    -0.106 A  
HETATM   11  C   UNL     1     -12.272  12.914  63.938  1.00  0.00    -0.525 A  
HETATM   12  C   UNL     1     -12.600  12.471  65.221  1.00  0.00    -0.259 A  
HETATM   13  C   UNL     1     -11.596  12.177  66.156  1.00  0.00    -0.418 A  
HETATM   14  C   UNL     1     -12.014  11.710  67.493  1.00  0.00    -0.044 A  
HETATM   15  C   UNL     1     -11.407  10.781  68.251  1.00  0.00    -0.376 A  
HETATM   16  C   UNL     1     -10.189  10.023  67.909  1.00  0.00    -0.228 A  
HETATM   17  C   UNL     1     -10.091   8.694  68.343  1.00  0.00    -0.217 A  
HETATM   18  C   UNL     1      -8.959   7.927  68.052  1.00  0.00    -0.127 A  
HETATM   19  C   UNL     1      -7.910   8.476  67.322  1.00  0.00    -0.098 A  
HETATM   20  C   UNL     1      -7.984   9.799  66.895  1.00  0.00    -0.105 A  
HETATM   21  C   UNL     1      -9.106  10.584  67.205  1.00  0.00    -0.154 A  
ENDBRANCH   6   7
ENDBRANCH   5   6
ENDBRANCH   4   5
ENDBRANCH   2   4
TORSDOF 4
ENDMDL
MODEL      143
REMARK 921   NORMALIZED FREE ENERGY PREDICTED BY IDOCK:   -3.79 KCAL/MOL
REMARK 922        TOTAL FREE ENERGY PREDICTED BY IDOCK:   -5.12 KCAL/MOL
REMARK 923 INTER-LIGAND FREE ENERGY PREDICTED BY IDOCK:   -4.35 KCAL/MOL
REMARK 924 INTRA-LIGAND FREE ENERGY PREDICTED BY IDOCK:   -0.78 KCAL/MOL
REMARK 927      BINDING AFFINITY PREDICTED BY RF-SCORE:    0.00 PKD
ROOT
HETATM    1  C   UNL     1      -7.234   8.700  66.245  1.00  0.00    -0.079 C  
HETATM    2  N   UNL     1      -6.932   9.822  67.136  1.00  0.00    -0.084 NA 
HETATM    3  C   UNL     1      -6.461  10.965  66.352  1.00  0.00    -0.130 C  
ENDROOT
BRANCH   2   4
HETATM    4  C   UNL     1      -8.111  10.152  67.966  1.00  0.00    -0.112 C  
BRANCH   4   5
HETATM    5  C   UNL     1      -9.444  10.022  67.210  1.00  0.00    -0.179 C  
BRANCH   5   6
HETATM    6  C   UNL     1     -10.516   9.298  67.994  1.00  0.00    -0.275 C  
BRANCH   6   7
HETATM    7  C   UNL     1     -10.372   8.135  68.666  1.00  0.00    -0.224 A  
HETATM    8  C   UNL     1     -10.447   8.133  70.147  1.00  0.00    -0.225 A  
HETATM    9  C   UNL     1     -11.661   8.415  70.788  1.00  0.00    -0.252 A  
HETATM   10  C   UNL     1     -11.773   8.297  72.173  1.00  0.00    -0.429 A  
HETATM   11  C   UNL     1     -10.670   7.911  72.929  1.00  0.00    -0.440 A  
HETATM   12  C   UNL     1      -9.449   7.649  72.303  1.00  0.00    -0.209 A  
HETATM   13  C   UNL     1      -9.327   7.735  70.908  1.00  0.00    -0.157 A  
HETATM   14  C   UNL     1      -8.008   7.441  70.313  1.00  0.00    -0.107 A  
HETATM   15  C   UNL     1      -7.768   6.803  69.155  1.00  0.00    -0.106 A  
HETATM   16  C   UNL     1      -8.774   6.255  68.226  1.00  0.00    -0.115 A  
HETATM   17  C   UNL     1      -8.468   5.072  67.539  1.00  0.00    -0.105 A  
HETATM   18  C   UNL     1      -9.381   4.508  66.643  1.00  0.00    -0.156 A  
HETATM   19  C   UNL     1     -10.612   5.116  66.421  1.00  0.00    -0.336 A  
HETATM   20  C   UNL     1     -10.927   6.299  67.084  1.00  0.00    -0.453 A  
HETATM   21  C   UNL     1     -10.006   6.886  67.966  1.00  0.00    -0.175 A  
ENDBRANCH   6   7
ENDBRANCH   5   6
ENDBRANCH   4   5
ENDBRANCH   2   4
TORSDOF 4
ENDMDL
MODEL      144
REMARK 921   NORMALIZED FREE ENERGY PREDICTED BY IDOCK:   -3.79 KCAL/MOL
REMARK 922        TOTAL FREE ENERGY PREDICTED BY IDOCK:   -5.12 KCAL/MOL
REMARK 923 INTER-LIGAND FREE ENERGY PREDICTED BY IDOCK:   -4.49 KCAL/MOL
REMARK 924 INTRA-LIGAND FREE ENERGY PREDICTED BY IDOCK:   -0.63 KCAL/MOL
REMARK 927      BINDING AFFINITY PREDICTED BY RF-SCORE:    0.00 PKD
ROOT
HETATM    1  C   UNL     1      -9.509   5.819  69.683  1.00  0.00    -0.140 C  
HETATM    2  N   UNL     1     -10.705   6.649  69.532  1.00  0.00    -0.238 NA 
HETATM    3  C   UNL     1     -10.890   7.477  70.725  1.00  0.00    -0.242 C  
ENDROOT
BRANCH   2   4
HETATM    4  C   UNL     1     -10.619   7.454  68.293  1.00  0.00    -0.157 C  
BRANCH   4   5
HETATM    5  C   UNL     1      -9.951   8.823  68.501  1.00  0.00    -0.200 C  
BRANCH   5   6
HETATM    6  C   UNL     1     -10.686   9.963  67.831  1.00  0.00    -0.316 C  
BRANCH   6   7
HETATM    7  C   UNL     1     -10.147  10.903  67.024  1.00  0.00    -0.244 A  
HETATM    8  C   UNL     1      -9.122  10.508  66.027  1.00  0.00    -0.191 A  
HETATM    9  C   UNL     1      -9.479   9.700  64.938  1.00  0.00    -0.288 A  
HETATM   10  C   UNL     1      -8.555   9.424  63.931  1.00  0.00    -0.225 A  
HETATM   11  C   UNL     1      -7.264   9.939  64.011  1.00  0.00    -0.133 A  
HETATM   12  C   UNL     1      -6.892  10.727  65.102  1.00  0.00     0.164 A  
HETATM   13  C   UNL     1      -7.817  11.039  66.110  1.00  0.00    -0.117 A  
HETATM   14  C   UNL     1      -7.356  11.880  67.232  1.00  0.00    -0.146 A  
HETATM   15  C   UNL     1      -8.059  12.831  67.871  1.00  0.00    -0.159 A  
HETATM   16  C   UNL     1      -9.447  13.242  67.587  1.00  0.00    -0.211 A  
HETATM   17  C   UNL     1      -9.784  14.593  67.747  1.00  0.00    -0.215 A  
HETATM   18  C   UNL     1     -11.085  15.042  67.495  1.00  0.00    -0.317 A  
HETATM   19  C   UNL     1     -12.066  14.147  67.080  1.00  0.00    -0.432 A  
HETATM   20  C   UNL     1     -11.752  12.799  66.929  1.00  0.00    -0.447 A  
HETATM   21  C   UNL     1     -10.455  12.336  67.204  1.00  0.00    -0.238 A  
ENDBRANCH   6   7
ENDBRANCH   5   6
ENDBRANCH   4   5
ENDBRANCH   2   4
TORSDOF 4
ENDMDL
MODEL      145
REMARK 921   NORMALIZED FREE ENERGY PREDICTED BY IDOCK:   -3.78 KCAL/MOL
REMARK 922        TOTAL FREE ENERGY PREDICTED BY IDOCK:   -5.12 KCAL/MOL
REMARK 923 INTER-LIGAND FREE ENERGY PREDICTED BY IDOCK:   -4.58 KCAL/MOL
REMARK 924 INTRA-LIGAND FREE ENERGY PREDICTED BY IDOCK:   -0.54 KCAL/MOL
REMARK 927      BINDING AFFINITY PREDICTED BY RF-SCORE:    0.00 PKD
ROOT
HETATM    1  C   UNL     1      -9.773   8.930  66.099  1.00  0.00    -0.268 C  
HETATM    2  N   UNL     1      -9.952   8.310  67.413  1.00  0.00    -0.189 NA 
HETATM    3  C   UNL     1     -10.392   9.315  68.381  1.00  0.00    -0.209 C  
ENDROOT
BRANCH   2   4
HETATM    4  C   UNL     1     -10.886   7.166  67.320  1.00  0.00    -0.312 C  
BRANCH   4   5
HETATM    5  C   UNL     1     -10.392   5.914  68.063  1.00  0.00    -0.257 C  
BRANCH   5   6
HETATM    6  C   UNL     1     -10.829   5.857  69.510  1.00  0.00    -0.442 C  
BRANCH   6   7
HETATM    7  C   UNL     1     -10.026   5.693  70.585  1.00  0.00    -0.260 A  
HETATM    8  C   UNL     1     -10.033   4.401  71.312  1.00  0.00    -0.245 A  
HETATM    9  C   UNL     1      -9.532   3.247  70.695  1.00  0.00    -0.240 A  
HETATM   10  C   UNL     1      -9.421   2.055  71.410  1.00  0.00    -0.202 A  
HETATM   11  C   UNL     1      -9.824   2.003  72.742  1.00  0.00    -0.171 A  
HETATM   12  C   UNL     1     -10.346   3.141  73.359  1.00  0.00    -0.231 A  
HETATM   13  C   UNL     1     -10.438   4.356  72.664  1.00  0.00    -0.249 A  
HETATM   14  C   UNL     1     -10.996   5.520  73.380  1.00  0.00    -0.324 A  
HETATM   15  C   UNL     1     -10.599   6.800  73.276  1.00  0.00    -0.335 A  
HETATM   16  C   UNL     1      -9.514   7.319  72.422  1.00  0.00    -0.178 A  
HETATM   17  C   UNL     1      -8.746   8.389  72.903  1.00  0.00    -0.240 A  
HETATM   18  C   UNL     1      -7.706   8.925  72.136  1.00  0.00     0.118 A  
HETATM   19  C   UNL     1      -7.419   8.401  70.880  1.00  0.00    -0.066 A  
HETATM   20  C   UNL     1      -8.181   7.347  70.381  1.00  0.00    -0.121 A  
HETATM   21  C   UNL     1      -9.243   6.819  71.133  1.00  0.00    -0.159 A  
ENDBRANCH   6   7
ENDBRANCH   5   6
ENDBRANCH   4   5
ENDBRANCH   2   4
TORSDOF 4
ENDMDL
MODEL      146
REMARK 921   NORMALIZED FREE ENERGY PREDICTED BY IDOCK:   -3.76 KCAL/MOL
REMARK 922        TOTAL FREE ENERGY PREDICTED BY IDOCK:   -5.09 KCAL/MOL
REMARK 923 INTER-LIGAND FREE ENERGY PREDICTED BY IDOCK:   -4.61 KCAL/MOL
REMARK 924 INTRA-LIGAND FREE ENERGY PREDICTED BY IDOCK:   -0.48 KCAL/MOL
REMARK 927      BINDING AFFINITY PREDICTED BY RF-SCORE:    0.00 PKD
ROOT
HETATM    1  C   UNL     1      -8.096  10.197  65.364  1.00  0.00    -0.149 C  
HETATM    2  N   UNL     1      -7.013   9.613  66.156  1.00  0.00    -0.090 NA 
HETATM    3  C   UNL     1      -5.750   9.716  65.424  1.00  0.00    -0.060 C  
ENDROOT
BRANCH   2   4
HETATM    4  C   UNL     1      -6.948  10.252  67.489  1.00  0.00    -0.085 C  
BRANCH   4   5
HETATM    5  C   UNL     1      -8.328  10.444  68.141  1.00  0.00    -0.117 C  
BRANCH   5   6
HETATM    6  C   UNL     1      -8.535   9.601  69.379  1.00  0.00    -0.156 C  
BRANCH   6   7
HETATM    7  C   UNL     1      -9.608   8.826  69.653  1.00  0.00    -0.171 A  
HETATM    8  C   UNL     1     -10.734   9.388  70.437  1.00  0.00    -0.317 A  
HETATM    9  C   UNL     1     -11.536  10.398  69.887  1.00  0.00    -0.368 A  
HETATM   10  C   UNL     1     -12.669  10.847  70.564  1.00  0.00    -0.363 A  
HETATM   11  C   UNL     1     -13.002  10.304  71.801  1.00  0.00    -0.574 A  
HETATM   12  C   UNL     1     -12.197   9.313  72.368  1.00  0.00    -0.203 A  
HETATM   13  C   UNL     1     -11.070   8.829  71.688  1.00  0.00    -0.398 A  
HETATM   14  C   UNL     1     -10.267   7.779  72.346  1.00  0.00    -0.305 A  
HETATM   15  C   UNL     1      -9.662   6.735  71.754  1.00  0.00    -0.164 A  
HETATM   16  C   UNL     1      -9.671   6.410  70.315  1.00  0.00    -0.186 A  
HETATM   17  C   UNL     1      -9.685   5.060  69.940  1.00  0.00    -0.266 A  
HETATM   18  C   UNL     1      -9.691   4.691  68.591  1.00  0.00    -0.217 A  
HETATM   19  C   UNL     1      -9.683   5.666  67.598  1.00  0.00    -0.135 A  
HETATM   20  C   UNL     1      -9.656   7.013  67.953  1.00  0.00    -0.133 A  
HETATM   21  C   UNL     1      -9.624   7.391  69.305  1.00  0.00    -0.154 A  
ENDBRANCH   6   7
ENDBRANCH   5   6
ENDBRANCH   4   5
ENDBRANCH   2   4
TORSDOF 4
ENDMDL
MODEL      147
REMARK 921   NORMALIZED FREE ENERGY PREDICTED BY IDOCK:   -3.74 KCAL/MOL
REMARK 922        TOTAL FREE ENERGY PREDICTED BY IDOCK:   -5.07 KCAL/MOL
REMARK 923 INTER-LIGAND FREE ENERGY PREDICTED BY IDOCK:   -4.37 KCAL/MOL
REMARK 924 INTRA-LIGAND FREE ENERGY PREDICTED BY IDOCK:   -0.70 KCAL/MOL
REMARK 927      BINDING AFFINITY PREDICTED BY RF-SCORE:    0.00 PKD
ROOT
HETATM    1  C   UNL     1      -8.691   5.694  66.735  1.00  0.00    -0.115 C  
HETATM    2  N   UNL     1      -7.602   6.596  67.115  1.00  0.00    -0.094 NA 
HETATM    3  C   UNL     1      -6.627   5.878  67.938  1.00  0.00    -0.052 C  
ENDROOT
BRANCH   2   4
HETATM    4  C   UNL     1      -6.991   7.201  65.912  1.00  0.00    -0.065 C  
BRANCH   4   5
HETATM    5  C   UNL     1      -7.179   8.726  65.834  1.00  0.00    -0.084 C  
BRANCH   5   6
HETATM    6  C   UNL     1      -8.527   9.142  65.288  1.00  0.00    -0.169 C  
BRANCH   6   7
HETATM    7  C   UNL     1      -9.444   9.910  65.916  1.00  0.00    -0.272 A  
HETATM    8  C   UNL     1      -9.949  11.136  65.251  1.00  0.00    -0.311 A  
HETATM    9  C   UNL     1     -10.742  11.034  64.100  1.00  0.00    -0.344 A  
HETATM   10  C   UNL     1     -11.322  12.171  63.539  1.00  0.00    -0.535 A  
HETATM   11  C   UNL     1     -11.101  13.420  64.112  1.00  0.00    -0.353 A  
HETATM   12  C   UNL     1     -10.294  13.536  65.246  1.00  0.00    -0.344 A  
HETATM   13  C   UNL     1      -9.727  12.399  65.841  1.00  0.00    -0.237 A  
HETATM   14  C   UNL     1      -8.887  12.595  67.039  1.00  0.00    -0.212 A  
HETATM   15  C   UNL     1      -8.817  11.795  68.117  1.00  0.00    -0.169 A  
HETATM   16  C   UNL     1      -9.568  10.545  68.337  1.00  0.00    -0.164 A  
HETATM   17  C   UNL     1      -9.977  10.237  69.642  1.00  0.00    -0.240 A  
HETATM   18  C   UNL     1     -10.690   9.065  69.912  1.00  0.00    -0.240 A  
HETATM   19  C   UNL     1     -11.004   8.184  68.882  1.00  0.00     0.118 A  
HETATM   20  C   UNL     1     -10.594   8.466  67.582  1.00  0.00    -0.265 A  
HETATM   21  C   UNL     1      -9.856   9.629  67.306  1.00  0.00    -0.225 A  
ENDBRANCH   6   7
ENDBRANCH   5   6
ENDBRANCH   4   5
ENDBRANCH   2   4
TORSDOF 4
ENDMDL
MODEL      148
REMARK 921   NORMALIZED FREE ENERGY PREDICTED BY IDOCK:   -3.73 KCAL/MOL
REMARK 922        TOTAL FREE ENERGY PREDICTED BY IDOCK:   -5.05 KCAL/MOL
REMARK 923 INTER-LIGAND FREE ENERGY PREDICTED BY IDOCK:   -4.27 KCAL/MOL
REMARK 924 INTRA-LIGAND FREE ENERGY PREDICTED BY IDOCK:   -0.78 KCAL/MOL
REMARK 927      BINDING AFFINITY PREDICTED BY RF-SCORE:    0.00 PKD
ROOT
HETATM    1  C   UNL     1     -13.508   9.957  71.642  1.00  0.00    -0.336 C  
HETATM    2  N   UNL     1     -13.273   8.563  72.023  1.00  0.00    -0.355 NA 
HETATM    3  C   UNL     1     -14.394   7.732  71.581  1.00  0.00    -0.481 C  
ENDROOT
BRANCH   2   4
HETATM    4  C   UNL     1     -11.976   8.095  71.488  1.00  0.00    -0.298 C  
BRANCH   4   5
HETATM    5  C   UNL     1     -10.801   9.023  71.838  1.00  0.00    -0.413 C  
BRANCH   5   6
HETATM    6  C   UNL     1      -9.731   9.075  70.770  1.00  0.00    -0.306 C  
BRANCH   6   7
HETATM    7  C   UNL     1      -9.007   8.032  70.308  1.00  0.00    -0.147 A  
HETATM    8  C   UNL     1      -9.227   7.545  68.925  1.00  0.00    -0.142 A  
HETATM    9  C   UNL     1      -8.866   8.348  67.834  1.00  0.00    -0.138 A  
HETATM   10  C   UNL     1      -8.955   7.853  66.533  1.00  0.00    -0.192 A  
HETATM   11  C   UNL     1      -9.418   6.560  66.310  1.00  0.00    -0.126 A  
HETATM   12  C   UNL     1      -9.801   5.759  67.389  1.00  0.00    -0.154 A  
HETATM   13  C   UNL     1      -9.691   6.230  68.706  1.00  0.00    -0.141 A  
HETATM   14  C   UNL     1     -10.110   5.329  69.797  1.00  0.00    -0.334 A  
HETATM   15  C   UNL     1      -9.533   5.198  71.004  1.00  0.00    -0.214 A  
HETATM   16  C   UNL     1      -8.351   5.927  71.499  1.00  0.00    -0.127 A  
HETATM   17  C   UNL     1      -7.461   5.251  72.346  1.00  0.00    -0.096 A  
HETATM   18  C   UNL     1      -6.325   5.892  72.849  1.00  0.00    -0.062 A  
HETATM   19  C   UNL     1      -6.060   7.215  72.514  1.00  0.00    -0.041 A  
HETATM   20  C   UNL     1      -6.941   7.907  71.685  1.00  0.00    -0.066 A  
HETATM   21  C   UNL     1      -8.097   7.279  71.196  1.00  0.00    -0.102 A  
ENDBRANCH   6   7
ENDBRANCH   5   6
ENDBRANCH   4   5
ENDBRANCH   2   4
TORSDOF 4
ENDMDL
MODEL      149
REMARK 921   NORMALIZED FREE ENERGY PREDICTED BY IDOCK:   -3.73 KCAL/MOL
REMARK 922        TOTAL FREE ENERGY PREDICTED BY IDOCK:   -5.05 KCAL/MOL
REMARK 923 INTER-LIGAND FREE ENERGY PREDICTED BY IDOCK:   -4.69 KCAL/MOL
REMARK 924 INTRA-LIGAND FREE ENERGY PREDICTED BY IDOCK:   -0.36 KCAL/MOL
REMARK 927      BINDING AFFINITY PREDICTED BY RF-SCORE:    0.00 PKD
ROOT
HETATM    1  C   UNL     1     -10.528  12.604  63.844  1.00  0.00    -0.411 C  
HETATM    2  N   UNL     1     -10.007  12.286  65.174  1.00  0.00    -0.247 NA 
HETATM    3  C   UNL     1     -10.132  13.454  66.048  1.00  0.00    -0.304 C  
ENDROOT
BRANCH   2   4
HETATM    4  C   UNL     1     -10.689  11.093  65.723  1.00  0.00    -0.188 C  
BRANCH   4   5
HETATM    5  C   UNL     1     -10.021  10.538  66.992  1.00  0.00    -0.244 C  
BRANCH   5   6
HETATM    6  C   UNL     1     -10.361   9.091  67.271  1.00  0.00    -0.342 C  
BRANCH   6   7
HETATM    7  C   UNL     1      -9.855   8.325  68.262  1.00  0.00    -0.192 A  
HETATM    8  C   UNL     1      -8.837   7.295  67.943  1.00  0.00    -0.128 A  
HETATM    9  C   UNL     1      -7.559   7.681  67.516  1.00  0.00    -0.109 A  
HETATM   10  C   UNL     1      -6.559   6.728  67.330  1.00  0.00    -0.054 A  
HETATM   11  C   UNL     1      -6.831   5.381  67.553  1.00  0.00    -0.060 A  
HETATM   12  C   UNL     1      -8.107   4.983  67.957  1.00  0.00    -0.093 A  
HETATM   13  C   UNL     1      -9.117   5.931  68.177  1.00  0.00    -0.117 A  
HETATM   14  C   UNL     1     -10.442   5.440  68.606  1.00  0.00    -0.199 A  
HETATM   15  C   UNL     1     -11.276   6.026  69.482  1.00  0.00    -0.416 A  
HETATM   16  C   UNL     1     -11.046   7.289  70.209  1.00  0.00    -0.289 A  
HETATM   17  C   UNL     1     -11.541   7.402  71.515  1.00  0.00    -0.304 A  
HETATM   18  C   UNL     1     -11.357   8.576  72.252  1.00  0.00    -0.441 A  
HETATM   19  C   UNL     1     -10.676   9.653  71.694  1.00  0.00     0.004 A  
HETATM   20  C   UNL     1     -10.190   9.563  70.392  1.00  0.00    -0.337 A  
HETATM   21  C   UNL     1     -10.393   8.397  69.637  1.00  0.00    -0.218 A  
ENDBRANCH   6   7
ENDBRANCH   5   6
ENDBRANCH   4   5
ENDBRANCH   2   4
TORSDOF 4
ENDMDL
MODEL      150
REMARK 921   NORMALIZED FREE ENERGY PREDICTED BY IDOCK:   -3.72 KCAL/MOL
REMARK 922        TOTAL FREE ENERGY PREDICTED BY IDOCK:   -5.04 KCAL/MOL
REMARK 923 INTER-LIGAND FREE ENERGY PREDICTED BY IDOCK:   -4.44 KCAL/MOL
REMARK 924 INTRA-LIGAND FREE ENERGY PREDICTED BY IDOCK:   -0.60 KCAL/MOL
REMARK 927      BINDING AFFINITY PREDICTED BY RF-SCORE:    0.00 PKD
ROOT
HETATM    1  C   UNL     1      -9.933  10.472  66.031  1.00  0.00    -0.237 C  
HETATM    2  N   UNL     1      -9.557   9.080  65.783  1.00  0.00    -0.248 NA 
HETATM    3  C   UNL     1      -8.404   9.029  64.883  1.00  0.00    -0.169 C  
ENDROOT
BRANCH   2   4
HETATM    4  C   UNL     1      -9.309   8.378  67.062  1.00  0.00    -0.159 C  
BRANCH   4   5
HETATM    5  C   UNL     1      -9.194   9.328  68.266  1.00  0.00    -0.134 C  
BRANCH   5   6
HETATM    6  C   UNL     1      -8.408   8.748  69.421  1.00  0.00    -0.117 C  
BRANCH   6   7
HETATM    7  C   UNL     1      -8.892   7.958  70.404  1.00  0.00    -0.142 A  
HETATM    8  C   UNL     1      -8.022   6.913  70.997  1.00  0.00    -0.102 A  
HETATM    9  C   UNL     1      -6.909   7.281  71.766  1.00  0.00    -0.058 A  
HETATM   10  C   UNL     1      -6.156   6.312  72.427  1.00  0.00    -0.038 A  
HETATM   11  C   UNL     1      -6.498   4.967  72.313  1.00  0.00    -0.043 A  
HETATM   12  C   UNL     1      -7.591   4.588  71.531  1.00  0.00    -0.081 A  
HETATM   13  C   UNL     1      -8.377   5.552  70.883  1.00  0.00    -0.120 A  
HETATM   14  C   UNL     1      -9.520   5.080  70.075  1.00  0.00    -0.231 A  
HETATM   15  C   UNL     1     -10.722   5.669  69.955  1.00  0.00    -0.399 A  
HETATM   16  C   UNL     1     -11.162   6.916  70.607  1.00  0.00    -0.346 A  
HETATM   17  C   UNL     1     -12.502   7.019  71.006  1.00  0.00    -0.373 A  
HETATM   18  C   UNL     1     -12.977   8.179  71.626  1.00  0.00    -0.352 A  
HETATM   19  C   UNL     1     -12.121   9.251  71.857  1.00  0.00    -0.440 A  
HETATM   20  C   UNL     1     -10.790   9.171  71.455  1.00  0.00    -0.436 A  
HETATM   21  C   UNL     1     -10.311   8.020  70.809  1.00  0.00    -0.214 A  
ENDBRANCH   6   7
ENDBRANCH   5   6
ENDBRANCH   4   5
ENDBRANCH   2   4
TORSDOF 4
ENDMDL
MODEL      151
REMARK 921   NORMALIZED FREE ENERGY PREDICTED BY IDOCK:   -3.69 KCAL/MOL
REMARK 922        TOTAL FREE ENERGY PREDICTED BY IDOCK:   -5.00 KCAL/MOL
REMARK 923 INTER-LIGAND FREE ENERGY PREDICTED BY IDOCK:   -4.95 KCAL/MOL
REMARK 924 INTRA-LIGAND FREE ENERGY PREDICTED BY IDOCK:   -0.05 KCAL/MOL
REMARK 927      BINDING AFFINITY PREDICTED BY RF-SCORE:    0.00 PKD
ROOT
HETATM    1  C   UNL     1      -7.883   9.941  63.526  1.00  0.00    -0.150 C  
HETATM    2  N   UNL     1      -7.603   9.055  64.657  1.00  0.00    -0.103 NA 
HETATM    3  C   UNL     1      -7.057   7.787  64.172  1.00  0.00    -0.075 C  
ENDROOT
BRANCH   2   4
HETATM    4  C   UNL     1      -6.707   9.725  65.625  1.00  0.00    -0.092 C  
BRANCH   4   5
HETATM    5  C   UNL     1      -7.461  10.473  66.737  1.00  0.00    -0.115 C  
BRANCH   5   6
HETATM    6  C   UNL     1      -8.579  11.353  66.224  1.00  0.00    -0.156 C  
BRANCH   6   7
HETATM    7  C   UNL     1      -9.871  11.321  66.618  1.00  0.00    -0.235 A  
HETATM    8  C   UNL     1     -10.846  12.253  66.003  1.00  0.00    -0.310 A  
HETATM    9  C   UNL     1     -11.198  12.108  64.653  1.00  0.00    -0.374 A  
HETATM   10  C   UNL     1     -12.203  12.900  64.097  1.00  0.00    -0.487 A  
HETATM   11  C   UNL     1     -12.852  13.851  64.878  1.00  0.00    -0.221 A  
HETATM   12  C   UNL     1     -12.493  14.019  66.217  1.00  0.00    -0.439 A  
HETATM   13  C   UNL     1     -11.506  13.212  66.801  1.00  0.00    -0.386 A  
HETATM   14  C   UNL     1     -11.180  13.442  68.223  1.00  0.00    -0.310 A  
HETATM   15  C   UNL     1     -10.874  12.510  69.142  1.00  0.00    -0.134 A  
HETATM   16  C   UNL     1     -10.800  11.053  68.930  1.00  0.00    -0.262 A  
HETATM   17  C   UNL     1     -11.202  10.209  69.975  1.00  0.00    -0.361 A  
HETATM   18  C   UNL     1     -11.151   8.819  69.833  1.00  0.00    -0.129 A  
HETATM   19  C   UNL     1     -10.699   8.252  68.646  1.00  0.00    -0.068 A  
HETATM   20  C   UNL     1     -10.283   9.075  67.602  1.00  0.00    -0.300 A  
HETATM   21  C   UNL     1     -10.307  10.472  67.746  1.00  0.00    -0.248 A  
ENDBRANCH   6   7
ENDBRANCH   5   6
ENDBRANCH   4   5
ENDBRANCH   2   4
TORSDOF 4
ENDMDL
MODEL      152
REMARK 921   NORMALIZED FREE ENERGY PREDICTED BY IDOCK:   -3.67 KCAL/MOL
REMARK 922        TOTAL FREE ENERGY PREDICTED BY IDOCK:   -4.98 KCAL/MOL
REMARK 923 INTER-LIGAND FREE ENERGY PREDICTED BY IDOCK:   -4.70 KCAL/MOL
REMARK 924 INTRA-LIGAND FREE ENERGY PREDICTED BY IDOCK:   -0.28 KCAL/MOL
REMARK 927      BINDING AFFINITY PREDICTED BY RF-SCORE:    0.00 PKD
ROOT
HETATM    1  C   UNL     1      -5.444   5.923  69.811  1.00  0.00    -0.012 C  
HETATM    2  N   UNL     1      -6.766   5.752  70.415  1.00  0.00    -0.046 NA 
HETATM    3  C   UNL     1      -6.896   4.395  70.948  1.00  0.00    -0.036 C  
ENDROOT
BRANCH   2   4
HETATM    4  C   UNL     1      -7.000   6.789  71.444  1.00  0.00    -0.070 C  
BRANCH   4   5
HETATM    5  C   UNL     1      -8.273   6.550  72.272  1.00  0.00    -0.106 C  
BRANCH   5   6
HETATM    6  C   UNL     1      -9.266   7.689  72.199  1.00  0.00    -0.182 C  
BRANCH   6   7
HETATM    7  C   UNL     1     -10.200   7.880  71.242  1.00  0.00    -0.218 A  
HETATM    8  C   UNL     1     -10.102   7.132  69.965  1.00  0.00    -0.194 A  
HETATM    9  C   UNL     1     -10.291   5.744  69.949  1.00  0.00    -0.330 A  
HETATM   10  C   UNL     1     -10.322   5.048  68.741  1.00  0.00    -0.109 A  
HETATM   11  C   UNL     1     -10.148   5.731  67.541  1.00  0.00    -0.204 A  
HETATM   12  C   UNL     1      -9.936   7.112  67.546  1.00  0.00    -0.214 A  
HETATM   13  C   UNL     1      -9.932   7.831  68.751  1.00  0.00    -0.181 A  
HETATM   14  C   UNL     1      -9.705   9.289  68.682  1.00  0.00    -0.158 A  
HETATM   15  C   UNL     1     -10.286  10.233  69.440  1.00  0.00    -0.256 A  
HETATM   16  C   UNL     1     -11.282  10.018  70.507  1.00  0.00    -0.408 A  
HETATM   17  C   UNL     1     -12.288  10.979  70.680  1.00  0.00    -0.480 A  
HETATM   18  C   UNL     1     -13.256  10.830  71.678  1.00  0.00    -0.487 A  
HETATM   19  C   UNL     1     -13.234   9.720  72.516  1.00  0.00    -0.225 A  
HETATM   20  C   UNL     1     -12.234   8.763  72.367  1.00  0.00    -0.396 A  
HETATM   21  C   UNL     1     -11.242   8.917  71.385  1.00  0.00    -0.382 A  
ENDBRANCH   6   7
ENDBRANCH   5   6
ENDBRANCH   4   5
ENDBRANCH   2   4
TORSDOF 4
ENDMDL
MODEL      153
REMARK 921   NORMALIZED FREE ENERGY PREDICTED BY IDOCK:   -3.66 KCAL/MOL
REMARK 922        TOTAL FREE ENERGY PREDICTED BY IDOCK:   -4.97 KCAL/MOL
REMARK 923 INTER-LIGAND FREE ENERGY PREDICTED BY IDOCK:   -4.63 KCAL/MOL
REMARK 924 INTRA-LIGAND FREE ENERGY PREDICTED BY IDOCK:   -0.34 KCAL/MOL
REMARK 927      BINDING AFFINITY PREDICTED BY RF-SCORE:    0.00 PKD
ROOT
HETATM    1  C   UNL     1     -12.148  14.076  70.748  1.00  0.00    -0.345 C  
HETATM    2  N   UNL     1     -12.538  13.025  71.690  1.00  0.00    -0.188 NA 
HETATM    3  C   UNL     1     -13.580  13.524  72.587  1.00  0.00    -0.461 C  
ENDROOT
BRANCH   2   4
HETATM    4  C   UNL     1     -12.955  11.808  70.959  1.00  0.00    -0.108 C  
BRANCH   4   5
HETATM    5  C   UNL     1     -11.859  10.731  70.892  1.00  0.00    -0.400 C  
BRANCH   5   6
HETATM    6  C   UNL     1     -11.249  10.573  69.516  1.00  0.00    -0.329 C  
BRANCH   6   7
HETATM    7  C   UNL     1     -10.526   9.521  69.075  1.00  0.00    -0.229 A  
HETATM    8  C   UNL     1     -10.351   8.336  69.949  1.00  0.00    -0.218 A  
HETATM    9  C   UNL     1     -11.451   7.521  70.253  1.00  0.00    -0.173 A  
HETATM   10  C   UNL     1     -11.277   6.339  70.972  1.00  0.00    -0.372 A  
HETATM   11  C   UNL     1     -10.007   5.969  71.406  1.00  0.00    -0.223 A  
HETATM   12  C   UNL     1      -8.908   6.785  71.128  1.00  0.00    -0.137 A  
HETATM   13  C   UNL     1      -9.061   7.962  70.381  1.00  0.00    -0.154 A  
HETATM   14  C   UNL     1      -7.855   8.774  70.121  1.00  0.00    -0.094 A  
HETATM   15  C   UNL     1      -7.562   9.450  68.997  1.00  0.00    -0.074 A  
HETATM   16  C   UNL     1      -8.384   9.524  67.774  1.00  0.00    -0.118 A  
HETATM   17  C   UNL     1      -7.728   9.583  66.536  1.00  0.00    -0.097 A  
HETATM   18  C   UNL     1      -8.454   9.658  65.344  1.00  0.00    -0.155 A  
HETATM   19  C   UNL     1      -9.845   9.674  65.370  1.00  0.00    -0.322 A  
HETATM   20  C   UNL     1     -10.513   9.629  66.591  1.00  0.00    -0.233 A  
HETATM   21  C   UNL     1      -9.791   9.580  67.795  1.00  0.00    -0.196 A  
ENDBRANCH   6   7
ENDBRANCH   5   6
ENDBRANCH   4   5
ENDBRANCH   2   4
TORSDOF 4
ENDMDL
MODEL      154
REMARK 921   NORMALIZED FREE ENERGY PREDICTED BY IDOCK:   -3.65 KCAL/MOL
REMARK 922        TOTAL FREE ENERGY PREDICTED BY IDOCK:   -4.95 KCAL/MOL
REMARK 923 INTER-LIGAND FREE ENERGY PREDICTED BY IDOCK:   -4.15 KCAL/MOL
REMARK 924 INTRA-LIGAND FREE ENERGY PREDICTED BY IDOCK:   -0.80 KCAL/MOL
REMARK 927      BINDING AFFINITY PREDICTED BY RF-SCORE:    0.00 PKD
ROOT
HETATM    1  C   UNL     1      -8.667   9.622  67.619  1.00  0.00    -0.126 C  
HETATM    2  N   UNL     1      -8.321  10.434  68.787  1.00  0.00    -0.125 NA 
HETATM    3  C   UNL     1      -8.366  11.855  68.435  1.00  0.00    -0.157 C  
ENDROOT
BRANCH   2   4
HETATM    4  C   UNL     1      -9.208  10.104  69.923  1.00  0.00    -0.080 C  
BRANCH   4   5
HETATM    5  C   UNL     1     -10.619   9.672  69.490  1.00  0.00    -0.247 C  
BRANCH   5   6
HETATM    6  C   UNL     1     -11.135   8.459  70.231  1.00  0.00    -0.216 C  
BRANCH   6   7
HETATM    7  C   UNL     1     -10.666   7.196  70.129  1.00  0.00    -0.260 A  
HETATM    8  C   UNL     1     -10.488   6.381  71.355  1.00  0.00    -0.257 A  
HETATM    9  C   UNL     1     -11.607   5.963  72.087  1.00  0.00    -0.314 A  
HETATM   10  C   UNL     1     -11.460   5.096  73.170  1.00  0.00    -0.348 A  
HETATM   11  C   UNL     1     -10.193   4.653  73.539  1.00  0.00    -0.219 A  
HETATM   12  C   UNL     1      -9.069   5.082  72.830  1.00  0.00    -0.137 A  
HETATM   13  C   UNL     1      -9.201   5.930  71.720  1.00  0.00    -0.157 A  
HETATM   14  C   UNL     1      -7.970   6.340  71.016  1.00  0.00    -0.116 A  
HETATM   15  C   UNL     1      -7.815   6.507  69.691  1.00  0.00    -0.111 A  
HETATM   16  C   UNL     1      -8.843   6.314  68.652  1.00  0.00    -0.119 A  
HETATM   17  C   UNL     1      -8.443   5.805  67.409  1.00  0.00    -0.103 A  
HETATM   18  C   UNL     1      -9.372   5.604  66.384  1.00  0.00    -0.165 A  
HETATM   19  C   UNL     1     -10.715   5.907  66.586  1.00  0.00    -0.323 A  
HETATM   20  C   UNL     1     -11.128   6.427  67.810  1.00  0.00    -0.376 A  
HETATM   21  C   UNL     1     -10.197   6.656  68.836  1.00  0.00    -0.195 A  
ENDBRANCH   6   7
ENDBRANCH   5   6
ENDBRANCH   4   5
ENDBRANCH   2   4
TORSDOF 4
ENDMDL
MODEL      155
REMARK 921   NORMALIZED FREE ENERGY PREDICTED BY IDOCK:   -3.64 KCAL/MOL
REMARK 922        TOTAL FREE ENERGY PREDICTED BY IDOCK:   -4.95 KCAL/MOL
REMARK 923 INTER-LIGAND FREE ENERGY PREDICTED BY IDOCK:   -4.15 KCAL/MOL
REMARK 924 INTRA-LIGAND FREE ENERGY PREDICTED BY IDOCK:   -0.80 KCAL/MOL
REMARK 927      BINDING AFFINITY PREDICTED BY RF-SCORE:    0.00 PKD
ROOT
HETATM    1  C   UNL     1      -9.713  10.629  68.103  1.00  0.00    -0.156 C  
HETATM    2  N   UNL     1      -9.174   9.771  67.047  1.00  0.00    -0.141 NA 
HETATM    3  C   UNL     1      -7.963  10.374  66.486  1.00  0.00    -0.123 C  
ENDROOT
BRANCH   2   4
HETATM    4  C   UNL     1      -8.940   8.405  67.563  1.00  0.00    -0.135 C  
BRANCH   4   5
HETATM    5  C   UNL     1     -10.159   7.479  67.413  1.00  0.00    -0.282 C  
BRANCH   5   6
HETATM    6  C   UNL     1     -10.181   6.341  68.409  1.00  0.00    -0.200 C  
BRANCH   6   7
HETATM    7  C   UNL     1     -10.128   6.450  69.754  1.00  0.00    -0.211 A  
HETATM    8  C   UNL     1     -11.144   7.266  70.462  1.00  0.00    -0.290 A  
HETATM    9  C   UNL     1     -12.481   6.848  70.493  1.00  0.00    -0.093 A  
HETATM   10  C   UNL     1     -13.421   7.541  71.256  1.00  0.00    -0.325 A  
HETATM   11  C   UNL     1     -13.035   8.666  71.980  1.00  0.00    -0.419 A  
HETATM   12  C   UNL     1     -11.710   9.105  71.937  1.00  0.00    -0.436 A  
HETATM   13  C   UNL     1     -10.746   8.402  71.198  1.00  0.00    -0.280 A  
HETATM   14  C   UNL     1      -9.364   8.921  71.201  1.00  0.00    -0.326 A  
HETATM   15  C   UNL     1      -8.230   8.199  71.213  1.00  0.00    -0.132 A  
HETATM   16  C   UNL     1      -8.122   6.728  71.230  1.00  0.00    -0.111 A  
HETATM   17  C   UNL     1      -7.066   6.149  71.947  1.00  0.00    -0.086 A  
HETATM   18  C   UNL     1      -6.911   4.760  71.996  1.00  0.00    -0.055 A  
HETATM   19  C   UNL     1      -7.807   3.931  71.330  1.00  0.00    -0.060 A  
HETATM   20  C   UNL     1      -8.853   4.490  70.600  1.00  0.00    -0.140 A  
HETATM   21  C   UNL     1      -9.002   5.884  70.525  1.00  0.00    -0.151 A  
ENDBRANCH   6   7
ENDBRANCH   5   6
ENDBRANCH   4   5
ENDBRANCH   2   4
TORSDOF 4
ENDMDL
MODEL      156
REMARK 921   NORMALIZED FREE ENERGY PREDICTED BY IDOCK:   -3.62 KCAL/MOL
REMARK 922        TOTAL FREE ENERGY PREDICTED BY IDOCK:   -4.92 KCAL/MOL
REMARK 923 INTER-LIGAND FREE ENERGY PREDICTED BY IDOCK:   -4.24 KCAL/MOL
REMARK 924 INTRA-LIGAND FREE ENERGY PREDICTED BY IDOCK:   -0.68 KCAL/MOL
REMARK 927      BINDING AFFINITY PREDICTED BY RF-SCORE:    0.00 PKD
ROOT
HETATM    1  C   UNL     1      -9.520  10.368  62.764  1.00  0.00    -0.321 C  
HETATM    2  N   UNL     1      -9.452  11.161  63.992  1.00  0.00    -0.224 NA 
HETATM    3  C   UNL     1     -10.759  11.757  64.272  1.00  0.00    -0.342 C  
ENDROOT
BRANCH   2   4
HETATM    4  C   UNL     1      -8.957  10.332  65.113  1.00  0.00    -0.191 C  
BRANCH   4   5
HETATM    5  C   UNL     1      -9.824  10.437  66.379  1.00  0.00    -0.266 C  
BRANCH   5   6
HETATM    6  C   UNL     1     -10.426   9.119  66.812  1.00  0.00    -0.266 C  
BRANCH   6   7
HETATM    7  C   UNL     1      -9.871   8.221  67.655  1.00  0.00    -0.218 A  
HETATM    8  C   UNL     1      -9.734   8.557  69.093  1.00  0.00    -0.170 A  
HETATM    9  C   UNL     1     -10.876   8.684  69.895  1.00  0.00    -0.210 A  
HETATM   10  C   UNL     1     -10.756   8.878  71.271  1.00  0.00    -0.357 A  
HETATM   11  C   UNL     1      -9.494   8.962  71.853  1.00  0.00    -0.301 A  
HETATM   12  C   UNL     1      -8.350   8.859  71.060  1.00  0.00    -0.233 A  
HETATM   13  C   UNL     1      -8.452   8.634  69.679  1.00  0.00    -0.129 A  
HETATM   14  C   UNL     1      -7.200   8.532  68.903  1.00  0.00    -0.078 A  
HETATM   15  C   UNL     1      -6.957   7.712  67.867  1.00  0.00    -0.076 A  
HETATM   16  C   UNL     1      -7.890   6.732  67.280  1.00  0.00    -0.110 A  
HETATM   17  C   UNL     1      -7.366   5.528  66.789  1.00  0.00    -0.083 A  
HETATM   18  C   UNL     1      -8.202   4.562  66.220  1.00  0.00    -0.106 A  
HETATM   19  C   UNL     1      -9.572   4.785  66.133  1.00  0.00    -0.185 A  
HETATM   20  C   UNL     1     -10.108   5.981  66.603  1.00  0.00    -0.226 A  
HETATM   21  C   UNL     1      -9.273   6.967  67.153  1.00  0.00    -0.153 A  
ENDBRANCH   6   7
ENDBRANCH   5   6
ENDBRANCH   4   5
ENDBRANCH   2   4
TORSDOF 4
ENDMDL
MODEL      157
REMARK 921   NORMALIZED FREE ENERGY PREDICTED BY IDOCK:   -3.61 KCAL/MOL
REMARK 922        TOTAL FREE ENERGY PREDICTED BY IDOCK:   -4.91 KCAL/MOL
REMARK 923 INTER-LIGAND FREE ENERGY PREDICTED BY IDOCK:   -4.58 KCAL/MOL
REMARK 924 INTRA-LIGAND FREE ENERGY PREDICTED BY IDOCK:   -0.33 KCAL/MOL
REMARK 927      BINDING AFFINITY PREDICTED BY RF-SCORE:    0.00 PKD
ROOT
HETATM    1  C   UNL     1      -5.302  10.797  71.325  1.00  0.00    -0.050 C  
HETATM    2  N   UNL     1      -6.527  10.427  70.615  1.00  0.00    -0.307 NA 
HETATM    3  C   UNL     1      -6.794  11.393  69.547  1.00  0.00    -0.097 C  
ENDROOT
BRANCH   2   4
HETATM    4  C   UNL     1      -6.431   9.039  70.111  1.00  0.00    -0.044 C  
BRANCH   4   5
HETATM    5  C   UNL     1      -6.644   7.978  71.204  1.00  0.00    -0.038 C  
BRANCH   5   6
HETATM    6  C   UNL     1      -8.040   7.979  71.784  1.00  0.00    -0.142 C  
BRANCH   6   7
HETATM    7  C   UNL     1      -9.151   7.471  71.206  1.00  0.00    -0.147 A  
HETATM    8  C   UNL     1     -10.449   8.167  71.379  1.00  0.00    -0.261 A  
HETATM    9  C   UNL     1     -10.653   9.424  70.794  1.00  0.00    -0.371 A  
HETATM   10  C   UNL     1     -11.907  10.031  70.846  1.00  0.00    -0.459 A  
HETATM   11  C   UNL     1     -12.961   9.397  71.497  1.00  0.00    -0.449 A  
HETATM   12  C   UNL     1     -12.762   8.154  72.103  1.00  0.00    -0.332 A  
HETATM   13  C   UNL     1     -11.515   7.515  72.034  1.00  0.00    -0.319 A  
HETATM   14  C   UNL     1     -11.377   6.202  72.695  1.00  0.00    -0.298 A  
HETATM   15  C   UNL     1     -10.665   5.149  72.258  1.00  0.00    -0.266 A  
HETATM   16  C   UNL     1      -9.867   5.077  71.019  1.00  0.00    -0.266 A  
HETATM   17  C   UNL     1      -9.814   3.855  70.334  1.00  0.00    -0.176 A  
HETATM   18  C   UNL     1      -9.071   3.726  69.157  1.00  0.00    -0.200 A  
HETATM   19  C   UNL     1      -8.372   4.814  68.646  1.00  0.00    -0.083 A  
HETATM   20  C   UNL     1      -8.403   6.033  69.321  1.00  0.00    -0.115 A  
HETATM   21  C   UNL     1      -9.125   6.164  70.518  1.00  0.00    -0.159 A  
ENDBRANCH   6   7
ENDBRANCH   5   6
ENDBRANCH   4   5
ENDBRANCH   2   4
TORSDOF 4
ENDMDL
MODEL      158
REMARK 921   NORMALIZED FREE ENERGY PREDICTED BY IDOCK:   -3.57 KCAL/MOL
REMARK 922        TOTAL FREE ENERGY PREDICTED BY IDOCK:   -4.86 KCAL/MOL
REMARK 923 INTER-LIGAND FREE ENERGY PREDICTED BY IDOCK:   -4.23 KCAL/MOL
REMARK 924 INTRA-LIGAND FREE ENERGY PREDICTED BY IDOCK:   -0.63 KCAL/MOL
REMARK 927      BINDING AFFINITY PREDICTED BY RF-SCORE:    0.00 PKD
ROOT
HETATM    1  C   UNL     1      -9.478  10.303  63.401  1.00  0.00    -0.295 C  
HETATM    2  N   UNL     1      -8.512   9.213  63.545  1.00  0.00    -0.197 NA 
HETATM    3  C   UNL     1      -7.193   9.654  63.087  1.00  0.00    -0.112 C  
ENDROOT
BRANCH   2   4
HETATM    4  C   UNL     1      -8.492   8.724  64.941  1.00  0.00    -0.171 C  
BRANCH   4   5
HETATM    5  C   UNL     1      -9.142   9.699  65.937  1.00  0.00    -0.221 C  
BRANCH   5   6
HETATM    6  C   UNL     1      -8.272  10.009  67.135  1.00  0.00    -0.117 C  
BRANCH   6   7
HETATM    7  C   UNL     1      -8.691  10.472  68.334  1.00  0.00    -0.137 A  
HETATM    8  C   UNL     1      -8.545   9.619  69.538  1.00  0.00    -0.177 A  
HETATM    9  C   UNL     1      -7.268   9.324  70.037  1.00  0.00    -0.078 A  
HETATM   10  C   UNL     1      -7.122   8.627  71.236  1.00  0.00    -0.086 A  
HETATM   11  C   UNL     1      -8.249   8.205  71.936  1.00  0.00    -0.180 A  
HETATM   12  C   UNL     1      -9.524   8.473  71.436  1.00  0.00    -0.279 A  
HETATM   13  C   UNL     1      -9.690   9.199  70.247  1.00  0.00    -0.248 A  
HETATM   14  C   UNL     1     -11.068   9.450  69.779  1.00  0.00    -0.193 A  
HETATM   15  C   UNL     1     -11.530  10.564  69.186  1.00  0.00    -0.314 A  
HETATM   16  C   UNL     1     -10.758  11.782  68.875  1.00  0.00    -0.241 A  
HETATM   17  C   UNL     1     -11.407  13.020  68.970  1.00  0.00    -0.340 A  
HETATM   18  C   UNL     1     -10.727  14.209  68.684  1.00  0.00    -0.263 A  
HETATM   19  C   UNL     1      -9.390  14.176  68.301  1.00  0.00    -0.203 A  
HETATM   20  C   UNL     1      -8.734  12.953  68.188  1.00  0.00    -0.190 A  
HETATM   21  C   UNL     1      -9.416  11.754  68.449  1.00  0.00    -0.188 A  
ENDBRANCH   6   7
ENDBRANCH   5   6
ENDBRANCH   4   5
ENDBRANCH   2   4
TORSDOF 4
ENDMDL
MODEL      159
REMARK 921   NORMALIZED FREE ENERGY PREDICTED BY IDOCK:   -3.55 KCAL/MOL
REMARK 922        TOTAL FREE ENERGY PREDICTED BY IDOCK:   -4.84 KCAL/MOL
REMARK 923 INTER-LIGAND FREE ENERGY PREDICTED BY IDOCK:   -4.24 KCAL/MOL
REMARK 924 INTRA-LIGAND FREE ENERGY PREDICTED BY IDOCK:   -0.60 KCAL/MOL
REMARK 927      BINDING AFFINITY PREDICTED BY RF-SCORE:    0.00 PKD
ROOT
HETATM    1  C   UNL     1     -11.410   7.741  72.761  1.00  0.00    -0.389 C  
HETATM    2  N   UNL     1     -11.978   7.815  71.414  1.00  0.00    -0.299 NA 
HETATM    3  C   UNL     1     -11.446   8.985  70.714  1.00  0.00    -0.282 C  
ENDROOT
BRANCH   2   4
HETATM    4  C   UNL     1     -11.727   6.554  70.681  1.00  0.00    -0.374 C  
BRANCH   4   5
HETATM    5  C   UNL     1     -10.573   6.657  69.669  1.00  0.00    -0.276 C  
BRANCH   5   6
HETATM    6  C   UNL     1     -10.988   6.362  68.245  1.00  0.00    -0.396 C  
BRANCH   6   7
HETATM    7  C   UNL     1     -10.242   6.551  67.135  1.00  0.00    -0.257 A  
HETATM    8  C   UNL     1      -9.896   5.390  66.280  1.00  0.00    -0.186 A  
HETATM    9  C   UNL     1     -10.898   4.728  65.558  1.00  0.00    -0.086 A  
HETATM   10  C   UNL     1     -10.569   3.715  64.659  1.00  0.00    -0.045 A  
HETATM   11  C   UNL     1      -9.238   3.344  64.485  1.00  0.00    -0.137 A  
HETATM   12  C   UNL     1      -8.234   3.983  65.216  1.00  0.00    -0.101 A  
HETATM   13  C   UNL     1      -8.544   5.024  66.103  1.00  0.00    -0.118 A  
HETATM   14  C   UNL     1      -7.432   5.655  66.840  1.00  0.00    -0.088 A  
HETATM   15  C   UNL     1      -7.305   6.957  67.151  1.00  0.00    -0.090 A  
HETATM   16  C   UNL     1      -8.250   8.039  66.819  1.00  0.00    -0.111 A  
HETATM   17  C   UNL     1      -7.730   9.307  66.522  1.00  0.00    -0.093 A  
HETATM   18  C   UNL     1      -8.579  10.372  66.203  1.00  0.00    -0.151 A  
HETATM   19  C   UNL     1      -9.957  10.186  66.176  1.00  0.00    -0.310 A  
HETATM   20  C   UNL     1     -10.491   8.937  66.482  1.00  0.00    -0.175 A  
HETATM   21  C   UNL     1      -9.648   7.869  66.827  1.00  0.00    -0.278 A  
ENDBRANCH   6   7
ENDBRANCH   5   6
ENDBRANCH   4   5
ENDBRANCH   2   4
TORSDOF 4
ENDMDL
MODEL      160
REMARK 921   NORMALIZED FREE ENERGY PREDICTED BY IDOCK:   -3.54 KCAL/MOL
REMARK 922        TOTAL FREE ENERGY PREDICTED BY IDOCK:   -4.82 KCAL/MOL
REMARK 923 INTER-LIGAND FREE ENERGY PREDICTED BY IDOCK:   -4.20 KCAL/MOL
REMARK 924 INTRA-LIGAND FREE ENERGY PREDICTED BY IDOCK:   -0.61 KCAL/MOL
REMARK 927      BINDING AFFINITY PREDICTED BY RF-SCORE:    0.00 PKD
ROOT
HETATM    1  C   UNL     1     -12.240  13.853  70.454  1.00  0.00    -0.368 C  
HETATM    2  N   UNL     1     -12.375  12.680  71.319  1.00  0.00    -0.176 NA 
HETATM    3  C   UNL     1     -13.408  12.923  72.328  1.00  0.00    -0.494 C  
ENDROOT
BRANCH   2   4
HETATM    4  C   UNL     1     -12.647  11.472  70.510  1.00  0.00    -0.201 C  
BRANCH   4   5
HETATM    5  C   UNL     1     -11.495  10.453  70.529  1.00  0.00    -0.431 C  
BRANCH   5   6
HETATM    6  C   UNL     1     -10.754  10.353  69.214  1.00  0.00    -0.270 C  
BRANCH   6   7
HETATM    7  C   UNL     1      -9.608   9.674  68.988  1.00  0.00    -0.168 A  
HETATM    8  C   UNL     1      -9.664   8.223  68.689  1.00  0.00    -0.162 A  
HETATM    9  C   UNL     1     -10.229   7.778  67.485  1.00  0.00    -0.301 A  
HETATM   10  C   UNL     1     -10.178   6.428  67.139  1.00  0.00    -0.254 A  
HETATM   11  C   UNL     1      -9.577   5.511  67.997  1.00  0.00    -0.147 A  
HETATM   12  C   UNL     1      -9.032   5.941  69.209  1.00  0.00    -0.117 A  
HETATM   13  C   UNL     1      -9.049   7.299  69.560  1.00  0.00    -0.143 A  
HETATM   14  C   UNL     1      -8.451   7.683  70.854  1.00  0.00    -0.124 A  
HETATM   15  C   UNL     1      -7.743   8.795  71.120  1.00  0.00    -0.146 A  
HETATM   16  C   UNL     1      -7.407   9.873  70.171  1.00  0.00    -0.166 A  
HETATM   17  C   UNL     1      -6.167  10.512  70.306  1.00  0.00    -0.130 A  
HETATM   18  C   UNL     1      -5.795  11.544  69.437  1.00  0.00    -0.065 A  
HETATM   19  C   UNL     1      -6.656  11.951  68.424  1.00  0.00    -0.056 A  
HETATM   20  C   UNL     1      -7.898  11.336  68.284  1.00  0.00    -0.130 A  
HETATM   21  C   UNL     1      -8.290  10.317  69.167  1.00  0.00    -0.154 A  
ENDBRANCH   6   7
ENDBRANCH   5   6
ENDBRANCH   4   5
ENDBRANCH   2   4
TORSDOF 4
ENDMDL
MODEL      161
REMARK 921   NORMALIZED FREE ENERGY PREDICTED BY IDOCK:   -3.52 KCAL/MOL
REMARK 922        TOTAL FREE ENERGY PREDICTED BY IDOCK:   -4.79 KCAL/MOL
REMARK 923 INTER-LIGAND FREE ENERGY PREDICTED BY IDOCK:   -4.17 KCAL/MOL
REMARK 924 INTRA-LIGAND FREE ENERGY PREDICTED BY IDOCK:   -0.62 KCAL/MOL
REMARK 927      BINDING AFFINITY PREDICTED BY RF-SCORE:    0.00 PKD
ROOT
HETATM    1  C   UNL     1      -7.971  11.324  66.104  1.00  0.00    -0.038 C  
HETATM    2  N   UNL     1      -7.966  11.718  67.514  1.00  0.00    -0.139 NA 
HETATM    3  C   UNL     1      -6.949  10.954  68.239  1.00  0.00    -0.069 C  
ENDROOT
BRANCH   2   4
HETATM    4  C   UNL     1      -7.772  13.179  67.639  1.00  0.00    -0.168 C  
BRANCH   4   5
HETATM    5  C   UNL     1      -7.388  13.623  69.061  1.00  0.00    -0.014 C  
BRANCH   5   6
HETATM    6  C   UNL     1      -7.434  15.122  69.260  1.00  0.00    -0.193 C  
BRANCH   6   7
HETATM    7  C   UNL     1      -8.441  15.949  68.902  1.00  0.00    -0.220 A  
HETATM    8  C   UNL     1      -9.839  15.585  69.235  1.00  0.00    -0.270 A  
HETATM    9  C   UNL     1     -10.258  15.566  70.573  1.00  0.00     0.096 A  
HETATM   10  C   UNL     1     -11.598  15.345  70.890  1.00  0.00    -0.396 A  
HETATM   11  C   UNL     1     -12.526  15.126  69.876  1.00  0.00    -0.269 A  
HETATM   12  C   UNL     1     -12.115  15.121  68.542  1.00  0.00    -0.146 A  
HETATM   13  C   UNL     1     -10.777  15.370  68.203  1.00  0.00    -0.271 A  
HETATM   14  C   UNL     1     -10.414  15.353  66.772  1.00  0.00    -0.299 A  
HETATM   15  C   UNL     1      -9.532  16.156  66.152  1.00  0.00    -0.362 A  
HETATM   16  C   UNL     1      -8.735  17.233  66.769  1.00  0.00    -0.275 A  
HETATM   17  C   UNL     1      -8.473  18.382  66.011  1.00  0.00    -0.037 A  
HETATM   18  C   UNL     1      -7.720  19.434  66.543  1.00  0.00    -0.290 A  
HETATM   19  C   UNL     1      -7.220  19.353  67.838  1.00  0.00    -0.291 A  
HETATM   20  C   UNL     1      -7.459  18.213  68.601  1.00  0.00    -0.300 A  
HETATM   21  C   UNL     1      -8.192  17.141  68.066  1.00  0.00    -0.216 A  
ENDBRANCH   6   7
ENDBRANCH   5   6
ENDBRANCH   4   5
ENDBRANCH   2   4
TORSDOF 4
ENDMDL
MODEL      162
REMARK 921   NORMALIZED FREE ENERGY PREDICTED BY IDOCK:   -3.51 KCAL/MOL
REMARK 922        TOTAL FREE ENERGY PREDICTED BY IDOCK:   -4.79 KCAL/MOL
REMARK 923 INTER-LIGAND FREE ENERGY PREDICTED BY IDOCK:   -4.18 KCAL/MOL
REMARK 924 INTRA-LIGAND FREE ENERGY PREDICTED BY IDOCK:   -0.60 KCAL/MOL
REMARK 927      BINDING AFFINITY PREDICTED BY RF-SCORE:    0.00 PKD
ROOT
HETATM    1  C   UNL     1      -5.385   6.036  73.907  1.00  0.00    -0.036 C  
HETATM    2  N   UNL     1      -6.152   7.194  73.443  1.00  0.00    -0.057 NA 
HETATM    3  C   UNL     1      -5.637   8.413  74.069  1.00  0.00    -0.094 C  
ENDROOT
BRANCH   2   4
HETATM    4  C   UNL     1      -6.133   7.265  71.966  1.00  0.00    -0.040 C  
BRANCH   4   5
HETATM    5  C   UNL     1      -7.268   8.125  71.383  1.00  0.00    -0.074 C  
BRANCH   5   6
HETATM    6  C   UNL     1      -8.533   7.346  71.098  1.00  0.00    -0.118 C  
BRANCH   6   7
HETATM    7  C   UNL     1      -9.563   7.745  70.321  1.00  0.00    -0.175 A  
HETATM    8  C   UNL     1      -9.310   8.129  68.911  1.00  0.00    -0.147 A  
HETATM    9  C   UNL     1      -8.914   7.159  67.981  1.00  0.00    -0.127 A  
HETATM   10  C   UNL     1      -8.791   7.485  66.630  1.00  0.00    -0.162 A  
HETATM   11  C   UNL     1      -9.048   8.784  66.201  1.00  0.00    -0.251 A  
HETATM   12  C   UNL     1      -9.422   9.763  67.124  1.00  0.00    -0.189 A  
HETATM   13  C   UNL     1      -9.578   9.447  68.482  1.00  0.00    -0.154 A  
HETATM   14  C   UNL     1      -9.979  10.531  69.400  1.00  0.00    -0.220 A  
HETATM   15  C   UNL     1     -10.808  10.433  70.453  1.00  0.00    -0.257 A  
HETATM   16  C   UNL     1     -11.501   9.217  70.919  1.00  0.00    -0.367 A  
HETATM   17  C   UNL     1     -12.787   9.353  71.462  1.00  0.00    -0.442 A  
HETATM   18  C   UNL     1     -13.491   8.236  71.923  1.00  0.00    -0.372 A  
HETATM   19  C   UNL     1     -12.922   6.969  71.848  1.00  0.00    -0.283 A  
HETATM   20  C   UNL     1     -11.640   6.817  71.325  1.00  0.00    -0.366 A  
HETATM   21  C   UNL     1     -10.916   7.936  70.883  1.00  0.00    -0.256 A  
ENDBRANCH   6   7
ENDBRANCH   5   6
ENDBRANCH   4   5
ENDBRANCH   2   4
TORSDOF 4
ENDMDL
MODEL      163
REMARK 921   NORMALIZED FREE ENERGY PREDICTED BY IDOCK:   -3.51 KCAL/MOL
REMARK 922        TOTAL FREE ENERGY PREDICTED BY IDOCK:   -4.78 KCAL/MOL
REMARK 923 INTER-LIGAND FREE ENERGY PREDICTED BY IDOCK:   -4.59 KCAL/MOL
REMARK 924 INTRA-LIGAND FREE ENERGY PREDICTED BY IDOCK:   -0.18 KCAL/MOL
REMARK 927      BINDING AFFINITY PREDICTED BY RF-SCORE:    0.00 PKD
ROOT
HETATM    1  C   UNL     1     -11.795  12.383  67.430  1.00  0.00    -0.289 C  
HETATM    2  N   UNL     1     -10.538  12.225  66.698  1.00  0.00    -0.225 NA 
HETATM    3  C   UNL     1     -10.433  13.254  65.663  1.00  0.00    -0.281 C  
ENDROOT
BRANCH   2   4
HETATM    4  C   UNL     1      -9.392  12.245  67.634  1.00  0.00    -0.186 C  
BRANCH   4   5
HETATM    5  C   UNL     1      -8.709  10.876  67.790  1.00  0.00    -0.129 C  
BRANCH   5   6
HETATM    6  C   UNL     1      -8.546  10.441  69.229  1.00  0.00    -0.159 C  
BRANCH   6   7
HETATM    7  C   UNL     1      -8.693   9.187  69.711  1.00  0.00    -0.155 A  
HETATM    8  C   UNL     1      -9.366   8.159  68.881  1.00  0.00    -0.147 A  
HETATM    9  C   UNL     1      -8.754   7.695  67.708  1.00  0.00    -0.127 A  
HETATM   10  C   UNL     1      -9.317   6.644  66.986  1.00  0.00    -0.160 A  
HETATM   11  C   UNL     1     -10.504   6.059  67.419  1.00  0.00    -0.309 A  
HETATM   12  C   UNL     1     -11.134   6.529  68.574  1.00  0.00    -0.347 A  
HETATM   13  C   UNL     1     -10.566   7.566  69.329  1.00  0.00    -0.215 A  
HETATM   14  C   UNL     1     -11.284   8.010  70.540  1.00  0.00    -0.252 A  
HETATM   15  C   UNL     1     -10.740   8.397  71.706  1.00  0.00    -0.355 A  
HETATM   16  C   UNL     1      -9.302   8.458  72.030  1.00  0.00    -0.332 A  
HETATM   17  C   UNL     1      -8.903   8.150  73.338  1.00  0.00    -0.322 A  
HETATM   18  C   UNL     1      -7.555   8.195  73.705  1.00  0.00    -0.214 A  
HETATM   19  C   UNL     1      -6.586   8.547  72.771  1.00  0.00    -0.080 A  
HETATM   20  C   UNL     1      -6.966   8.870  71.471  1.00  0.00    -0.080 A  
HETATM   21  C   UNL     1      -8.320   8.852  71.101  1.00  0.00    -0.232 A  
ENDBRANCH   6   7
ENDBRANCH   5   6
ENDBRANCH   4   5
ENDBRANCH   2   4
TORSDOF 4
ENDMDL
MODEL      164
REMARK 921   NORMALIZED FREE ENERGY PREDICTED BY IDOCK:   -3.50 KCAL/MOL
REMARK 922        TOTAL FREE ENERGY PREDICTED BY IDOCK:   -4.76 KCAL/MOL
REMARK 923 INTER-LIGAND FREE ENERGY PREDICTED BY IDOCK:   -4.13 KCAL/MOL
REMARK 924 INTRA-LIGAND FREE ENERGY PREDICTED BY IDOCK:   -0.63 KCAL/MOL
REMARK 927      BINDING AFFINITY PREDICTED BY RF-SCORE:    0.00 PKD
ROOT
HETATM    1  C   UNL     1     -12.892   9.164  72.393  1.00  0.00    -0.367 C  
HETATM    2  N   UNL     1     -11.487   9.194  71.983  1.00  0.00    -0.344 NA 
HETATM    3  C   UNL     1     -10.862   7.899  72.258  1.00  0.00    -0.293 C  
ENDROOT
BRANCH   2   4
HETATM    4  C   UNL     1     -11.374   9.586  70.562  1.00  0.00    -0.283 C  
BRANCH   4   5
HETATM    5  C   UNL     1     -11.653  11.079  70.317  1.00  0.00    -0.414 C  
BRANCH   5   6
HETATM    6  C   UNL     1     -11.714  11.452  68.852  1.00  0.00    -0.409 C  
BRANCH   6   7
HETATM    7  C   UNL     1     -10.725  12.017  68.126  1.00  0.00    -0.246 A  
HETATM    8  C   UNL     1     -10.028  11.216  67.091  1.00  0.00    -0.215 A  
HETATM    9  C   UNL     1     -10.716  10.810  65.939  1.00  0.00    -0.143 A  
HETATM   10  C   UNL     1     -10.040  10.163  64.905  1.00  0.00    -0.277 A  
HETATM   11  C   UNL     1      -8.678   9.902  65.020  1.00  0.00    -0.196 A  
HETATM   12  C   UNL     1      -7.988  10.282  66.173  1.00  0.00    -0.131 A  
HETATM   13  C   UNL     1      -8.645  10.960  67.210  1.00  0.00    -0.128 A  
HETATM   14  C   UNL     1      -7.854  11.335  68.399  1.00  0.00    -0.136 A  
HETATM   15  C   UNL     1      -7.968  12.461  69.124  1.00  0.00     0.399 A  
HETATM   16  C   UNL     1      -8.910  13.570  68.886  1.00  0.00     0.223 A  
HETATM   17  C   UNL     1      -8.483  14.875  69.166  1.00  0.00    -0.152 A  
HETATM   18  C   UNL     1      -9.334  15.966  68.964  1.00  0.00    -0.243 A  
HETATM   19  C   UNL     1     -10.623  15.770  68.479  1.00  0.00    -0.253 A  
HETATM   20  C   UNL     1     -11.069  14.478  68.209  1.00  0.00    -0.275 A  
HETATM   21  C   UNL     1     -10.230  13.375  68.433  1.00  0.00    -0.251 A  
ENDBRANCH   6   7
ENDBRANCH   5   6
ENDBRANCH   4   5
ENDBRANCH   2   4
TORSDOF 4
ENDMDL
MODEL      165
REMARK 921   NORMALIZED FREE ENERGY PREDICTED BY IDOCK:   -3.44 KCAL/MOL
REMARK 922        TOTAL FREE ENERGY PREDICTED BY IDOCK:   -4.70 KCAL/MOL
REMARK 923 INTER-LIGAND FREE ENERGY PREDICTED BY IDOCK:   -4.28 KCAL/MOL
REMARK 924 INTRA-LIGAND FREE ENERGY PREDICTED BY IDOCK:   -0.42 KCAL/MOL
REMARK 927      BINDING AFFINITY PREDICTED BY RF-SCORE:    0.00 PKD
ROOT
HETATM    1  C   UNL     1      -7.695   7.319  66.024  1.00  0.00    -0.095 C  
HETATM    2  N   UNL     1      -8.261   6.035  66.440  1.00  0.00    -0.110 NA 
HETATM    3  C   UNL     1      -7.589   4.944  65.732  1.00  0.00    -0.086 C  
ENDROOT
BRANCH   2   4
HETATM    4  C   UNL     1      -8.182   5.890  67.910  1.00  0.00    -0.108 C  
BRANCH   4   5
HETATM    5  C   UNL     1      -9.338   5.068  68.504  1.00  0.00    -0.167 C  
BRANCH   5   6
HETATM    6  C   UNL     1     -10.428   5.916  69.123  1.00  0.00    -0.338 C  
BRANCH   6   7
HETATM    7  C   UNL     1     -10.279   6.808  70.127  1.00  0.00    -0.215 A  
HETATM    8  C   UNL     1      -9.873   6.334  71.472  1.00  0.00    -0.193 A  
HETATM    9  C   UNL     1      -8.588   5.811  71.673  1.00  0.00    -0.132 A  
HETATM   10  C   UNL     1      -8.155   5.476  72.955  1.00  0.00    -0.111 A  
HETATM   11  C   UNL     1      -9.006   5.645  74.044  1.00  0.00    -0.122 A  
HETATM   12  C   UNL     1     -10.296   6.144  73.851  1.00  0.00    -0.302 A  
HETATM   13  C   UNL     1     -10.738   6.514  72.572  1.00  0.00    -0.255 A  
HETATM   14  C   UNL     1     -12.113   7.037  72.443  1.00  0.00    -0.127 A  
HETATM   15  C   UNL     1     -12.530   8.021  71.628  1.00  0.00    -0.347 A  
HETATM   16  C   UNL     1     -11.701   8.795  70.685  1.00  0.00    -0.194 A  
HETATM   17  C   UNL     1     -12.011  10.147  70.484  1.00  0.00    -0.400 A  
HETATM   18  C   UNL     1     -11.262  10.929  69.599  1.00  0.00    -0.348 A  
HETATM   19  C   UNL     1     -10.194  10.373  68.904  1.00  0.00    -0.220 A  
HETATM   20  C   UNL     1      -9.880   9.028  69.081  1.00  0.00    -0.175 A  
HETATM   21  C   UNL     1     -10.642   8.229  69.948  1.00  0.00    -0.232 A  
ENDBRANCH   6   7
ENDBRANCH   5   6
ENDBRANCH   4   5
ENDBRANCH   2   4
TORSDOF 4
ENDMDL
MODEL      166
REMARK 921   NORMALIZED FREE ENERGY PREDICTED BY IDOCK:   -3.42 KCAL/MOL
REMARK 922        TOTAL FREE ENERGY PREDICTED BY IDOCK:   -4.67 KCAL/MOL
REMARK 923 INTER-LIGAND FREE ENERGY PREDICTED BY IDOCK:   -4.18 KCAL/MOL
REMARK 924 INTRA-LIGAND FREE ENERGY PREDICTED BY IDOCK:   -0.48 KCAL/MOL
REMARK 927      BINDING AFFINITY PREDICTED BY RF-SCORE:    0.00 PKD
ROOT
HETATM    1  C   UNL     1     -12.220  12.984  63.376  1.00  0.00    -0.472 C  
HETATM    2  N   UNL     1     -10.864  12.754  63.877  1.00  0.00    -0.412 NA 
HETATM    3  C   UNL     1     -10.515  13.785  64.856  1.00  0.00    -0.418 C  
ENDROOT
BRANCH   2   4
HETATM    4  C   UNL     1     -10.743  11.387  64.427  1.00  0.00    -0.342 C  
BRANCH   4   5
HETATM    5  C   UNL     1      -9.300  11.004  64.798  1.00  0.00    -0.239 C  
BRANCH   5   6
HETATM    6  C   UNL     1      -9.079   9.511  64.905  1.00  0.00    -0.276 C  
BRANCH   6   7
HETATM    7  C   UNL     1      -8.879   8.809  66.042  1.00  0.00    -0.210 A  
HETATM    8  C   UNL     1      -9.339   9.368  67.337  1.00  0.00    -0.151 A  
HETATM    9  C   UNL     1     -10.710   9.500  67.595  1.00  0.00    -0.314 A  
HETATM   10  C   UNL     1     -11.156   9.909  68.852  1.00  0.00    -0.181 A  
HETATM   11  C   UNL     1     -10.236  10.203  69.854  1.00  0.00    -0.284 A  
HETATM   12  C   UNL     1      -8.867  10.096  69.600  1.00  0.00    -0.184 A  
HETATM   13  C   UNL     1      -8.402   9.659  68.351  1.00  0.00    -0.117 A  
HETATM   14  C   UNL     1      -6.942   9.566  68.154  1.00  0.00    -0.078 A  
HETATM   15  C   UNL     1      -6.279   8.628  67.456  1.00  0.00    -0.053 A  
HETATM   16  C   UNL     1      -6.868   7.484  66.736  1.00  0.00    -0.070 A  
HETATM   17  C   UNL     1      -6.154   6.278  66.708  1.00  0.00    -0.025 A  
HETATM   18  C   UNL     1      -6.662   5.160  66.039  1.00  0.00    -0.053 A  
HETATM   19  C   UNL     1      -7.889   5.231  65.388  1.00  0.00    -0.094 A  
HETATM   20  C   UNL     1      -8.606   6.425  65.393  1.00  0.00    -0.088 A  
HETATM   21  C   UNL     1      -8.092   7.559  66.042  1.00  0.00    -0.123 A  
ENDBRANCH   6   7
ENDBRANCH   5   6
ENDBRANCH   4   5
ENDBRANCH   2   4
TORSDOF 4
ENDMDL
MODEL      167
REMARK 921   NORMALIZED FREE ENERGY PREDICTED BY IDOCK:   -3.41 KCAL/MOL
REMARK 922        TOTAL FREE ENERGY PREDICTED BY IDOCK:   -4.66 KCAL/MOL
REMARK 923 INTER-LIGAND FREE ENERGY PREDICTED BY IDOCK:   -4.01 KCAL/MOL
REMARK 924 INTRA-LIGAND FREE ENERGY PREDICTED BY IDOCK:   -0.65 KCAL/MOL
REMARK 927      BINDING AFFINITY PREDICTED BY RF-SCORE:    0.00 PKD
ROOT
HETATM    1  C   UNL     1     -10.338  11.372  66.780  1.00  0.00    -0.234 C  
HETATM    2  N   UNL     1     -10.017  10.122  66.087  1.00  0.00    -0.233 NA 
HETATM    3  C   UNL     1      -9.487  10.415  64.755  1.00  0.00    -0.273 C  
ENDROOT
BRANCH   2   4
HETATM    4  C   UNL     1      -9.088   9.308  66.900  1.00  0.00    -0.131 C  
BRANCH   4   5
HETATM    5  C   UNL     1      -9.243   9.534  68.414  1.00  0.00    -0.130 C  
BRANCH   5   6
HETATM    6  C   UNL     1      -8.270   8.731  69.249  1.00  0.00    -0.108 C  
BRANCH   6   7
HETATM    7  C   UNL     1      -8.542   7.595  69.927  1.00  0.00    -0.138 A  
HETATM    8  C   UNL     1      -8.810   6.343  69.178  1.00  0.00    -0.126 A  
HETATM    9  C   UNL     1      -7.781   5.728  68.451  1.00  0.00    -0.096 A  
HETATM   10  C   UNL     1      -7.989   4.489  67.844  1.00  0.00    -0.088 A  
HETATM   11  C   UNL     1      -9.228   3.864  67.945  1.00  0.00    -0.209 A  
HETATM   12  C   UNL     1     -10.266   4.479  68.649  1.00  0.00     0.076 A  
HETATM   13  C   UNL     1     -10.066   5.711  69.290  1.00  0.00    -0.281 A  
HETATM   14  C   UNL     1     -11.207   6.301  70.018  1.00  0.00    -0.480 A  
HETATM   15  C   UNL     1     -11.161   6.983  71.175  1.00  0.00    -0.288 A  
HETATM   16  C   UNL     1      -9.957   7.287  71.972  1.00  0.00    -0.184 A  
HETATM   17  C   UNL     1     -10.073   7.305  73.369  1.00  0.00    -0.367 A  
HETATM   18  C   UNL     1      -8.967   7.591  74.175  1.00  0.00    -0.267 A  
HETATM   19  C   UNL     1      -7.731   7.861  73.599  1.00  0.00    -0.207 A  
HETATM   20  C   UNL     1      -7.600   7.861  72.212  1.00  0.00    -0.116 A  
HETATM   21  C   UNL     1      -8.711   7.601  71.394  1.00  0.00    -0.132 A  
ENDBRANCH   6   7
ENDBRANCH   5   6
ENDBRANCH   4   5
ENDBRANCH   2   4
TORSDOF 4
ENDMDL
MODEL      168
REMARK 921   NORMALIZED FREE ENERGY PREDICTED BY IDOCK:   -3.41 KCAL/MOL
REMARK 922        TOTAL FREE ENERGY PREDICTED BY IDOCK:   -4.66 KCAL/MOL
REMARK 923 INTER-LIGAND FREE ENERGY PREDICTED BY IDOCK:   -4.33 KCAL/MOL
REMARK 924 INTRA-LIGAND FREE ENERGY PREDICTED BY IDOCK:   -0.34 KCAL/MOL
REMARK 927      BINDING AFFINITY PREDICTED BY RF-SCORE:    0.00 PKD
ROOT
HETATM    1  C   UNL     1     -12.651  14.431  65.804  1.00  0.00    -0.296 C  
HETATM    2  N   UNL     1     -11.577  14.321  64.816  1.00  0.00    -0.381 NA 
HETATM    3  C   UNL     1     -10.549  15.328  65.085  1.00  0.00    -0.430 C  
ENDROOT
BRANCH   2   4
HETATM    4  C   UNL     1     -11.032  12.946  64.799  1.00  0.00    -0.318 C  
BRANCH   4   5
HETATM    5  C   UNL     1     -11.695  12.014  65.827  1.00  0.00    -0.313 C  
BRANCH   5   6
HETATM    6  C   UNL     1     -10.743  11.006  66.433  1.00  0.00    -0.286 C  
BRANCH   6   7
HETATM    7  C   UNL     1      -9.433  10.862  66.139  1.00  0.00    -0.230 A  
HETATM    8  C   UNL     1      -9.025   9.952  65.042  1.00  0.00    -0.239 A  
HETATM    9  C   UNL     1      -9.343  10.268  63.714  1.00  0.00    -0.339 A  
HETATM   10  C   UNL     1      -8.861   9.484  62.667  1.00  0.00    -0.249 A  
HETATM   11  C   UNL     1      -8.071   8.370  62.938  1.00  0.00    -0.170 A  
HETATM   12  C   UNL     1      -7.766   8.034  64.259  1.00  0.00    -0.128 A  
HETATM   13  C   UNL     1      -8.219   8.828  65.323  1.00  0.00    -0.145 A  
HETATM   14  C   UNL     1      -7.857   8.414  66.693  1.00  0.00    -0.093 A  
HETATM   15  C   UNL     1      -7.540   9.218  67.723  1.00  0.00    -0.084 A  
HETATM   16  C   UNL     1      -7.483  10.692  67.705  1.00  0.00    -0.091 A  
HETATM   17  C   UNL     1      -6.508  11.328  68.486  1.00  0.00    -0.051 A  
HETATM   18  C   UNL     1      -6.408  12.723  68.511  1.00  0.00    -0.075 A  
HETATM   19  C   UNL     1      -7.280  13.501  67.757  1.00  0.00    -0.157 A  
HETATM   20  C   UNL     1      -8.264  12.887  66.987  1.00  0.00    -0.086 A  
HETATM   21  C   UNL     1      -8.388  11.488  66.975  1.00  0.00    -0.165 A  
ENDBRANCH   6   7
ENDBRANCH   5   6
ENDBRANCH   4   5
ENDBRANCH   2   4
TORSDOF 4
ENDMDL
MODEL      169
REMARK 921   NORMALIZED FREE ENERGY PREDICTED BY IDOCK:   -3.41 KCAL/MOL
REMARK 922        TOTAL FREE ENERGY PREDICTED BY IDOCK:   -4.66 KCAL/MOL
REMARK 923 INTER-LIGAND FREE ENERGY PREDICTED BY IDOCK:   -4.21 KCAL/MOL
REMARK 924 INTRA-LIGAND FREE ENERGY PREDICTED BY IDOCK:   -0.46 KCAL/MOL
REMARK 927      BINDING AFFINITY PREDICTED BY RF-SCORE:    0.00 PKD
ROOT
HETATM    1  C   UNL     1     -12.370  14.846  64.623  1.00  0.00    -0.278 C  
HETATM    2  N   UNL     1     -11.411  14.085  65.426  1.00  0.00    -0.308 NA 
HETATM    3  C   UNL     1     -10.072  14.208  64.847  1.00  0.00    -0.246 C  
ENDROOT
BRANCH   2   4
HETATM    4  C   UNL     1     -11.460  14.522  66.838  1.00  0.00    -0.364 C  
BRANCH   4   5
HETATM    5  C   UNL     1     -10.706  15.838  67.095  1.00  0.00    -0.312 C  
BRANCH   5   6
HETATM    6  C   UNL     1      -9.627  15.721  68.149  1.00  0.00    -0.199 C  
BRANCH   6   7
HETATM    7  C   UNL     1      -8.294  15.674  67.931  1.00  0.00    -0.150 A  
HETATM    8  C   UNL     1      -7.563  14.403  68.147  1.00  0.00    -0.128 A  
HETATM    9  C   UNL     1      -7.794  13.309  67.301  1.00  0.00    -0.118 A  
HETATM   10  C   UNL     1      -7.025  12.151  67.417  1.00  0.00    -0.146 A  
HETATM   11  C   UNL     1      -6.032  12.070  68.389  1.00  0.00    -0.050 A  
HETATM   12  C   UNL     1      -5.809  13.146  69.252  1.00  0.00    -0.089 A  
HETATM   13  C   UNL     1      -6.552  14.329  69.129  1.00  0.00    -0.114 A  
HETATM   14  C   UNL     1      -6.261  15.426  70.073  1.00  0.00    -0.146 A  
HETATM   15  C   UNL     1      -6.261  16.743  69.805  1.00  0.00    -0.206 A  
HETATM   16  C   UNL     1      -6.550  17.379  68.506  1.00  0.00    -0.184 A  
HETATM   17  C   UNL     1      -5.846  18.542  68.165  1.00  0.00    -0.188 A  
HETATM   18  C   UNL     1      -6.080  19.190  66.949  1.00  0.00    -0.170 A  
HETATM   19  C   UNL     1      -7.019  18.686  66.055  1.00  0.00    -0.305 A  
HETATM   20  C   UNL     1      -7.738  17.539  66.384  1.00  0.00    -0.332 A  
HETATM   21  C   UNL     1      -7.527  16.896  67.614  1.00  0.00    -0.176 A  
ENDBRANCH   6   7
ENDBRANCH   5   6
ENDBRANCH   4   5
ENDBRANCH   2   4
TORSDOF 4
ENDMDL
MODEL      170
REMARK 921   NORMALIZED FREE ENERGY PREDICTED BY IDOCK:   -3.39 KCAL/MOL
REMARK 922        TOTAL FREE ENERGY PREDICTED BY IDOCK:   -4.64 KCAL/MOL
REMARK 923 INTER-LIGAND FREE ENERGY PREDICTED BY IDOCK:   -4.38 KCAL/MOL
REMARK 924 INTRA-LIGAND FREE ENERGY PREDICTED BY IDOCK:   -0.26 KCAL/MOL
REMARK 927      BINDING AFFINITY PREDICTED BY RF-SCORE:    0.00 PKD
ROOT
HETATM    1  C   UNL     1     -11.559  13.090  66.172  1.00  0.00    -0.366 C  
HETATM    2  N   UNL     1     -11.016  11.882  65.549  1.00  0.00    -0.291 NA 
HETATM    3  C   UNL     1     -11.350  11.864  64.124  1.00  0.00    -0.380 C  
ENDROOT
BRANCH   2   4
HETATM    4  C   UNL     1      -9.559  11.789  65.790  1.00  0.00    -0.233 C  
BRANCH   4   5
HETATM    5  C   UNL     1      -9.186  10.785  66.894  1.00  0.00    -0.172 C  
BRANCH   5   6
HETATM    6  C   UNL     1      -9.482   9.347  66.528  1.00  0.00    -0.246 C  
BRANCH   6   7
HETATM    7  C   UNL     1      -9.104   8.249  67.219  1.00  0.00    -0.157 A  
HETATM    8  C   UNL     1      -9.195   6.915  66.578  1.00  0.00    -0.195 A  
HETATM    9  C   UNL     1      -8.353   6.595  65.504  1.00  0.00    -0.144 A  
HETATM   10  C   UNL     1      -8.344   5.305  64.974  1.00  0.00    -0.146 A  
HETATM   11  C   UNL     1      -9.187   4.330  65.500  1.00  0.00    -0.150 A  
HETATM   12  C   UNL     1     -10.046   4.645  66.555  1.00  0.00    -0.279 A  
HETATM   13  C   UNL     1     -10.047   5.929  67.120  1.00  0.00    -0.213 A  
HETATM   14  C   UNL     1     -10.979   6.190  68.236  1.00  0.00    -0.397 A  
HETATM   15  C   UNL     1     -10.750   6.953  69.318  1.00  0.00    -0.265 A  
HETATM   16  C   UNL     1      -9.513   7.694  69.629  1.00  0.00    -0.156 A  
HETATM   17  C   UNL     1      -9.122   7.800  70.971  1.00  0.00    -0.152 A  
HETATM   18  C   UNL     1      -7.960   8.494  71.326  1.00  0.00    -0.158 A  
HETATM   19  C   UNL     1      -7.173   9.089  70.346  1.00  0.00    -0.069 A  
HETATM   20  C   UNL     1      -7.553   9.005  69.009  1.00  0.00    -0.078 A  
HETATM   21  C   UNL     1      -8.731   8.333  68.646  1.00  0.00    -0.133 A  
ENDBRANCH   6   7
ENDBRANCH   5   6
ENDBRANCH   4   5
ENDBRANCH   2   4
TORSDOF 4
ENDMDL
MODEL      171
REMARK 921   NORMALIZED FREE ENERGY PREDICTED BY IDOCK:   -3.38 KCAL/MOL
REMARK 922        TOTAL FREE ENERGY PREDICTED BY IDOCK:   -4.62 KCAL/MOL
REMARK 923 INTER-LIGAND FREE ENERGY PREDICTED BY IDOCK:   -4.35 KCAL/MOL
REMARK 924 INTRA-LIGAND FREE ENERGY PREDICTED BY IDOCK:   -0.27 KCAL/MOL
REMARK 927      BINDING AFFINITY PREDICTED BY RF-SCORE:    0.00 PKD
ROOT
HETATM    1  C   UNL     1     -10.862   6.404  66.667  1.00  0.00    -0.182 C  
HETATM    2  N   UNL     1      -9.414   6.613  66.632  1.00  0.00    -0.161 NA 
HETATM    3  C   UNL     1      -9.122   8.009  66.301  1.00  0.00    -0.186 C  
ENDROOT
BRANCH   2   4
HETATM    4  C   UNL     1      -8.803   6.195  67.913  1.00  0.00    -0.111 C  
BRANCH   4   5
HETATM    5  C   UNL     1      -9.828   5.685  68.940  1.00  0.00    -0.197 C  
BRANCH   5   6
HETATM    6  C   UNL     1      -9.317   5.702  70.364  1.00  0.00    -0.193 C  
BRANCH   6   7
HETATM    7  C   UNL     1      -9.199   6.785  71.162  1.00  0.00    -0.159 A  
HETATM    8  C   UNL     1      -8.165   6.802  72.225  1.00  0.00    -0.106 A  
HETATM    9  C   UNL     1      -6.807   6.841  71.880  1.00  0.00    -0.063 A  
HETATM   10  C   UNL     1      -5.831   6.979  72.866  1.00  0.00    -0.041 A  
HETATM   11  C   UNL     1      -6.203   7.063  74.205  1.00  0.00    -0.074 A  
HETATM   12  C   UNL     1      -7.552   7.003  74.561  1.00  0.00    -0.132 A  
HETATM   13  C   UNL     1      -8.548   6.893  73.580  1.00  0.00    -0.152 A  
HETATM   14  C   UNL     1      -9.954   6.838  74.028  1.00  0.00    -0.367 A  
HETATM   15  C   UNL     1     -11.017   7.395  73.424  1.00  0.00    -0.292 A  
HETATM   16  C   UNL     1     -11.009   8.189  72.181  1.00  0.00    -0.372 A  
HETATM   17  C   UNL     1     -11.913   9.254  72.068  1.00  0.00    -0.391 A  
HETATM   18  C   UNL     1     -11.953  10.039  70.911  1.00  0.00    -0.453 A  
HETATM   19  C   UNL     1     -11.092   9.771  69.852  1.00  0.00    -0.293 A  
HETATM   20  C   UNL     1     -10.197   8.708  69.942  1.00  0.00    -0.206 A  
HETATM   21  C   UNL     1     -10.167   7.899  71.089  1.00  0.00    -0.221 A  
ENDBRANCH   6   7
ENDBRANCH   5   6
ENDBRANCH   4   5
ENDBRANCH   2   4
TORSDOF 4
ENDMDL
MODEL      172
REMARK 921   NORMALIZED FREE ENERGY PREDICTED BY IDOCK:   -3.37 KCAL/MOL
REMARK 922        TOTAL FREE ENERGY PREDICTED BY IDOCK:   -4.62 KCAL/MOL
REMARK 923 INTER-LIGAND FREE ENERGY PREDICTED BY IDOCK:   -4.73 KCAL/MOL
REMARK 924 INTRA-LIGAND FREE ENERGY PREDICTED BY IDOCK:    0.11 KCAL/MOL
REMARK 927      BINDING AFFINITY PREDICTED BY RF-SCORE:    0.00 PKD
ROOT
HETATM    1  C   UNL     1      -8.259  13.506  69.024  1.00  0.00     0.285 C  
HETATM    2  N   UNL     1      -7.012  12.761  68.842  1.00  0.00    -0.097 NA 
HETATM    3  C   UNL     1      -6.131  12.977  69.991  1.00  0.00    -0.112 C  
ENDROOT
BRANCH   2   4
HETATM    4  C   UNL     1      -7.299  11.328  68.611  1.00  0.00    -0.109 C  
BRANCH   4   5
HETATM    5  C   UNL     1      -6.951  10.435  69.813  1.00  0.00    -0.138 C  
BRANCH   5   6
HETATM    6  C   UNL     1      -8.162   9.830  70.489  1.00  0.00    -0.027 C  
BRANCH   6   7
HETATM    7  C   UNL     1      -9.319   9.472  69.891  1.00  0.00    -0.247 A  
HETATM    8  C   UNL     1      -9.327   9.154  68.443  1.00  0.00    -0.139 A  
HETATM    9  C   UNL     1      -8.668   8.009  67.974  1.00  0.00    -0.125 A  
HETATM   10  C   UNL     1      -8.770   7.635  66.634  1.00  0.00    -0.150 A  
HETATM   11  C   UNL     1      -9.517   8.408  65.751  1.00  0.00    -0.088 A  
HETATM   12  C   UNL     1     -10.159   9.563  66.203  1.00  0.00    -0.326 A  
HETATM   13  C   UNL     1     -10.091   9.939  67.553  1.00  0.00    -0.244 A  
HETATM   14  C   UNL     1     -10.796  11.170  67.962  1.00  0.00    -0.274 A  
HETATM   15  C   UNL     1     -11.454  11.379  69.115  1.00  0.00    -0.365 A  
HETATM   16  C   UNL     1     -11.616  10.420  70.224  1.00  0.00    -0.410 A  
HETATM   17  C   UNL     1     -12.819  10.434  70.944  1.00  0.00    -0.482 A  
HETATM   18  C   UNL     1     -13.028   9.551  72.007  1.00  0.00    -0.514 A  
HETATM   19  C   UNL     1     -12.039   8.641  72.367  1.00  0.00    -0.415 A  
HETATM   20  C   UNL     1     -10.832   8.622  71.672  1.00  0.00    -0.374 A  
HETATM   21  C   UNL     1     -10.604   9.523  70.619  1.00  0.00    -0.374 A  
ENDBRANCH   6   7
ENDBRANCH   5   6
ENDBRANCH   4   5
ENDBRANCH   2   4
TORSDOF 4
ENDMDL
MODEL      173
REMARK 921   NORMALIZED FREE ENERGY PREDICTED BY IDOCK:   -3.37 KCAL/MOL
REMARK 922        TOTAL FREE ENERGY PREDICTED BY IDOCK:   -4.61 KCAL/MOL
REMARK 923 INTER-LIGAND FREE ENERGY PREDICTED BY IDOCK:   -4.19 KCAL/MOL
REMARK 924 INTRA-LIGAND FREE ENERGY PREDICTED BY IDOCK:   -0.42 KCAL/MOL
REMARK 927      BINDING AFFINITY PREDICTED BY RF-SCORE:    0.00 PKD
ROOT
HETATM    1  C   UNL     1      -6.076  13.673  67.924  1.00  0.00    -0.151 C  
HETATM    2  N   UNL     1      -7.460  13.710  68.399  1.00  0.00    -0.115 NA 
HETATM    3  C   UNL     1      -8.232  14.667  67.605  1.00  0.00    -0.171 C  
ENDROOT
BRANCH   2   4
HETATM    4  C   UNL     1      -8.047  12.353  68.379  1.00  0.00    -0.143 C  
BRANCH   4   5
HETATM    5  C   UNL     1      -7.043  11.248  68.748  1.00  0.00    -0.096 C  
BRANCH   5   6
HETATM    6  C   UNL     1      -7.467  10.418  69.939  1.00  0.00    -0.134 C  
BRANCH   6   7
HETATM    7  C   UNL     1      -8.297   9.353  69.920  1.00  0.00    -0.174 A  
HETATM    8  C   UNL     1      -8.733   8.788  68.620  1.00  0.00    -0.134 A  
HETATM    9  C   UNL     1      -7.805   8.147  67.789  1.00  0.00    -0.118 A  
HETATM   10  C   UNL     1      -8.225   7.506  66.623  1.00  0.00    -0.125 A  
HETATM   11  C   UNL     1      -9.572   7.515  66.272  1.00  0.00    -0.134 A  
HETATM   12  C   UNL     1     -10.502   8.170  67.082  1.00  0.00    -0.396 A  
HETATM   13  C   UNL     1     -10.101   8.795  68.272  1.00  0.00    -0.220 A  
HETATM   14  C   UNL     1     -11.138   9.465  69.081  1.00  0.00    -0.039 A  
HETATM   15  C   UNL     1     -11.216   9.506  70.423  1.00  0.00    -0.323 A  
HETATM   16  C   UNL     1     -10.281   8.884  71.379  1.00  0.00    -0.375 A  
HETATM   17  C   UNL     1     -10.800   8.369  72.575  1.00  0.00    -0.375 A  
HETATM   18  C   UNL     1      -9.961   7.771  73.521  1.00  0.00    -0.286 A  
HETATM   19  C   UNL     1      -8.594   7.679  73.286  1.00  0.00    -0.227 A  
HETATM   20  C   UNL     1      -8.059   8.198  72.109  1.00  0.00    -0.182 A  
HETATM   21  C   UNL     1      -8.890   8.822  71.166  1.00  0.00    -0.275 A  
ENDBRANCH   6   7
ENDBRANCH   5   6
ENDBRANCH   4   5
ENDBRANCH   2   4
TORSDOF 4
ENDMDL
MODEL      174
REMARK 921   NORMALIZED FREE ENERGY PREDICTED BY IDOCK:   -3.37 KCAL/MOL
REMARK 922        TOTAL FREE ENERGY PREDICTED BY IDOCK:   -4.61 KCAL/MOL
REMARK 923 INTER-LIGAND FREE ENERGY PREDICTED BY IDOCK:   -4.13 KCAL/MOL
REMARK 924 INTRA-LIGAND FREE ENERGY PREDICTED BY IDOCK:   -0.48 KCAL/MOL
REMARK 927      BINDING AFFINITY PREDICTED BY RF-SCORE:    0.00 PKD
ROOT
HETATM    1  C   UNL     1      -9.049  12.031  66.552  1.00  0.00    -0.202 C  
HETATM    2  N   UNL     1     -10.357  11.437  66.835  1.00  0.00    -0.219 NA 
HETATM    3  C   UNL     1     -10.459  10.128  66.187  1.00  0.00    -0.103 C  
ENDROOT
BRANCH   2   4
HETATM    4  C   UNL     1     -10.584  11.365  68.295  1.00  0.00    -0.195 C  
BRANCH   4   5
HETATM    5  C   UNL     1     -11.411  10.141  68.723  1.00  0.00    -0.172 C  
BRANCH   5   6
HETATM    6  C   UNL     1     -10.989   9.563  70.056  1.00  0.00    -0.284 C  
BRANCH   6   7
HETATM    7  C   UNL     1     -10.312   8.411  70.254  1.00  0.00    -0.212 A  
HETATM    8  C   UNL     1      -9.768   8.105  71.599  1.00  0.00    -0.238 A  
HETATM    9  C   UNL     1     -10.640   7.838  72.664  1.00  0.00    -0.377 A  
HETATM   10  C   UNL     1     -10.141   7.430  73.900  1.00  0.00    -0.245 A  
HETATM   11  C   UNL     1      -8.767   7.301  74.088  1.00  0.00    -0.253 A  
HETATM   12  C   UNL     1      -7.889   7.586  73.040  1.00  0.00    -0.124 A  
HETATM   13  C   UNL     1      -8.375   7.969  71.781  1.00  0.00    -0.159 A  
HETATM   14  C   UNL     1      -7.389   8.252  70.719  1.00  0.00    -0.056 A  
HETATM   15  C   UNL     1      -7.505   7.962  69.412  1.00  0.00    -0.091 A  
HETATM   16  C   UNL     1      -8.643   7.295  68.754  1.00  0.00    -0.129 A  
HETATM   17  C   UNL     1      -8.378   6.435  67.679  1.00  0.00    -0.117 A  
HETATM   18  C   UNL     1      -9.418   5.777  67.015  1.00  0.00    -0.131 A  
HETATM   19  C   UNL     1     -10.736   5.968  67.414  1.00  0.00    -0.393 A  
HETATM   20  C   UNL     1     -11.019   6.829  68.472  1.00  0.00    -0.258 A  
HETATM   21  C   UNL     1      -9.984   7.513  69.128  1.00  0.00    -0.179 A  
ENDBRANCH   6   7
ENDBRANCH   5   6
ENDBRANCH   4   5
ENDBRANCH   2   4
TORSDOF 4
ENDMDL
MODEL      175
REMARK 921   NORMALIZED FREE ENERGY PREDICTED BY IDOCK:   -3.37 KCAL/MOL
REMARK 922        TOTAL FREE ENERGY PREDICTED BY IDOCK:   -4.61 KCAL/MOL
REMARK 923 INTER-LIGAND FREE ENERGY PREDICTED BY IDOCK:   -4.08 KCAL/MOL
REMARK 924 INTRA-LIGAND FREE ENERGY PREDICTED BY IDOCK:   -0.52 KCAL/MOL
REMARK 927      BINDING AFFINITY PREDICTED BY RF-SCORE:    0.00 PKD
ROOT
HETATM    1  C   UNL     1      -9.605   9.010  65.977  1.00  0.00    -0.272 C  
HETATM    2  N   UNL     1      -9.953   8.347  67.234  1.00  0.00    -0.204 NA 
HETATM    3  C   UNL     1     -10.492   9.326  68.179  1.00  0.00    -0.215 C  
ENDROOT
BRANCH   2   4
HETATM    4  C   UNL     1     -10.887   7.227  66.984  1.00  0.00    -0.280 C  
BRANCH   4   5
HETATM    5  C   UNL     1     -10.475   5.921  67.685  1.00  0.00    -0.301 C  
BRANCH   5   6
HETATM    6  C   UNL     1     -10.762   5.915  69.170  1.00  0.00    -0.394 C  
BRANCH   6   7
HETATM    7  C   UNL     1      -9.872   5.680  70.159  1.00  0.00    -0.250 A  
HETATM    8  C   UNL     1      -8.461   6.104  69.987  1.00  0.00    -0.129 A  
HETATM    9  C   UNL     1      -8.139   7.467  69.947  1.00  0.00    -0.129 A  
HETATM   10  C   UNL     1      -6.806   7.877  69.909  1.00  0.00    -0.045 A  
HETATM   11  C   UNL     1      -5.787   6.930  69.895  1.00  0.00    -0.023 A  
HETATM   12  C   UNL     1      -6.098   5.568  69.912  1.00  0.00    -0.022 A  
HETATM   13  C   UNL     1      -7.431   5.138  69.980  1.00  0.00    -0.063 A  
HETATM   14  C   UNL     1      -7.687   3.684  69.999  1.00  0.00    -0.047 A  
HETATM   15  C   UNL     1      -8.636   3.039  70.698  1.00  0.00    -0.113 A  
HETATM   16  C   UNL     1      -9.630   3.647  71.603  1.00  0.00    -0.226 A  
HETATM   17  C   UNL     1     -10.011   2.930  72.746  1.00  0.00    -0.211 A  
HETATM   18  C   UNL     1     -10.952   3.454  73.639  1.00  0.00    -0.329 A  
HETATM   19  C   UNL     1     -11.523   4.700  73.403  1.00  0.00    -0.335 A  
HETATM   20  C   UNL     1     -11.166   5.420  72.265  1.00  0.00    -0.235 A  
HETATM   21  C   UNL     1     -10.242   4.890  71.351  1.00  0.00    -0.257 A  
ENDBRANCH   6   7
ENDBRANCH   5   6
ENDBRANCH   4   5
ENDBRANCH   2   4
TORSDOF 4
ENDMDL
MODEL      176
REMARK 921   NORMALIZED FREE ENERGY PREDICTED BY IDOCK:   -3.37 KCAL/MOL
REMARK 922        TOTAL FREE ENERGY PREDICTED BY IDOCK:   -4.61 KCAL/MOL
REMARK 923 INTER-LIGAND FREE ENERGY PREDICTED BY IDOCK:   -4.02 KCAL/MOL
REMARK 924 INTRA-LIGAND FREE ENERGY PREDICTED BY IDOCK:   -0.59 KCAL/MOL
REMARK 927      BINDING AFFINITY PREDICTED BY RF-SCORE:    0.00 PKD
ROOT
HETATM    1  C   UNL     1     -11.879  12.290  67.466  1.00  0.00    -0.261 C  
HETATM    2  N   UNL     1     -10.570  12.073  66.848  1.00  0.00    -0.223 NA 
HETATM    3  C   UNL     1     -10.224  13.218  66.003  1.00  0.00    -0.291 C  
ENDROOT
BRANCH   2   4
HETATM    4  C   UNL     1      -9.549  11.806  67.885  1.00  0.00    -0.187 C  
BRANCH   4   5
HETATM    5  C   UNL     1      -8.955  10.390  67.804  1.00  0.00    -0.131 C  
BRANCH   5   6
HETATM    6  C   UNL     1      -8.744   9.743  69.155  1.00  0.00    -0.155 C  
BRANCH   6   7
HETATM    7  C   UNL     1      -8.959   8.447  69.467  1.00  0.00    -0.149 A  
HETATM    8  C   UNL     1      -8.232   7.387  68.728  1.00  0.00    -0.129 A  
HETATM    9  C   UNL     1      -6.845   7.250  68.882  1.00  0.00    -0.072 A  
HETATM   10  C   UNL     1      -6.170   6.184  68.289  1.00  0.00    -0.032 A  
HETATM   11  C   UNL     1      -6.871   5.256  67.525  1.00  0.00    -0.060 A  
HETATM   12  C   UNL     1      -8.249   5.395  67.346  1.00  0.00    -0.100 A  
HETATM   13  C   UNL     1      -8.949   6.445  67.960  1.00  0.00    -0.115 A  
HETATM   14  C   UNL     1     -10.405   6.529  67.731  1.00  0.00    -0.234 A  
HETATM   15  C   UNL     1     -11.343   6.900  68.619  1.00  0.00     0.013 A  
HETATM   16  C   UNL     1     -11.119   7.302  70.021  1.00  0.00    -0.262 A  
HETATM   17  C   UNL     1     -12.086   6.953  70.974  1.00  0.00    -0.429 A  
HETATM   18  C   UNL     1     -11.929   7.310  72.317  1.00  0.00    -0.259 A  
HETATM   19  C   UNL     1     -10.806   8.020  72.727  1.00  0.00    -0.438 A  
HETATM   20  C   UNL     1      -9.842   8.387  71.791  1.00  0.00    -0.313 A  
HETATM   21  C   UNL     1     -10.003   8.055  70.436  1.00  0.00    -0.188 A  
ENDBRANCH   6   7
ENDBRANCH   5   6
ENDBRANCH   4   5
ENDBRANCH   2   4
TORSDOF 4
ENDMDL
MODEL      177
REMARK 921   NORMALIZED FREE ENERGY PREDICTED BY IDOCK:   -3.35 KCAL/MOL
REMARK 922        TOTAL FREE ENERGY PREDICTED BY IDOCK:   -4.58 KCAL/MOL
REMARK 923 INTER-LIGAND FREE ENERGY PREDICTED BY IDOCK:   -4.21 KCAL/MOL
REMARK 924 INTRA-LIGAND FREE ENERGY PREDICTED BY IDOCK:   -0.37 KCAL/MOL
REMARK 927      BINDING AFFINITY PREDICTED BY RF-SCORE:    0.00 PKD
ROOT
HETATM    1  C   UNL     1      -8.359   6.678  68.358  1.00  0.00    -0.122 C  
HETATM    2  N   UNL     1      -8.805   6.205  67.046  1.00  0.00    -0.110 NA 
HETATM    3  C   UNL     1      -9.440   4.893  67.180  1.00  0.00    -0.142 C  
ENDROOT
BRANCH   2   4
HETATM    4  C   UNL     1      -9.697   7.204  66.416  1.00  0.00    -0.072 C  
BRANCH   4   5
HETATM    5  C   UNL     1      -8.951   8.442  65.891  1.00  0.00    -0.223 C  
BRANCH   5   6
HETATM    6  C   UNL     1      -9.688   9.741  66.134  1.00  0.00    -0.309 C  
BRANCH   6   7
HETATM    7  C   UNL     1      -9.495  10.593  67.164  1.00  0.00    -0.177 A  
HETATM    8  C   UNL     1      -8.599  10.202  68.279  1.00  0.00    -0.116 A  
HETATM    9  C   UNL     1      -7.221  10.070  68.058  1.00  0.00    -0.082 A  
HETATM   10  C   UNL     1      -6.356   9.823  69.123  1.00  0.00    -0.040 A  
HETATM   11  C   UNL     1      -6.860   9.688  70.413  1.00  0.00    -0.120 A  
HETATM   12  C   UNL     1      -8.234   9.794  70.641  1.00  0.00     0.095 A  
HETATM   13  C   UNL     1      -9.116  10.073  69.586  1.00  0.00    -0.230 A  
HETATM   14  C   UNL     1     -10.555  10.175  69.900  1.00  0.00    -0.331 A  
HETATM   15  C   UNL     1     -11.442  11.027  69.358  1.00  0.00    -0.364 A  
HETATM   16  C   UNL     1     -11.167  12.050  68.331  1.00  0.00    -0.313 A  
HETATM   17  C   UNL     1     -11.874  13.259  68.393  1.00  0.00    -0.395 A  
HETATM   18  C   UNL     1     -11.658  14.264  67.445  1.00  0.00    -0.394 A  
HETATM   19  C   UNL     1     -10.734  14.076  66.422  1.00  0.00    -0.278 A  
HETATM   20  C   UNL     1     -10.033  12.876  66.337  1.00  0.00    -0.267 A  
HETATM   21  C   UNL     1     -10.262  11.852  67.270  1.00  0.00    -0.220 A  
ENDBRANCH   6   7
ENDBRANCH   5   6
ENDBRANCH   4   5
ENDBRANCH   2   4
TORSDOF 4
ENDMDL
MODEL      178
REMARK 921   NORMALIZED FREE ENERGY PREDICTED BY IDOCK:   -3.34 KCAL/MOL
REMARK 922        TOTAL FREE ENERGY PREDICTED BY IDOCK:   -4.58 KCAL/MOL
REMARK 923 INTER-LIGAND FREE ENERGY PREDICTED BY IDOCK:   -4.04 KCAL/MOL
REMARK 924 INTRA-LIGAND FREE ENERGY PREDICTED BY IDOCK:   -0.54 KCAL/MOL
REMARK 927      BINDING AFFINITY PREDICTED BY RF-SCORE:    0.00 PKD
ROOT
HETATM    1  C   UNL     1     -11.233   6.800  72.792  1.00  0.00    -0.231 C  
HETATM    2  N   UNL     1     -10.060   7.361  73.466  1.00  0.00    -0.327 NA 
HETATM    3  C   UNL     1      -9.174   6.280  73.900  1.00  0.00    -0.135 C  
ENDROOT
BRANCH   2   4
HETATM    4  C   UNL     1      -9.377   8.334  72.585  1.00  0.00    -0.280 C  
BRANCH   4   5
HETATM    5  C   UNL     1      -8.124   7.761  71.901  1.00  0.00    -0.120 C  
BRANCH   5   6
HETATM    6  C   UNL     1      -8.049   8.067  70.421  1.00  0.00    -0.112 C  
BRANCH   6   7
HETATM    7  C   UNL     1      -8.957   7.719  69.483  1.00  0.00    -0.142 A  
HETATM    8  C   UNL     1      -9.063   6.303  69.058  1.00  0.00    -0.129 A  
HETATM    9  C   UNL     1      -9.539   5.336  69.954  1.00  0.00    -0.241 A  
HETATM   10  C   UNL     1      -9.758   4.026  69.529  1.00  0.00    -0.227 A  
HETATM   11  C   UNL     1      -9.488   3.668  68.212  1.00  0.00    -0.214 A  
HETATM   12  C   UNL     1      -8.992   4.618  67.316  1.00  0.00    -0.120 A  
HETATM   13  C   UNL     1      -8.794   5.947  67.719  1.00  0.00    -0.109 A  
HETATM   14  C   UNL     1      -8.270   6.899  66.719  1.00  0.00    -0.114 A  
HETATM   15  C   UNL     1      -8.614   8.190  66.576  1.00  0.00    -0.146 A  
HETATM   16  C   UNL     1      -9.593   8.938  67.387  1.00  0.00    -0.201 A  
HETATM   17  C   UNL     1     -10.369   9.918  66.754  1.00  0.00    -0.285 A  
HETATM   18  C   UNL     1     -11.311  10.661  67.473  1.00  0.00    -0.241 A  
HETATM   19  C   UNL     1     -11.491  10.434  68.833  1.00  0.00    -0.251 A  
HETATM   20  C   UNL     1     -10.719   9.473  69.482  1.00  0.00    -0.246 A  
HETATM   21  C   UNL     1      -9.753   8.741  68.773  1.00  0.00    -0.171 A  
ENDBRANCH   6   7
ENDBRANCH   5   6
ENDBRANCH   4   5
ENDBRANCH   2   4
TORSDOF 4
ENDMDL
MODEL      179
REMARK 921   NORMALIZED FREE ENERGY PREDICTED BY IDOCK:   -3.33 KCAL/MOL
REMARK 922        TOTAL FREE ENERGY PREDICTED BY IDOCK:   -4.56 KCAL/MOL
REMARK 923 INTER-LIGAND FREE ENERGY PREDICTED BY IDOCK:   -3.75 KCAL/MOL
REMARK 924 INTRA-LIGAND FREE ENERGY PREDICTED BY IDOCK:   -0.81 KCAL/MOL
REMARK 927      BINDING AFFINITY PREDICTED BY RF-SCORE:    0.00 PKD
ROOT
HETATM    1  C   UNL     1      -8.050   5.249  64.303  1.00  0.00    -0.121 C  
HETATM    2  N   UNL     1      -8.102   4.048  65.138  1.00  0.00    -0.096 NA 
HETATM    3  C   UNL     1      -6.776   3.432  65.205  1.00  0.00    -0.041 C  
ENDROOT
BRANCH   2   4
HETATM    4  C   UNL     1      -8.642   4.376  66.476  1.00  0.00    -0.112 C  
BRANCH   4   5
HETATM    5  C   UNL     1      -7.549   4.614  67.532  1.00  0.00    -0.078 C  
BRANCH   5   6
HETATM    6  C   UNL     1      -7.364   6.072  67.893  1.00  0.00    -0.084 C  
BRANCH   6   7
HETATM    7  C   UNL     1      -8.338   6.945  68.232  1.00  0.00    -0.123 A  
HETATM    8  C   UNL     1      -9.254   6.619  69.352  1.00  0.00    -0.142 A  
HETATM    9  C   UNL     1      -8.766   6.570  70.665  1.00  0.00    -0.144 A  
HETATM   10  C   UNL     1      -9.639   6.386  71.737  1.00  0.00    -0.162 A  
HETATM   11  C   UNL     1     -11.003   6.233  71.505  1.00  0.00    -0.322 A  
HETATM   12  C   UNL     1     -11.497   6.258  70.199  1.00  0.00    -0.452 A  
HETATM   13  C   UNL     1     -10.637   6.472  69.111  1.00  0.00    -0.286 A  
HETATM   14  C   UNL     1     -11.228   6.489  67.758  1.00  0.00    -0.261 A  
HETATM   15  C   UNL     1     -10.873   7.281  66.731  1.00  0.00    -0.126 A  
HETATM   16  C   UNL     1      -9.815   8.308  66.735  1.00  0.00    -0.333 A  
HETATM   17  C   UNL     1     -10.017   9.472  65.981  1.00  0.00    -0.348 A  
HETATM   18  C   UNL     1      -9.048  10.479  65.944  1.00  0.00    -0.192 A  
HETATM   19  C   UNL     1      -7.863  10.338  66.659  1.00  0.00    -0.116 A  
HETATM   20  C   UNL     1      -7.639   9.182  67.402  1.00  0.00    -0.085 A  
HETATM   21  C   UNL     1      -8.596   8.155  67.425  1.00  0.00    -0.125 A  
ENDBRANCH   6   7
ENDBRANCH   5   6
ENDBRANCH   4   5
ENDBRANCH   2   4
TORSDOF 4
ENDMDL
MODEL      180
REMARK 921   NORMALIZED FREE ENERGY PREDICTED BY IDOCK:   -3.31 KCAL/MOL
REMARK 922        TOTAL FREE ENERGY PREDICTED BY IDOCK:   -4.53 KCAL/MOL
REMARK 923 INTER-LIGAND FREE ENERGY PREDICTED BY IDOCK:   -4.09 KCAL/MOL
REMARK 924 INTRA-LIGAND FREE ENERGY PREDICTED BY IDOCK:   -0.44 KCAL/MOL
REMARK 927      BINDING AFFINITY PREDICTED BY RF-SCORE:    0.00 PKD
ROOT
HETATM    1  C   UNL     1     -10.870  11.255  66.593  1.00  0.00    -0.273 C  
HETATM    2  N   UNL     1     -10.352  11.965  67.764  1.00  0.00    -0.195 NA 
HETATM    3  C   UNL     1     -11.199  13.123  68.056  1.00  0.00    -0.277 C  
ENDROOT
BRANCH   2   4
HETATM    4  C   UNL     1     -10.236  11.044  68.915  1.00  0.00    -0.203 C  
BRANCH   4   5
HETATM    5  C   UNL     1      -8.797  10.565  69.169  1.00  0.00    -0.161 C  
BRANCH   5   6
HETATM    6  C   UNL     1      -8.718   9.286  69.974  1.00  0.00    -0.208 C  
BRANCH   6   7
HETATM    7  C   UNL     1      -9.272   8.097  69.649  1.00  0.00    -0.155 A  
HETATM    8  C   UNL     1     -10.198   7.438  70.601  1.00  0.00    -0.202 A  
HETATM    9  C   UNL     1     -11.449   8.008  70.871  1.00  0.00    -0.291 A  
HETATM   10  C   UNL     1     -12.375   7.336  71.668  1.00  0.00    -0.387 A  
HETATM   11  C   UNL     1     -12.052   6.097  72.215  1.00  0.00    -0.237 A  
HETATM   12  C   UNL     1     -10.800   5.530  71.970  1.00  0.00    -0.287 A  
HETATM   13  C   UNL     1      -9.868   6.179  71.147  1.00  0.00    -0.210 A  
HETATM   14  C   UNL     1      -8.564   5.520  70.929  1.00  0.00    -0.129 A  
HETATM   15  C   UNL     1      -7.849   5.500  69.791  1.00  0.00    -0.082 A  
HETATM   16  C   UNL     1      -8.214   6.132  68.509  1.00  0.00    -0.111 A  
HETATM   17  C   UNL     1      -7.851   5.481  67.322  1.00  0.00    -0.101 A  
HETATM   18  C   UNL     1      -8.167   6.034  66.077  1.00  0.00    -0.125 A  
HETATM   19  C   UNL     1      -8.850   7.244  66.001  1.00  0.00    -0.161 A  
HETATM   20  C   UNL     1      -9.206   7.911  67.170  1.00  0.00    -0.175 A  
HETATM   21  C   UNL     1      -8.871   7.375  68.424  1.00  0.00    -0.121 A  
ENDBRANCH   6   7
ENDBRANCH   5   6
ENDBRANCH   4   5
ENDBRANCH   2   4
TORSDOF 4
ENDMDL
MODEL      181
REMARK 921   NORMALIZED FREE ENERGY PREDICTED BY IDOCK:   -3.30 KCAL/MOL
REMARK 922        TOTAL FREE ENERGY PREDICTED BY IDOCK:   -4.53 KCAL/MOL
REMARK 923 INTER-LIGAND FREE ENERGY PREDICTED BY IDOCK:   -3.75 KCAL/MOL
REMARK 924 INTRA-LIGAND FREE ENERGY PREDICTED BY IDOCK:   -0.78 KCAL/MOL
REMARK 927      BINDING AFFINITY PREDICTED BY RF-SCORE:    0.00 PKD
ROOT
HETATM    1  C   UNL     1     -10.632   5.164  66.421  1.00  0.00    -0.276 C  
HETATM    2  N   UNL     1      -9.623   6.040  67.017  1.00  0.00    -0.128 NA 
HETATM    3  C   UNL     1      -8.779   5.274  67.935  1.00  0.00    -0.102 C  
ENDROOT
BRANCH   2   4
HETATM    4  C   UNL     1      -8.840   6.717  65.960  1.00  0.00    -0.135 C  
BRANCH   4   5
HETATM    5  C   UNL     1      -9.145   8.220  65.843  1.00  0.00    -0.203 C  
BRANCH   5   6
HETATM    6  C   UNL     1      -9.857   8.789  67.050  1.00  0.00    -0.279 C  
BRANCH   6   7
HETATM    7  C   UNL     1      -9.372   9.713  67.907  1.00  0.00    -0.141 A  
HETATM    8  C   UNL     1     -10.251  10.813  68.372  1.00  0.00    -0.192 A  
HETATM    9  C   UNL     1     -11.342  10.533  69.206  1.00  0.00    -0.325 A  
HETATM   10  C   UNL     1     -12.102  11.570  69.747  1.00  0.00    -0.374 A  
HETATM   11  C   UNL     1     -11.788  12.893  69.445  1.00  0.00    -0.371 A  
HETATM   12  C   UNL     1     -10.717  13.181  68.597  1.00  0.00    -0.274 A  
HETATM   13  C   UNL     1      -9.925  12.152  68.068  1.00  0.00    -0.203 A  
HETATM   14  C   UNL     1      -8.807  12.530  67.180  1.00  0.00    -0.202 A  
HETATM   15  C   UNL     1      -7.595  11.951  67.115  1.00  0.00    -0.154 A  
HETATM   16  C   UNL     1      -7.119  10.811  67.920  1.00  0.00    -0.085 A  
HETATM   17  C   UNL     1      -5.770  10.785  68.301  1.00  0.00    -0.043 A  
HETATM   18  C   UNL     1      -5.261   9.728  69.062  1.00  0.00    -0.036 A  
HETATM   19  C   UNL     1      -6.091   8.683  69.453  1.00  0.00    -0.041 A  
HETATM   20  C   UNL     1      -7.430   8.685  69.072  1.00  0.00    -0.089 A  
HETATM   21  C   UNL     1      -7.944   9.730  68.287  1.00  0.00    -0.096 A  
ENDBRANCH   6   7
ENDBRANCH   5   6
ENDBRANCH   4   5
ENDBRANCH   2   4
TORSDOF 4
ENDMDL
MODEL      182
REMARK 921   NORMALIZED FREE ENERGY PREDICTED BY IDOCK:   -3.28 KCAL/MOL
REMARK 922        TOTAL FREE ENERGY PREDICTED BY IDOCK:   -4.50 KCAL/MOL
REMARK 923 INTER-LIGAND FREE ENERGY PREDICTED BY IDOCK:   -3.83 KCAL/MOL
REMARK 924 INTRA-LIGAND FREE ENERGY PREDICTED BY IDOCK:   -0.67 KCAL/MOL
REMARK 927      BINDING AFFINITY PREDICTED BY RF-SCORE:    0.00 PKD
ROOT
HETATM    1  C   UNL     1      -8.691  16.582  68.594  1.00  0.00    -0.244 C  
HETATM    2  N   UNL     1      -8.587  15.440  67.685  1.00  0.00    -0.162 NA 
HETATM    3  C   UNL     1      -9.016  15.834  66.342  1.00  0.00    -0.331 C  
ENDROOT
BRANCH   2   4
HETATM    4  C   UNL     1      -7.213  14.891  67.702  1.00  0.00    -0.185 C  
BRANCH   4   5
HETATM    5  C   UNL     1      -7.157  13.399  68.072  1.00  0.00    -0.125 C  
BRANCH   5   6
HETATM    6  C   UNL     1      -7.491  12.477  66.920  1.00  0.00     0.092 C  
BRANCH   6   7
HETATM    7  C   UNL     1      -8.392  11.471  66.933  1.00  0.00    -0.166 A  
HETATM    8  C   UNL     1      -9.595  11.576  67.794  1.00  0.00    -0.177 A  
HETATM    9  C   UNL     1     -10.582  12.529  67.505  1.00  0.00    -0.238 A  
HETATM   10  C   UNL     1     -11.771  12.556  68.232  1.00  0.00    -0.390 A  
HETATM   11  C   UNL     1     -11.977  11.645  69.264  1.00  0.00    -0.382 A  
HETATM   12  C   UNL     1     -10.991  10.706  69.575  1.00  0.00    -0.321 A  
HETATM   13  C   UNL     1      -9.801  10.645  68.834  1.00  0.00    -0.210 A  
HETATM   14  C   UNL     1      -8.803   9.626  69.216  1.00  0.00    -0.164 A  
HETATM   15  C   UNL     1      -8.017   8.915  68.389  1.00  0.00    -0.105 A  
HETATM   16  C   UNL     1      -7.983   8.998  66.917  1.00  0.00    -0.105 A  
HETATM   17  C   UNL     1      -7.743   7.823  66.192  1.00  0.00    -0.089 A  
HETATM   18  C   UNL     1      -7.696   7.841  64.794  1.00  0.00    -0.119 A  
HETATM   19  C   UNL     1      -7.889   9.032  64.102  1.00  0.00    -0.132 A  
HETATM   20  C   UNL     1      -8.115  10.211  64.807  1.00  0.00    -0.153 A  
HETATM   21  C   UNL     1      -8.138  10.207  66.211  1.00  0.00    -0.124 A  
ENDBRANCH   6   7
ENDBRANCH   5   6
ENDBRANCH   4   5
ENDBRANCH   2   4
TORSDOF 4
ENDMDL
MODEL      183
REMARK 921   NORMALIZED FREE ENERGY PREDICTED BY IDOCK:   -3.18 KCAL/MOL
REMARK 922        TOTAL FREE ENERGY PREDICTED BY IDOCK:   -4.37 KCAL/MOL
REMARK 923 INTER-LIGAND FREE ENERGY PREDICTED BY IDOCK:   -3.98 KCAL/MOL
REMARK 924 INTRA-LIGAND FREE ENERGY PREDICTED BY IDOCK:   -0.39 KCAL/MOL
REMARK 927      BINDING AFFINITY PREDICTED BY RF-SCORE:    0.00 PKD
ROOT
HETATM    1  C   UNL     1      -6.459   3.068  70.063  1.00  0.00    -0.032 C  
HETATM    2  N   UNL     1      -6.622   3.572  68.698  1.00  0.00    -0.040 NA 
HETATM    3  C   UNL     1      -7.196   2.527  67.848  1.00  0.00    -0.049 C  
ENDROOT
BRANCH   2   4
HETATM    4  C   UNL     1      -7.434   4.809  68.700  1.00  0.00    -0.065 C  
BRANCH   4   5
HETATM    5  C   UNL     1      -6.654   6.048  69.172  1.00  0.00    -0.051 C  
BRANCH   5   6
HETATM    6  C   UNL     1      -7.467   6.978  70.046  1.00  0.00    -0.090 C  
BRANCH   6   7
HETATM    7  C   UNL     1      -8.808   7.141  70.014  1.00  0.00    -0.142 A  
HETATM    8  C   UNL     1      -9.413   8.021  68.986  1.00  0.00    -0.151 A  
HETATM    9  C   UNL     1      -9.372   7.650  67.634  1.00  0.00    -0.158 A  
HETATM   10  C   UNL     1     -10.043   8.407  66.674  1.00  0.00    -0.358 A  
HETATM   11  C   UNL     1     -10.745   9.547  67.052  1.00  0.00    -0.220 A  
HETATM   12  C   UNL     1     -10.773   9.938  68.393  1.00  0.00    -0.271 A  
HETATM   13  C   UNL     1     -10.129   9.173  69.376  1.00  0.00    -0.198 A  
HETATM   14  C   UNL     1     -10.203   9.644  70.774  1.00  0.00    -0.330 A  
HETATM   15  C   UNL     1     -10.319   8.885  71.877  1.00  0.00    -0.407 A  
HETATM   16  C   UNL     1     -10.401   7.413  71.930  1.00  0.00    -0.218 A  
HETATM   17  C   UNL     1     -11.210   6.829  72.914  1.00  0.00    -0.234 A  
HETATM   18  C   UNL     1     -11.324   5.438  73.015  1.00  0.00    -0.355 A  
HETATM   19  C   UNL     1     -10.633   4.613  72.134  1.00  0.00    -0.175 A  
HETATM   20  C   UNL     1      -9.814   5.176  71.159  1.00  0.00    -0.250 A  
HETATM   21  C   UNL     1      -9.674   6.570  71.067  1.00  0.00    -0.189 A  
ENDBRANCH   6   7
ENDBRANCH   5   6
ENDBRANCH   4   5
ENDBRANCH   2   4
TORSDOF 4
ENDMDL
MODEL      184
REMARK 921   NORMALIZED FREE ENERGY PREDICTED BY IDOCK:   -3.15 KCAL/MOL
REMARK 922        TOTAL FREE ENERGY PREDICTED BY IDOCK:   -4.34 KCAL/MOL
REMARK 923 INTER-LIGAND FREE ENERGY PREDICTED BY IDOCK:   -3.65 KCAL/MOL
REMARK 924 INTRA-LIGAND FREE ENERGY PREDICTED BY IDOCK:   -0.69 KCAL/MOL
REMARK 927      BINDING AFFINITY PREDICTED BY RF-SCORE:    0.00 PKD
ROOT
HETATM    1  C   UNL     1      -6.714   2.761  67.832  1.00  0.00    -0.040 C  
HETATM    2  N   UNL     1      -8.086   3.245  67.991  1.00  0.00    -0.077 NA 
HETATM    3  C   UNL     1      -8.998   2.111  68.146  1.00  0.00    -0.146 C  
ENDROOT
BRANCH   2   4
HETATM    4  C   UNL     1      -8.168   4.197  69.120  1.00  0.00    -0.069 C  
BRANCH   4   5
HETATM    5  C   UNL     1      -8.525   5.629  68.687  1.00  0.00    -0.105 C  
BRANCH   5   6
HETATM    6  C   UNL     1      -8.011   6.693  69.631  1.00  0.00    -0.124 C  
BRANCH   6   7
HETATM    7  C   UNL     1      -8.517   7.000  70.846  1.00  0.00    -0.134 A  
HETATM    8  C   UNL     1      -7.885   6.437  72.064  1.00  0.00    -0.100 A  
HETATM    9  C   UNL     1      -6.597   6.843  72.437  1.00  0.00    -0.058 A  
HETATM   10  C   UNL     1      -6.042   6.414  73.643  1.00  0.00    -0.063 A  
HETATM   11  C   UNL     1      -6.763   5.564  74.476  1.00  0.00    -0.073 A  
HETATM   12  C   UNL     1      -8.039   5.136  74.103  1.00  0.00    -0.100 A  
HETATM   13  C   UNL     1      -8.624   5.580  72.908  1.00  0.00    -0.119 A  
HETATM   14  C   UNL     1      -9.976   5.089  72.579  1.00  0.00    -0.223 A  
HETATM   15  C   UNL     1     -10.966   5.782  71.990  1.00  0.00    -0.317 A  
HETATM   16  C   UNL     1     -10.916   7.188  71.546  1.00  0.00    -0.261 A  
HETATM   17  C   UNL     1     -12.080   7.960  71.655  1.00  0.00    -0.333 A  
HETATM   18  C   UNL     1     -12.093   9.297  71.248  1.00  0.00    -0.412 A  
HETATM   19  C   UNL     1     -10.944   9.882  70.727  1.00  0.00    -0.407 A  
HETATM   20  C   UNL     1      -9.781   9.126  70.598  1.00  0.00    -0.314 A  
HETATM   21  C   UNL     1      -9.767   7.775  70.981  1.00  0.00    -0.174 A  
ENDBRANCH   6   7
ENDBRANCH   5   6
ENDBRANCH   4   5
ENDBRANCH   2   4
TORSDOF 4
ENDMDL
MODEL      185
REMARK 921   NORMALIZED FREE ENERGY PREDICTED BY IDOCK:   -3.12 KCAL/MOL
REMARK 922        TOTAL FREE ENERGY PREDICTED BY IDOCK:   -4.31 KCAL/MOL
REMARK 923 INTER-LIGAND FREE ENERGY PREDICTED BY IDOCK:   -3.56 KCAL/MOL
REMARK 924 INTRA-LIGAND FREE ENERGY PREDICTED BY IDOCK:   -0.75 KCAL/MOL
REMARK 927      BINDING AFFINITY PREDICTED BY RF-SCORE:    0.00 PKD
ROOT
HETATM    1  C   UNL     1      -7.548   3.305  67.790  1.00  0.00    -0.064 C  
HETATM    2  N   UNL     1      -8.985   3.151  68.016  1.00  0.00    -0.133 NA 
HETATM    3  C   UNL     1      -9.266   1.808  68.528  1.00  0.00    -0.172 C  
ENDROOT
BRANCH   2   4
HETATM    4  C   UNL     1      -9.482   4.215  68.917  1.00  0.00    -0.169 C  
BRANCH   4   5
HETATM    5  C   UNL     1     -10.616   5.053  68.302  1.00  0.00     0.095 C  
BRANCH   5   6
HETATM    6  C   UNL     1     -11.174   6.097  69.243  1.00  0.00    -0.438 C  
BRANCH   6   7
HETATM    7  C   UNL     1     -10.491   7.118  69.807  1.00  0.00    -0.238 A  
HETATM    8  C   UNL     1      -9.969   8.209  68.950  1.00  0.00    -0.198 A  
HETATM    9  C   UNL     1     -10.858   9.085  68.312  1.00  0.00    -0.072 A  
HETATM   10  C   UNL     1     -10.377  10.187  67.604  1.00  0.00    -0.265 A  
HETATM   11  C   UNL     1      -9.007  10.413  67.515  1.00  0.00    -0.138 A  
HETATM   12  C   UNL     1      -8.112   9.533  68.128  1.00  0.00    -0.102 A  
HETATM   13  C   UNL     1      -8.578   8.437  68.869  1.00  0.00    -0.135 A  
HETATM   14  C   UNL     1      -7.576   7.551  69.493  1.00  0.00    -0.095 A  
HETATM   15  C   UNL     1      -7.666   6.947  70.690  1.00  0.00    -0.096 A  
HETATM   16  C   UNL     1      -8.788   7.041  71.644  1.00  0.00    -0.130 A  
HETATM   17  C   UNL     1      -8.496   7.027  73.015  1.00  0.00    -0.131 A  
HETATM   18  C   UNL     1      -9.519   7.110  73.965  1.00  0.00    -0.303 A  
HETATM   19  C   UNL     1     -10.846   7.209  73.560  1.00  0.00    -0.296 A  
HETATM   20  C   UNL     1     -11.155   7.210  72.201  1.00  0.00    -0.282 A  
HETATM   21  C   UNL     1     -10.136   7.101  71.241  1.00  0.00    -0.196 A  
ENDBRANCH   6   7
ENDBRANCH   5   6
ENDBRANCH   4   5
ENDBRANCH   2   4
TORSDOF 4
ENDMDL
MODEL      186
REMARK 921   NORMALIZED FREE ENERGY PREDICTED BY IDOCK:   -3.11 KCAL/MOL
REMARK 922        TOTAL FREE ENERGY PREDICTED BY IDOCK:   -4.29 KCAL/MOL
REMARK 923 INTER-LIGAND FREE ENERGY PREDICTED BY IDOCK:   -3.73 KCAL/MOL
REMARK 924 INTRA-LIGAND FREE ENERGY PREDICTED BY IDOCK:   -0.57 KCAL/MOL
REMARK 927      BINDING AFFINITY PREDICTED BY RF-SCORE:    0.00 PKD
ROOT
HETATM    1  C   UNL     1      -5.792  11.734  70.123  1.00  0.00    -0.156 C  
HETATM    2  N   UNL     1      -6.914  11.537  69.203  1.00  0.00    -0.112 NA 
HETATM    3  C   UNL     1      -7.244  12.802  68.545  1.00  0.00    -0.114 C  
ENDROOT
BRANCH   2   4
HETATM    4  C   UNL     1      -6.605  10.460  68.237  1.00  0.00    -0.060 C  
BRANCH   4   5
HETATM    5  C   UNL     1      -7.810   9.556  67.927  1.00  0.00    -0.091 C  
BRANCH   5   6
HETATM    6  C   UNL     1      -8.701   9.302  69.123  1.00  0.00    -0.139 C  
BRANCH   6   7
HETATM    7  C   UNL     1      -8.966   8.103  69.686  1.00  0.00    -0.154 A  
HETATM    8  C   UNL     1      -8.070   6.953  69.414  1.00  0.00    -0.127 A  
HETATM    9  C   UNL     1      -6.758   6.955  69.908  1.00  0.00    -0.049 A  
HETATM   10  C   UNL     1      -5.948   5.830  69.764  1.00  0.00    -0.025 A  
HETATM   11  C   UNL     1      -6.435   4.701  69.112  1.00  0.00    -0.039 A  
HETATM   12  C   UNL     1      -7.733   4.697  68.596  1.00  0.00    -0.072 A  
HETATM   13  C   UNL     1      -8.572   5.809  68.758  1.00  0.00    -0.109 A  
HETATM   14  C   UNL     1      -9.933   5.734  68.191  1.00  0.00    -0.181 A  
HETATM   15  C   UNL     1     -11.059   6.236  68.724  1.00  0.00    -0.424 A  
HETATM   16  C   UNL     1     -11.181   6.971  69.997  1.00  0.00    -0.310 A  
HETATM   17  C   UNL     1     -12.342   6.789  70.761  1.00  0.00    -0.289 A  
HETATM   18  C   UNL     1     -12.513   7.461  71.975  1.00  0.00    -0.280 A  
HETATM   19  C   UNL     1     -11.529   8.325  72.442  1.00  0.00    -0.463 A  
HETATM   20  C   UNL     1     -10.375   8.530  71.690  1.00  0.00    -0.333 A  
HETATM   21  C   UNL     1     -10.206   7.878  70.458  1.00  0.00    -0.198 A  
ENDBRANCH   6   7
ENDBRANCH   5   6
ENDBRANCH   4   5
ENDBRANCH   2   4
TORSDOF 4
ENDMDL
MODEL      187
REMARK 921   NORMALIZED FREE ENERGY PREDICTED BY IDOCK:   -3.08 KCAL/MOL
REMARK 922        TOTAL FREE ENERGY PREDICTED BY IDOCK:   -4.25 KCAL/MOL
REMARK 923 INTER-LIGAND FREE ENERGY PREDICTED BY IDOCK:   -4.04 KCAL/MOL
REMARK 924 INTRA-LIGAND FREE ENERGY PREDICTED BY IDOCK:   -0.21 KCAL/MOL
REMARK 927      BINDING AFFINITY PREDICTED BY RF-SCORE:    0.00 PKD
ROOT
HETATM    1  C   UNL     1      -9.943   9.765  67.868  1.00  0.00    -0.163 C  
HETATM    2  N   UNL     1     -10.259   9.011  66.654  1.00  0.00    -0.275 NA 
HETATM    3  C   UNL     1      -9.463   9.517  65.534  1.00  0.00    -0.268 C  
ENDROOT
BRANCH   2   4
HETATM    4  C   UNL     1     -10.059   7.563  66.881  1.00  0.00    -0.266 C  
BRANCH   4   5
HETATM    5  C   UNL     1     -11.310   6.854  67.429  1.00  0.00    -0.024 C  
BRANCH   5   6
HETATM    6  C   UNL     1     -11.000   5.788  68.457  1.00  0.00    -0.174 C  
BRANCH   6   7
HETATM    7  C   UNL     1     -10.028   5.835  69.394  1.00  0.00    -0.244 A  
HETATM    8  C   UNL     1      -8.744   5.133  69.151  1.00  0.00    -0.103 A  
HETATM    9  C   UNL     1      -7.875   5.589  68.150  1.00  0.00    -0.092 A  
HETATM   10  C   UNL     1      -6.614   5.014  67.994  1.00  0.00    -0.050 A  
HETATM   11  C   UNL     1      -6.218   3.970  68.826  1.00  0.00    -0.032 A  
HETATM   12  C   UNL     1      -7.085   3.494  69.812  1.00  0.00    -0.041 A  
HETATM   13  C   UNL     1      -8.345   4.080  70.002  1.00  0.00    -0.077 A  
HETATM   14  C   UNL     1      -9.208   3.529  71.065  1.00  0.00    -0.195 A  
HETATM   15  C   UNL     1     -10.028   4.216  71.878  1.00  0.00    -0.253 A  
HETATM   16  C   UNL     1     -10.242   5.675  71.886  1.00  0.00    -0.244 A  
HETATM   17  C   UNL     1     -10.473   6.306  73.116  1.00  0.00    -0.259 A  
HETATM   18  C   UNL     1     -10.685   7.686  73.185  1.00  0.00    -0.445 A  
HETATM   19  C   UNL     1     -10.669   8.456  72.027  1.00  0.00    -0.387 A  
HETATM   20  C   UNL     1     -10.454   7.845  70.794  1.00  0.00    -0.218 A  
HETATM   21  C   UNL     1     -10.266   6.456  70.713  1.00  0.00    -0.228 A  
ENDBRANCH   6   7
ENDBRANCH   5   6
ENDBRANCH   4   5
ENDBRANCH   2   4
TORSDOF 4
ENDMDL
MODEL      188
REMARK 921   NORMALIZED FREE ENERGY PREDICTED BY IDOCK:   -3.06 KCAL/MOL
REMARK 922        TOTAL FREE ENERGY PREDICTED BY IDOCK:   -4.23 KCAL/MOL
REMARK 923 INTER-LIGAND FREE ENERGY PREDICTED BY IDOCK:   -3.99 KCAL/MOL
REMARK 924 INTRA-LIGAND FREE ENERGY PREDICTED BY IDOCK:   -0.24 KCAL/MOL
REMARK 927      BINDING AFFINITY PREDICTED BY RF-SCORE:    0.00 PKD
ROOT
HETATM    1  C   UNL     1     -11.742  12.495  63.479  1.00  0.00    -0.518 C  
HETATM    2  N   UNL     1     -11.236  12.624  64.846  1.00  0.00    -0.288 NA 
HETATM    3  C   UNL     1     -12.303  13.100  65.728  1.00  0.00    -0.435 C  
ENDROOT
BRANCH   2   4
HETATM    4  C   UNL     1     -10.653  11.343  65.303  1.00  0.00    -0.277 C  
BRANCH   4   5
HETATM    5  C   UNL     1     -10.789  11.117  66.818  1.00  0.00    -0.322 C  
BRANCH   5   6
HETATM    6  C   UNL     1     -10.429   9.715  67.256  1.00  0.00    -0.323 C  
BRANCH   6   7
HETATM    7  C   UNL     1      -9.191   9.257  67.546  1.00  0.00    -0.140 A  
HETATM    8  C   UNL     1      -8.854   7.839  67.272  1.00  0.00    -0.130 A  
HETATM    9  C   UNL     1      -8.773   7.380  65.950  1.00  0.00    -0.161 A  
HETATM   10  C   UNL     1      -8.338   6.084  65.678  1.00  0.00    -0.145 A  
HETATM   11  C   UNL     1      -7.996   5.231  66.724  1.00  0.00    -0.104 A  
HETATM   12  C   UNL     1      -8.095   5.670  68.046  1.00  0.00    -0.097 A  
HETATM   13  C   UNL     1      -8.502   6.981  68.336  1.00  0.00    -0.123 A  
HETATM   14  C   UNL     1      -8.581   7.379  69.756  1.00  0.00    -0.140 A  
HETATM   15  C   UNL     1      -8.263   8.576  70.278  1.00  0.00    -0.115 A  
HETATM   16  C   UNL     1      -7.762   9.753  69.544  1.00  0.00    -0.120 A  
HETATM   17  C   UNL     1      -6.830  10.585  70.180  1.00  0.00    -0.145 A  
HETATM   18  C   UNL     1      -6.323  11.717  69.534  1.00  0.00    -0.122 A  
HETATM   19  C   UNL     1      -6.739  12.034  68.246  1.00  0.00    -0.061 A  
HETATM   20  C   UNL     1      -7.675  11.227  67.604  1.00  0.00    -0.115 A  
HETATM   21  C   UNL     1      -8.209  10.103  68.254  1.00  0.00    -0.110 A  
ENDBRANCH   6   7
ENDBRANCH   5   6
ENDBRANCH   4   5
ENDBRANCH   2   4
TORSDOF 4
ENDMDL
MODEL      189
REMARK 921   NORMALIZED FREE ENERGY PREDICTED BY IDOCK:   -3.05 KCAL/MOL
REMARK 922        TOTAL FREE ENERGY PREDICTED BY IDOCK:   -4.22 KCAL/MOL
REMARK 923 INTER-LIGAND FREE ENERGY PREDICTED BY IDOCK:   -3.65 KCAL/MOL
REMARK 924 INTRA-LIGAND FREE ENERGY PREDICTED BY IDOCK:   -0.57 KCAL/MOL
REMARK 927      BINDING AFFINITY PREDICTED BY RF-SCORE:    0.00 PKD
ROOT
HETATM    1  C   UNL     1      -9.617  10.413  63.509  1.00  0.00    -0.310 C  
HETATM    2  N   UNL     1      -8.829   9.363  64.157  1.00  0.00    -0.208 NA 
HETATM    3  C   UNL     1      -7.453   9.397  63.659  1.00  0.00    -0.111 C  
ENDROOT
BRANCH   2   4
HETATM    4  C   UNL     1      -8.902   9.499  65.628  1.00  0.00    -0.161 C  
BRANCH   4   5
HETATM    5  C   UNL     1      -8.630   8.183  66.376  1.00  0.00    -0.150 C  
BRANCH   5   6
HETATM    6  C   UNL     1      -9.656   7.871  67.444  1.00  0.00    -0.195 C  
BRANCH   6   7
HETATM    7  C   UNL     1      -9.493   7.035  68.492  1.00  0.00    -0.134 A  
HETATM    8  C   UNL     1      -9.671   7.549  69.872  1.00  0.00    -0.171 A  
HETATM    9  C   UNL     1     -10.940   7.945  70.314  1.00  0.00    -0.249 A  
HETATM   10  C   UNL     1     -11.141   8.314  71.644  1.00  0.00    -0.326 A  
HETATM   11  C   UNL     1     -10.074   8.307  72.537  1.00  0.00    -0.376 A  
HETATM   12  C   UNL     1      -8.800   7.936  72.101  1.00  0.00    -0.196 A  
HETATM   13  C   UNL     1      -8.586   7.533  70.774  1.00  0.00    -0.135 A  
HETATM   14  C   UNL     1      -7.214   7.151  70.383  1.00  0.00    -0.070 A  
HETATM   15  C   UNL     1      -6.859   6.166  69.541  1.00  0.00    -0.065 A  
HETATM   16  C   UNL     1      -7.766   5.249  68.824  1.00  0.00    -0.083 A  
HETATM   17  C   UNL     1      -7.347   3.928  68.618  1.00  0.00    -0.055 A  
HETATM   18  C   UNL     1      -8.162   3.015  67.942  1.00  0.00    -0.088 A  
HETATM   19  C   UNL     1      -9.407   3.409  67.463  1.00  0.00    -0.248 A  
HETATM   20  C   UNL     1      -9.834   4.722  67.646  1.00  0.00    -0.201 A  
HETATM   21  C   UNL     1      -9.010   5.651  68.301  1.00  0.00    -0.114 A  
ENDBRANCH   6   7
ENDBRANCH   5   6
ENDBRANCH   4   5
ENDBRANCH   2   4
TORSDOF 4
ENDMDL
MODEL      190
REMARK 921   NORMALIZED FREE ENERGY PREDICTED BY IDOCK:   -3.02 KCAL/MOL
REMARK 922        TOTAL FREE ENERGY PREDICTED BY IDOCK:   -4.18 KCAL/MOL
REMARK 923 INTER-LIGAND FREE ENERGY PREDICTED BY IDOCK:   -3.63 KCAL/MOL
REMARK 924 INTRA-LIGAND FREE ENERGY PREDICTED BY IDOCK:   -0.54 KCAL/MOL
REMARK 927      BINDING AFFINITY PREDICTED BY RF-SCORE:    0.00 PKD
ROOT
HETATM    1  C   UNL     1      -7.457  11.366  69.140  1.00  0.00    -0.057 C  
HETATM    2  N   UNL     1      -6.698  11.580  67.907  1.00  0.00    -0.062 NA 
HETATM    3  C   UNL     1      -6.116  12.924  67.910  1.00  0.00    -0.125 C  
ENDROOT
BRANCH   2   4
HETATM    4  C   UNL     1      -5.678  10.522  67.740  1.00  0.00    -0.044 C  
BRANCH   4   5
HETATM    5  C   UNL     1      -5.807   9.755  66.413  1.00  0.00    -0.054 C  
BRANCH   5   6
HETATM    6  C   UNL     1      -6.538   8.438  66.544  1.00  0.00    -0.056 C  
BRANCH   6   7
HETATM    7  C   UNL     1      -7.802   8.177  66.142  1.00  0.00    -0.092 A  
HETATM    8  C   UNL     1      -8.524   9.171  65.312  1.00  0.00    -0.169 A  
HETATM    9  C   UNL     1      -8.102   9.428  64.000  1.00  0.00    -0.150 A  
HETATM   10  C   UNL     1      -8.844  10.268  63.171  1.00  0.00    -0.226 A  
HETATM   11  C   UNL     1     -10.004  10.870  63.649  1.00  0.00    -0.415 A  
HETATM   12  C   UNL     1     -10.422  10.639  64.962  1.00  0.00    -0.278 A  
HETATM   13  C   UNL     1      -9.703   9.774  65.801  1.00  0.00    -0.340 A  
HETATM   14  C   UNL     1     -10.204   9.573  67.175  1.00  0.00    -0.305 A  
HETATM   15  C   UNL     1     -10.190   8.429  67.881  1.00  0.00    -0.273 A  
HETATM   16  C   UNL     1      -9.673   7.123  67.432  1.00  0.00    -0.186 A  
HETATM   17  C   UNL     1     -10.331   5.964  67.867  1.00  0.00    -0.262 A  
HETATM   18  C   UNL     1      -9.885   4.697  67.477  1.00  0.00    -0.200 A  
HETATM   19  C   UNL     1      -8.776   4.570  66.647  1.00  0.00    -0.111 A  
HETATM   20  C   UNL     1      -8.102   5.710  66.217  1.00  0.00    -0.107 A  
HETATM   21  C   UNL     1      -8.528   6.985  66.624  1.00  0.00    -0.121 A  
ENDBRANCH   6   7
ENDBRANCH   5   6
ENDBRANCH   4   5
ENDBRANCH   2   4
TORSDOF 4
ENDMDL
MODEL      191
REMARK 921   NORMALIZED FREE ENERGY PREDICTED BY IDOCK:   -3.00 KCAL/MOL
REMARK 922        TOTAL FREE ENERGY PREDICTED BY IDOCK:   -4.15 KCAL/MOL
REMARK 923 INTER-LIGAND FREE ENERGY PREDICTED BY IDOCK:   -3.52 KCAL/MOL
REMARK 924 INTRA-LIGAND FREE ENERGY PREDICTED BY IDOCK:   -0.64 KCAL/MOL
REMARK 927      BINDING AFFINITY PREDICTED BY RF-SCORE:    0.00 PKD
ROOT
HETATM    1  C   UNL     1      -8.304   4.920  65.253  1.00  0.00    -0.131 C  
HETATM    2  N   UNL     1      -7.961   4.189  66.474  1.00  0.00    -0.097 NA 
HETATM    3  C   UNL     1      -6.523   4.290  66.726  1.00  0.00    -0.041 C  
ENDROOT
BRANCH   2   4
HETATM    4  C   UNL     1      -8.771   4.678  67.611  1.00  0.00    -0.104 C  
BRANCH   4   5
HETATM    5  C   UNL     1      -8.343   4.085  68.964  1.00  0.00    -0.086 C  
BRANCH   5   6
HETATM    6  C   UNL     1      -7.721   5.097  69.900  1.00  0.00    -0.068 C  
BRANCH   6   7
HETATM    7  C   UNL     1      -8.376   6.042  70.611  1.00  0.00    -0.125 A  
HETATM    8  C   UNL     1      -9.312   5.631  71.685  1.00  0.00    -0.164 A  
HETATM    9  C   UNL     1      -8.821   5.021  72.847  1.00  0.00    -0.117 A  
HETATM   10  C   UNL     1      -9.675   4.741  73.913  1.00  0.00    -0.153 A  
HETATM   11  C   UNL     1     -11.028   5.054  73.821  1.00  0.00    -0.336 A  
HETATM   12  C   UNL     1     -11.532   5.642  72.658  1.00  0.00    -0.339 A  
HETATM   13  C   UNL     1     -10.682   5.957  71.588  1.00  0.00    -0.308 A  
HETATM   14  C   UNL     1     -11.283   6.580  70.392  1.00  0.00    -0.414 A  
HETATM   15  C   UNL     1     -10.738   7.535  69.619  1.00  0.00    -0.236 A  
HETATM   16  C   UNL     1      -9.420   8.172  69.801  1.00  0.00    -0.159 A  
HETATM   17  C   UNL     1      -9.287   9.527  69.470  1.00  0.00    -0.199 A  
HETATM   18  C   UNL     1      -8.061  10.183  69.619  1.00  0.00    -0.178 A  
HETATM   19  C   UNL     1      -6.952   9.495  70.100  1.00  0.00    -0.092 A  
HETATM   20  C   UNL     1      -7.063   8.144  70.421  1.00  0.00    -0.041 A  
HETATM   21  C   UNL     1      -8.283   7.472  70.251  1.00  0.00    -0.128 A  
ENDBRANCH   6   7
ENDBRANCH   5   6
ENDBRANCH   4   5
ENDBRANCH   2   4
TORSDOF 4
ENDMDL
MODEL      192
REMARK 921   NORMALIZED FREE ENERGY PREDICTED BY IDOCK:   -3.00 KCAL/MOL
REMARK 922        TOTAL FREE ENERGY PREDICTED BY IDOCK:   -4.15 KCAL/MOL
REMARK 923 INTER-LIGAND FREE ENERGY PREDICTED BY IDOCK:   -3.60 KCAL/MOL
REMARK 924 INTRA-LIGAND FREE ENERGY PREDICTED BY IDOCK:   -0.55 KCAL/MOL
REMARK 927      BINDING AFFINITY PREDICTED BY RF-SCORE:    0.00 PKD
ROOT
HETATM    1  C   UNL     1     -10.977   6.459  67.013  1.00  0.00    -0.389 C  
HETATM    2  N   UNL     1      -9.867   7.344  66.660  1.00  0.00    -0.209 NA 
HETATM    3  C   UNL     1     -10.122   8.691  67.175  1.00  0.00    -0.261 C  
ENDROOT
BRANCH   2   4
HETATM    4  C   UNL     1      -8.587   6.785  67.147  1.00  0.00    -0.120 C  
BRANCH   4   5
HETATM    5  C   UNL     1      -8.764   5.744  68.266  1.00  0.00    -0.111 C  
BRANCH   5   6
HETATM    6  C   UNL     1      -8.079   6.126  69.560  1.00  0.00    -0.112 C  
BRANCH   6   7
HETATM    7  C   UNL     1      -8.263   7.266  70.260  1.00  0.00    -0.133 A  
HETATM    8  C   UNL     1      -7.168   8.263  70.336  1.00  0.00    -0.044 A  
HETATM    9  C   UNL     1      -6.781   8.967  69.187  1.00  0.00    -0.051 A  
HETATM   10  C   UNL     1      -5.839   9.991  69.271  1.00  0.00    -0.037 A  
HETATM   11  C   UNL     1      -5.264  10.309  70.498  1.00  0.00    -0.053 A  
HETATM   12  C   UNL     1      -5.626   9.599  71.644  1.00  0.00    -0.056 A  
HETATM   13  C   UNL     1      -6.594   8.585  71.584  1.00  0.00    -0.073 A  
HETATM   14  C   UNL     1      -6.930   7.878  72.835  1.00  0.00    -0.097 A  
HETATM   15  C   UNL     1      -8.143   7.444  73.218  1.00  0.00    -0.141 A  
HETATM   16  C   UNL     1      -9.406   7.585  72.468  1.00  0.00    -0.200 A  
HETATM   17  C   UNL     1     -10.588   7.788  73.193  1.00  0.00    -0.415 A  
HETATM   18  C   UNL     1     -11.816   7.925  72.536  1.00  0.00    -0.390 A  
HETATM   19  C   UNL     1     -11.879   7.860  71.148  1.00  0.00    -0.307 A  
HETATM   20  C   UNL     1     -10.716   7.644  70.413  1.00  0.00    -0.241 A  
HETATM   21  C   UNL     1      -9.483   7.481  71.066  1.00  0.00    -0.162 A  
ENDBRANCH   6   7
ENDBRANCH   5   6
ENDBRANCH   4   5
ENDBRANCH   2   4
TORSDOF 4
ENDMDL
MODEL      193
REMARK 921   NORMALIZED FREE ENERGY PREDICTED BY IDOCK:   -2.98 KCAL/MOL
REMARK 922        TOTAL FREE ENERGY PREDICTED BY IDOCK:   -4.13 KCAL/MOL
REMARK 923 INTER-LIGAND FREE ENERGY PREDICTED BY IDOCK:   -3.36 KCAL/MOL
REMARK 924 INTRA-LIGAND FREE ENERGY PREDICTED BY IDOCK:   -0.78 KCAL/MOL
REMARK 927      BINDING AFFINITY PREDICTED BY RF-SCORE:    0.00 PKD
ROOT
HETATM    1  C   UNL     1      -5.507   5.458  69.372  1.00  0.00    -0.007 C  
HETATM    2  N   UNL     1      -6.862   5.993  69.227  1.00  0.00    -0.060 NA 
HETATM    3  C   UNL     1      -7.821   5.098  69.878  1.00  0.00    -0.075 C  
ENDROOT
BRANCH   2   4
HETATM    4  C   UNL     1      -6.929   7.374  69.753  1.00  0.00    -0.056 C  
BRANCH   4   5
HETATM    5  C   UNL     1      -7.197   8.428  68.666  1.00  0.00    -0.080 C  
BRANCH   5   6
HETATM    6  C   UNL     1      -8.656   8.549  68.287  1.00  0.00    -0.139 C  
BRANCH   6   7
HETATM    7  C   UNL     1      -9.183   8.375  67.055  1.00  0.00    -0.186 A  
HETATM    8  C   UNL     1      -9.248   7.012  66.474  1.00  0.00    -0.198 A  
HETATM    9  C   UNL     1     -10.101   6.051  67.034  1.00  0.00    -0.220 A  
HETATM   10  C   UNL     1     -10.261   4.807  66.425  1.00  0.00    -0.308 A  
HETATM   11  C   UNL     1      -9.559   4.507  65.260  1.00  0.00    -0.179 A  
HETATM   12  C   UNL     1      -8.690   5.449  64.706  1.00  0.00    -0.075 A  
HETATM   13  C   UNL     1      -8.539   6.716  65.290  1.00  0.00    -0.027 A  
HETATM   14  C   UNL     1      -7.605   7.663  64.649  1.00  0.00    -0.111 A  
HETATM   15  C   UNL     1      -7.759   8.993  64.529  1.00  0.00    -0.116 A  
HETATM   16  C   UNL     1      -8.899   9.796  65.010  1.00  0.00    -0.224 A  
HETATM   17  C   UNL     1      -9.301  10.901  64.248  1.00  0.00    -0.259 A  
HETATM   18  C   UNL     1     -10.373  11.701  64.656  1.00  0.00    -0.341 A  
HETATM   19  C   UNL     1     -11.059  11.407  65.830  1.00  0.00    -0.225 A  
HETATM   20  C   UNL     1     -10.664  10.321  66.608  1.00  0.00    -0.183 A  
HETATM   21  C   UNL     1      -9.573   9.528  66.218  1.00  0.00    -0.287 A  
ENDBRANCH   6   7
ENDBRANCH   5   6
ENDBRANCH   4   5
ENDBRANCH   2   4
TORSDOF 4
ENDMDL
MODEL      194
REMARK 921   NORMALIZED FREE ENERGY PREDICTED BY IDOCK:   -2.94 KCAL/MOL
REMARK 922        TOTAL FREE ENERGY PREDICTED BY IDOCK:   -4.08 KCAL/MOL
REMARK 923 INTER-LIGAND FREE ENERGY PREDICTED BY IDOCK:   -3.94 KCAL/MOL
REMARK 924 INTRA-LIGAND FREE ENERGY PREDICTED BY IDOCK:   -0.14 KCAL/MOL
REMARK 927      BINDING AFFINITY PREDICTED BY RF-SCORE:    0.00 PKD
ROOT
HETATM    1  C   UNL     1     -12.238  12.209  65.949  1.00  0.00     0.136 C  
HETATM    2  N   UNL     1     -10.840  12.480  65.611  1.00  0.00    -0.270 NA 
HETATM    3  C   UNL     1     -10.115  11.219  65.447  1.00  0.00    -0.264 C  
ENDROOT
BRANCH   2   4
HETATM    4  C   UNL     1     -10.758  13.340  64.411  1.00  0.00    -0.415 C  
BRANCH   4   5
HETATM    5  C   UNL     1     -10.920  14.838  64.722  1.00  0.00    -0.393 C  
BRANCH   5   6
HETATM    6  C   UNL     1      -9.658  15.487  65.245  1.00  0.00    -0.002 C  
BRANCH   6   7
HETATM    7  C   UNL     1      -9.236  15.505  66.528  1.00  0.00    -0.324 A  
HETATM    8  C   UNL     1      -8.006  16.253  66.883  1.00  0.00    -0.278 A  
HETATM    9  C   UNL     1      -7.990  17.653  66.802  1.00  0.00    -0.268 A  
HETATM   10  C   UNL     1      -6.882  18.373  67.249  1.00  0.00    -0.208 A  
HETATM   11  C   UNL     1      -5.777  17.701  67.764  1.00  0.00    -0.143 A  
HETATM   12  C   UNL     1      -5.774  16.306  67.828  1.00  0.00    -0.158 A  
HETATM   13  C   UNL     1      -6.891  15.567  67.411  1.00  0.00    -0.224 A  
HETATM   14  C   UNL     1      -6.820  14.096  67.510  1.00  0.00    -0.151 A  
HETATM   15  C   UNL     1      -7.817  13.260  67.847  1.00  0.00    -0.152 A  
HETATM   16  C   UNL     1      -9.201  13.632  68.194  1.00  0.00    -0.204 A  
HETATM   17  C   UNL     1      -9.867  12.877  69.169  1.00  0.00     0.445 A  
HETATM   18  C   UNL     1     -11.181  13.182  69.537  1.00  0.00    -0.151 A  
HETATM   19  C   UNL     1     -11.848  14.244  68.937  1.00  0.00    -0.372 A  
HETATM   20  C   UNL     1     -11.207  14.997  67.956  1.00  0.00    -0.324 A  
HETATM   21  C   UNL     1      -9.896  14.682  67.562  1.00  0.00    -0.218 A  
ENDBRANCH   6   7
ENDBRANCH   5   6
ENDBRANCH   4   5
ENDBRANCH   2   4
TORSDOF 4
ENDMDL
MODEL      195
REMARK 921   NORMALIZED FREE ENERGY PREDICTED BY IDOCK:   -2.91 KCAL/MOL
REMARK 922        TOTAL FREE ENERGY PREDICTED BY IDOCK:   -4.04 KCAL/MOL
REMARK 923 INTER-LIGAND FREE ENERGY PREDICTED BY IDOCK:   -3.39 KCAL/MOL
REMARK 924 INTRA-LIGAND FREE ENERGY PREDICTED BY IDOCK:   -0.65 KCAL/MOL
REMARK 927      BINDING AFFINITY PREDICTED BY RF-SCORE:    0.00 PKD
ROOT
HETATM    1  C   UNL     1      -9.763   2.909  64.330  1.00  0.00    -0.149 C  
HETATM    2  N   UNL     1      -8.830   3.658  65.172  1.00  0.00    -0.116 NA 
HETATM    3  C   UNL     1      -7.860   2.743  65.776  1.00  0.00    -0.081 C  
ENDROOT
BRANCH   2   4
HETATM    4  C   UNL     1      -8.181   4.734  64.391  1.00  0.00    -0.116 C  
BRANCH   4   5
HETATM    5  C   UNL     1      -8.431   6.139  64.964  1.00  0.00    -0.071 C  
BRANCH   5   6
HETATM    6  C   UNL     1      -9.428   6.161  66.102  1.00  0.00    -0.100 C  
BRANCH   6   7
HETATM    7  C   UNL     1      -9.492   7.073  67.096  1.00  0.00    -0.176 A  
HETATM    8  C   UNL     1      -9.300   8.510  66.784  1.00  0.00    -0.232 A  
HETATM    9  C   UNL     1     -10.256   9.194  66.020  1.00  0.00    -0.093 A  
HETATM   10  C   UNL     1     -10.149  10.571  65.823  1.00  0.00    -0.329 A  
HETATM   11  C   UNL     1      -9.078  11.271  66.373  1.00  0.00    -0.201 A  
HETATM   12  C   UNL     1      -8.109  10.594  67.116  1.00  0.00    -0.121 A  
HETATM   13  C   UNL     1      -8.217   9.215  67.349  1.00  0.00    -0.107 A  
HETATM   14  C   UNL     1      -7.157   8.566  68.146  1.00  0.00    -0.085 A  
HETATM   15  C   UNL     1      -7.312   7.576  69.042  1.00  0.00    -0.087 A  
HETATM   16  C   UNL     1      -8.578   6.924  69.425  1.00  0.00    -0.133 A  
HETATM   17  C   UNL     1      -8.736   6.512  70.755  1.00  0.00    -0.143 A  
HETATM   18  C   UNL     1      -9.914   5.885  71.176  1.00  0.00    -0.236 A  
HETATM   19  C   UNL     1     -10.949   5.662  70.274  1.00  0.00    -0.287 A  
HETATM   20  C   UNL     1     -10.803   6.051  68.945  1.00  0.00    -0.400 A  
HETATM   21  C   UNL     1      -9.615   6.658  68.509  1.00  0.00    -0.125 A  
ENDBRANCH   6   7
ENDBRANCH   5   6
ENDBRANCH   4   5
ENDBRANCH   2   4
TORSDOF 4
ENDMDL
MODEL      196
REMARK 921   NORMALIZED FREE ENERGY PREDICTED BY IDOCK:   -2.91 KCAL/MOL
REMARK 922        TOTAL FREE ENERGY PREDICTED BY IDOCK:   -4.04 KCAL/MOL
REMARK 923 INTER-LIGAND FREE ENERGY PREDICTED BY IDOCK:   -3.64 KCAL/MOL
REMARK 924 INTRA-LIGAND FREE ENERGY PREDICTED BY IDOCK:   -0.40 KCAL/MOL
REMARK 927      BINDING AFFINITY PREDICTED BY RF-SCORE:    0.00 PKD
ROOT
HETATM    1  C   UNL     1      -8.863   8.124  73.421  1.00  0.00    -0.253 C  
HETATM    2  N   UNL     1      -7.716   8.695  72.713  1.00  0.00    -0.371 NA 
HETATM    3  C   UNL     1      -6.471   8.251  73.344  1.00  0.00    -0.111 C  
ENDROOT
BRANCH   2   4
HETATM    4  C   UNL     1      -7.775   8.352  71.275  1.00  0.00    -0.098 C  
BRANCH   4   5
HETATM    5  C   UNL     1      -7.624   9.571  70.350  1.00  0.00    -0.169 C  
BRANCH   5   6
HETATM    6  C   UNL     1      -7.086   9.228  68.979  1.00  0.00    -0.067 C  
BRANCH   6   7
HETATM    7  C   UNL     1      -7.736   8.552  68.007  1.00  0.00    -0.103 A  
HETATM    8  C   UNL     1      -8.036   9.229  66.722  1.00  0.00    -0.112 A  
HETATM    9  C   UNL     1      -6.992   9.580  65.854  1.00  0.00    -0.091 A  
HETATM   10  C   UNL     1      -7.269  10.104  64.592  1.00  0.00    -0.124 A  
HETATM   11  C   UNL     1      -8.589  10.297  64.193  1.00  0.00    -0.198 A  
HETATM   12  C   UNL     1      -9.635   9.972  65.058  1.00  0.00    -0.362 A  
HETATM   13  C   UNL     1      -9.376   9.416  66.320  1.00  0.00    -0.253 A  
HETATM   14  C   UNL     1     -10.531   9.093  67.181  1.00  0.00    -0.325 A  
HETATM   15  C   UNL     1     -10.656   8.037  68.002  1.00  0.00    -0.190 A  
HETATM   16  C   UNL     1      -9.665   6.966  68.219  1.00  0.00    -0.132 A  
HETATM   17  C   UNL     1     -10.133   5.665  68.451  1.00  0.00    -0.224 A  
HETATM   18  C   UNL     1      -9.240   4.611  68.666  1.00  0.00    -0.173 A  
HETATM   19  C   UNL     1      -7.869   4.840  68.652  1.00  0.00    -0.077 A  
HETATM   20  C   UNL     1      -7.386   6.129  68.437  1.00  0.00    -0.086 A  
HETATM   21  C   UNL     1      -8.276   7.198  68.245  1.00  0.00    -0.124 A  
ENDBRANCH   6   7
ENDBRANCH   5   6
ENDBRANCH   4   5
ENDBRANCH   2   4
TORSDOF 4
ENDMDL
MODEL      197
REMARK 921   NORMALIZED FREE ENERGY PREDICTED BY IDOCK:   -2.91 KCAL/MOL
REMARK 922        TOTAL FREE ENERGY PREDICTED BY IDOCK:   -4.04 KCAL/MOL
REMARK 923 INTER-LIGAND FREE ENERGY PREDICTED BY IDOCK:   -3.66 KCAL/MOL
REMARK 924 INTRA-LIGAND FREE ENERGY PREDICTED BY IDOCK:   -0.38 KCAL/MOL
REMARK 927      BINDING AFFINITY PREDICTED BY RF-SCORE:    0.00 PKD
ROOT
HETATM    1  C   UNL     1     -11.769   8.435  72.723  1.00  0.00    -0.174 C  
HETATM    2  N   UNL     1     -12.278   8.322  71.355  1.00  0.00    -0.297 NA 
HETATM    3  C   UNL     1     -11.607   9.296  70.493  1.00  0.00    -0.217 C  
ENDROOT
BRANCH   2   4
HETATM    4  C   UNL     1     -12.130   6.935  70.864  1.00  0.00    -0.373 C  
BRANCH   4   5
HETATM    5  C   UNL     1     -10.685   6.575  70.481  1.00  0.00    -0.305 C  
BRANCH   5   6
HETATM    6  C   UNL     1     -10.520   6.201  69.025  1.00  0.00    -0.305 C  
BRANCH   6   7
HETATM    7  C   UNL     1      -9.410   5.689  68.448  1.00  0.00    -0.133 A  
HETATM    8  C   UNL     1      -8.320   6.600  68.024  1.00  0.00    -0.117 A  
HETATM    9  C   UNL     1      -7.568   7.288  68.986  1.00  0.00    -0.099 A  
HETATM   10  C   UNL     1      -6.464   8.051  68.607  1.00  0.00    -0.053 A  
HETATM   11  C   UNL     1      -6.112   8.145  67.263  1.00  0.00    -0.054 A  
HETATM   12  C   UNL     1      -6.868   7.482  66.295  1.00  0.00    -0.061 A  
HETATM   13  C   UNL     1      -7.964   6.687  66.661  1.00  0.00    -0.105 A  
HETATM   14  C   UNL     1      -8.716   6.012  65.585  1.00  0.00    -0.142 A  
HETATM   15  C   UNL     1      -9.263   4.785  65.628  1.00  0.00    -0.152 A  
HETATM   16  C   UNL     1      -9.227   3.843  66.762  1.00  0.00    -0.186 A  
HETATM   17  C   UNL     1      -9.141   2.472  66.484  1.00  0.00    -0.111 A  
HETATM   18  C   UNL     1      -9.107   1.532  67.519  1.00  0.00    -0.162 A  
HETATM   19  C   UNL     1      -9.158   1.948  68.845  1.00  0.00    -0.182 A  
HETATM   20  C   UNL     1      -9.257   3.306  69.140  1.00  0.00    -0.225 A  
HETATM   21  C   UNL     1      -9.318   4.254  68.106  1.00  0.00    -0.204 A  
ENDBRANCH   6   7
ENDBRANCH   5   6
ENDBRANCH   4   5
ENDBRANCH   2   4
TORSDOF 4
ENDMDL
MODEL      198
REMARK 921   NORMALIZED FREE ENERGY PREDICTED BY IDOCK:   -2.89 KCAL/MOL
REMARK 922        TOTAL FREE ENERGY PREDICTED BY IDOCK:   -4.01 KCAL/MOL
REMARK 923 INTER-LIGAND FREE ENERGY PREDICTED BY IDOCK:   -3.51 KCAL/MOL
REMARK 924 INTRA-LIGAND FREE ENERGY PREDICTED BY IDOCK:   -0.50 KCAL/MOL
REMARK 927      BINDING AFFINITY PREDICTED BY RF-SCORE:    0.00 PKD
ROOT
HETATM    1  C   UNL     1      -7.773   3.207  69.389  1.00  0.00    -0.047 C  
HETATM    2  N   UNL     1      -8.199   3.778  68.110  1.00  0.00    -0.083 NA 
HETATM    3  C   UNL     1      -9.215   2.920  67.497  1.00  0.00    -0.193 C  
ENDROOT
BRANCH   2   4
HETATM    4  C   UNL     1      -8.669   5.167  68.298  1.00  0.00    -0.101 C  
BRANCH   4   5
HETATM    5  C   UNL     1      -8.214   5.791  69.628  1.00  0.00    -0.108 C  
BRANCH   5   6
HETATM    6  C   UNL     1      -9.218   6.755  70.220  1.00  0.00    -0.156 C  
BRANCH   6   7
HETATM    7  C   UNL     1      -9.204   8.101  70.104  1.00  0.00    -0.155 A  
HETATM    8  C   UNL     1     -10.458   8.865  70.305  1.00  0.00    -0.239 A  
HETATM    9  C   UNL     1     -11.046   8.927  71.576  1.00  0.00    -0.397 A  
HETATM   10  C   UNL     1     -12.155   9.740  71.802  1.00  0.00    -0.425 A  
HETATM   11  C   UNL     1     -12.697  10.485  70.758  1.00  0.00    -0.471 A  
HETATM   12  C   UNL     1     -12.133  10.413  69.483  1.00  0.00    -0.125 A  
HETATM   13  C   UNL     1     -10.999   9.623  69.244  1.00  0.00    -0.194 A  
HETATM   14  C   UNL     1     -10.454   9.596  67.872  1.00  0.00    -0.296 A  
HETATM   15  C   UNL     1      -9.158   9.550  67.518  1.00  0.00    -0.142 A  
HETATM   16  C   UNL     1      -7.997   9.518  68.426  1.00  0.00    -0.093 A  
HETATM   17  C   UNL     1      -6.828  10.184  68.032  1.00  0.00    -0.071 A  
HETATM   18  C   UNL     1      -5.694  10.185  68.851  1.00  0.00    -0.034 A  
HETATM   19  C   UNL     1      -5.712   9.523  70.074  1.00  0.00    -0.036 A  
HETATM   20  C   UNL     1      -6.860   8.845  70.475  1.00  0.00    -0.054 A  
HETATM   21  C   UNL     1      -7.995   8.817  69.648  1.00  0.00    -0.096 A  
ENDBRANCH   6   7
ENDBRANCH   5   6
ENDBRANCH   4   5
ENDBRANCH   2   4
TORSDOF 4
ENDMDL
MODEL      199
REMARK 921   NORMALIZED FREE ENERGY PREDICTED BY IDOCK:   -2.88 KCAL/MOL
REMARK 922        TOTAL FREE ENERGY PREDICTED BY IDOCK:   -4.01 KCAL/MOL
REMARK 923 INTER-LIGAND FREE ENERGY PREDICTED BY IDOCK:   -3.82 KCAL/MOL
REMARK 924 INTRA-LIGAND FREE ENERGY PREDICTED BY IDOCK:   -0.19 KCAL/MOL
REMARK 927      BINDING AFFINITY PREDICTED BY RF-SCORE:    0.00 PKD
ROOT
HETATM    1  C   UNL     1     -10.764  13.353  68.675  1.00  0.00    -0.255 C  
HETATM    2  N   UNL     1      -9.867  14.290  67.996  1.00  0.00    -0.218 NA 
HETATM    3  C   UNL     1     -10.258  15.666  68.308  1.00  0.00    -0.223 C  
ENDROOT
BRANCH   2   4
HETATM    4  C   UNL     1      -8.460  14.006  68.354  1.00  0.00    -0.166 C  
BRANCH   4   5
HETATM    5  C   UNL     1      -8.128  12.505  68.376  1.00  0.00    -0.136 C  
BRANCH   5   6
HETATM    6  C   UNL     1      -8.015  11.890  66.999  1.00  0.00    -0.158 C  
BRANCH   6   7
HETATM    7  C   UNL     1      -8.634  10.769  66.566  1.00  0.00    -0.150 A  
HETATM    8  C   UNL     1      -8.870   9.653  67.513  1.00  0.00    -0.129 A  
HETATM    9  C   UNL     1      -9.776   9.810  68.571  1.00  0.00    -0.164 A  
HETATM   10  C   UNL     1     -10.097   8.731  69.393  1.00  0.00    -0.203 A  
HETATM   11  C   UNL     1      -9.504   7.490  69.175  1.00  0.00    -0.150 A  
HETATM   12  C   UNL     1      -8.583   7.328  68.138  1.00  0.00    -0.122 A  
HETATM   13  C   UNL     1      -8.270   8.396  67.284  1.00  0.00    -0.112 A  
HETATM   14  C   UNL     1      -7.290   8.152  66.207  1.00  0.00    -0.078 A  
HETATM   15  C   UNL     1      -7.319   8.652  64.959  1.00  0.00    -0.086 A  
HETATM   16  C   UNL     1      -8.341   9.553  64.395  1.00  0.00    -0.174 A  
HETATM   17  C   UNL     1      -8.680   9.408  63.042  1.00  0.00    -0.225 A  
HETATM   18  C   UNL     1      -9.639  10.236  62.451  1.00  0.00    -0.172 A  
HETATM   19  C   UNL     1     -10.274  11.220  63.202  1.00  0.00    -0.367 A  
HETATM   20  C   UNL     1      -9.940  11.388  64.543  1.00  0.00    -0.318 A  
HETATM   21  C   UNL     1      -8.960  10.578  65.138  1.00  0.00    -0.214 A  
ENDBRANCH   6   7
ENDBRANCH   5   6
ENDBRANCH   4   5
ENDBRANCH   2   4
TORSDOF 4
ENDMDL
MODEL      200
REMARK 921   NORMALIZED FREE ENERGY PREDICTED BY IDOCK:   -2.88 KCAL/MOL
REMARK 922        TOTAL FREE ENERGY PREDICTED BY IDOCK:   -4.01 KCAL/MOL
REMARK 923 INTER-LIGAND FREE ENERGY PREDICTED BY IDOCK:   -3.47 KCAL/MOL
REMARK 924 INTRA-LIGAND FREE ENERGY PREDICTED BY IDOCK:   -0.54 KCAL/MOL
REMARK 927      BINDING AFFINITY PREDICTED BY RF-SCORE:    0.00 PKD
ROOT
HETATM    1  C   UNL     1      -8.107  17.677  68.467  1.00  0.00    -0.283 C  
HETATM    2  N   UNL     1      -8.793  16.440  68.090  1.00  0.00    -0.188 NA 
HETATM    3  C   UNL     1      -9.309  16.554  66.725  1.00  0.00    -0.243 C  
ENDROOT
BRANCH   2   4
HETATM    4  C   UNL     1      -7.890  15.280  68.258  1.00  0.00    -0.116 C  
BRANCH   4   5
HETATM    5  C   UNL     1      -8.611  13.925  68.146  1.00  0.00    -0.180 C  
BRANCH   5   6
HETATM    6  C   UNL     1      -7.799  12.865  67.435  1.00  0.00    -0.170 C  
BRANCH   6   7
HETATM    7  C   UNL     1      -8.211  11.619  67.114  1.00  0.00    -0.165 A  
HETATM    8  C   UNL     1      -7.710  10.981  65.873  1.00  0.00    -0.012 A  
HETATM    9  C   UNL     1      -6.360  10.619  65.767  1.00  0.00    -0.117 A  
HETATM   10  C   UNL     1      -5.904   9.910  64.657  1.00  0.00    -0.098 A  
HETATM   11  C   UNL     1      -6.788   9.569  63.637  1.00  0.00    -0.104 A  
HETATM   12  C   UNL     1      -8.131   9.944  63.723  1.00  0.00    -0.151 A  
HETATM   13  C   UNL     1      -8.613  10.633  64.846  1.00  0.00    -0.147 A  
HETATM   14  C   UNL     1     -10.044  10.994  64.870  1.00  0.00    -0.359 A  
HETATM   15  C   UNL     1     -10.860  10.991  65.938  1.00  0.00    -0.183 A  
HETATM   16  C   UNL     1     -10.502  10.622  67.320  1.00  0.00    -0.293 A  
HETATM   17  C   UNL     1     -11.464   9.970  68.104  1.00  0.00     0.055 A  
HETATM   18  C   UNL     1     -11.182   9.599  69.422  1.00  0.00    -0.112 A  
HETATM   19  C   UNL     1      -9.936   9.873  69.976  1.00  0.00    -0.302 A  
HETATM   20  C   UNL     1      -8.973  10.533  69.217  1.00  0.00    -0.148 A  
HETATM   21  C   UNL     1      -9.256  10.932  67.901  1.00  0.00    -0.152 A  
ENDBRANCH   6   7
ENDBRANCH   5   6
ENDBRANCH   4   5
ENDBRANCH   2   4
TORSDOF 4
ENDMDL
MODEL      201
REMARK 921   NORMALIZED FREE ENERGY PREDICTED BY IDOCK:   -2.85 KCAL/MOL
REMARK 922        TOTAL FREE ENERGY PREDICTED BY IDOCK:   -3.97 KCAL/MOL
REMARK 923 INTER-LIGAND FREE ENERGY PREDICTED BY IDOCK:   -3.31 KCAL/MOL
REMARK 924 INTRA-LIGAND FREE ENERGY PREDICTED BY IDOCK:   -0.66 KCAL/MOL
REMARK 927      BINDING AFFINITY PREDICTED BY RF-SCORE:    0.00 PKD
ROOT
HETATM    1  C   UNL     1      -6.869   2.313  70.804  1.00  0.00    -0.032 C  
HETATM    2  N   UNL     1      -6.236   3.042  69.703  1.00  0.00    -0.027 NA 
HETATM    3  C   UNL     1      -6.689   2.497  68.422  1.00  0.00    -0.036 C  
ENDROOT
BRANCH   2   4
HETATM    4  C   UNL     1      -6.500   4.492  69.827  1.00  0.00    -0.032 C  
BRANCH   4   5
HETATM    5  C   UNL     1      -7.321   5.064  68.659  1.00  0.00    -0.062 C  
BRANCH   5   6
HETATM    6  C   UNL     1      -7.060   6.530  68.396  1.00  0.00    -0.083 C  
BRANCH   6   7
HETATM    7  C   UNL     1      -7.941   7.543  68.546  1.00  0.00    -0.123 A  
HETATM    8  C   UNL     1      -8.715   7.657  69.806  1.00  0.00    -0.140 A  
HETATM    9  C   UNL     1      -8.060   7.977  71.004  1.00  0.00    -0.097 A  
HETATM   10  C   UNL     1      -8.791   8.207  72.169  1.00  0.00    -0.238 A  
HETATM   11  C   UNL     1     -10.179   8.104  72.151  1.00  0.00    -0.330 A  
HETATM   12  C   UNL     1     -10.840   7.763  70.969  1.00  0.00    -0.253 A  
HETATM   13  C   UNL     1     -10.122   7.557  69.781  1.00  0.00    -0.194 A  
HETATM   14  C   UNL     1     -10.886   7.204  68.567  1.00  0.00    -0.141 A  
HETATM   15  C   UNL     1     -10.636   7.606  67.310  1.00  0.00    -0.388 A  
HETATM   16  C   UNL     1      -9.543   8.492  66.868  1.00  0.00    -0.257 A  
HETATM   17  C   UNL     1      -9.792   9.378  65.811  1.00  0.00    -0.345 A  
HETATM   18  C   UNL     1      -8.793  10.240  65.348  1.00  0.00    -0.192 A  
HETATM   19  C   UNL     1      -7.532  10.230  65.934  1.00  0.00    -0.135 A  
HETATM   20  C   UNL     1      -7.262   9.347  66.976  1.00  0.00    -0.087 A  
HETATM   21  C   UNL     1      -8.251   8.460  67.431  1.00  0.00    -0.120 A  
ENDBRANCH   6   7
ENDBRANCH   5   6
ENDBRANCH   4   5
ENDBRANCH   2   4
TORSDOF 4
ENDMDL
MODEL      202
REMARK 921   NORMALIZED FREE ENERGY PREDICTED BY IDOCK:   -2.83 KCAL/MOL
REMARK 922        TOTAL FREE ENERGY PREDICTED BY IDOCK:   -3.94 KCAL/MOL
REMARK 923 INTER-LIGAND FREE ENERGY PREDICTED BY IDOCK:   -3.49 KCAL/MOL
REMARK 924 INTRA-LIGAND FREE ENERGY PREDICTED BY IDOCK:   -0.45 KCAL/MOL
REMARK 927      BINDING AFFINITY PREDICTED BY RF-SCORE:    0.00 PKD
ROOT
HETATM    1  C   UNL     1     -13.151   8.454  71.303  1.00  0.00    -0.142 C  
HETATM    2  N   UNL     1     -11.951   7.783  71.804  1.00  0.00    -0.285 NA 
HETATM    3  C   UNL     1     -12.274   6.408  72.187  1.00  0.00    -0.229 C  
ENDROOT
BRANCH   2   4
HETATM    4  C   UNL     1     -10.866   7.851  70.800  1.00  0.00    -0.232 C  
BRANCH   4   5
HETATM    5  C   UNL     1     -11.353   8.277  69.405  1.00  0.00     0.360 C  
BRANCH   5   6
HETATM    6  C   UNL     1     -10.309   9.020  68.601  1.00  0.00    -0.233 C  
BRANCH   6   7
HETATM    7  C   UNL     1      -9.757  10.214  68.910  1.00  0.00    -0.189 A  
HETATM    8  C   UNL     1     -10.567  11.449  68.781  1.00  0.00    -0.235 A  
HETATM    9  C   UNL     1     -11.653  11.668  69.640  1.00  0.00    -0.401 A  
HETATM   10  C   UNL     1     -12.345  12.878  69.609  1.00  0.00    -0.083 A  
HETATM   11  C   UNL     1     -11.969  13.872  68.710  1.00  0.00    -0.393 A  
HETATM   12  C   UNL     1     -10.903  13.655  67.834  1.00  0.00    -0.264 A  
HETATM   13  C   UNL     1     -10.177  12.456  67.872  1.00  0.00    -0.213 A  
HETATM   14  C   UNL     1      -9.060  12.296  66.919  1.00  0.00    -0.208 A  
HETATM   15  C   UNL     1      -7.883  11.690  67.149  1.00  0.00    -0.163 A  
HETATM   16  C   UNL     1      -7.450  11.053  68.406  1.00  0.00    -0.100 A  
HETATM   17  C   UNL     1      -6.096  11.138  68.761  1.00  0.00    -0.043 A  
HETATM   18  C   UNL     1      -5.627  10.551  69.940  1.00  0.00    -0.048 A  
HETATM   19  C   UNL     1      -6.502   9.872  70.781  1.00  0.00    -0.081 A  
HETATM   20  C   UNL     1      -7.848   9.766  70.438  1.00  0.00    -0.144 A  
HETATM   21  C   UNL     1      -8.322  10.330  69.243  1.00  0.00    -0.167 A  
ENDBRANCH   6   7
ENDBRANCH   5   6
ENDBRANCH   4   5
ENDBRANCH   2   4
TORSDOF 4
ENDMDL
MODEL      203
REMARK 921   NORMALIZED FREE ENERGY PREDICTED BY IDOCK:   -2.82 KCAL/MOL
REMARK 922        TOTAL FREE ENERGY PREDICTED BY IDOCK:   -3.93 KCAL/MOL
REMARK 923 INTER-LIGAND FREE ENERGY PREDICTED BY IDOCK:   -3.25 KCAL/MOL
REMARK 924 INTRA-LIGAND FREE ENERGY PREDICTED BY IDOCK:   -0.68 KCAL/MOL
REMARK 927      BINDING AFFINITY PREDICTED BY RF-SCORE:    0.00 PKD
ROOT
HETATM    1  C   UNL     1      -6.911   3.033  68.565  1.00  0.00    -0.049 C  
HETATM    2  N   UNL     1      -8.368   3.170  68.522  1.00  0.00    -0.071 NA 
HETATM    3  C   UNL     1      -8.997   1.913  68.932  1.00  0.00    -0.105 C  
ENDROOT
BRANCH   2   4
HETATM    4  C   UNL     1      -8.802   4.316  69.351  1.00  0.00    -0.092 C  
BRANCH   4   5
HETATM    5  C   UNL     1      -9.589   5.376  68.561  1.00  0.00    -0.169 C  
BRANCH   5   6
HETATM    6  C   UNL     1      -8.887   6.713  68.476  1.00  0.00    -0.122 C  
BRANCH   6   7
HETATM    7  C   UNL     1      -8.750   7.613  69.474  1.00  0.00    -0.136 A  
HETATM    8  C   UNL     1      -7.509   7.623  70.284  1.00  0.00    -0.083 A  
HETATM    9  C   UNL     1      -6.293   8.005  69.700  1.00  0.00    -0.033 A  
HETATM   10  C   UNL     1      -5.145   8.135  70.480  1.00  0.00    -0.023 A  
HETATM   11  C   UNL     1      -5.197   7.869  71.845  1.00  0.00    -0.035 A  
HETATM   12  C   UNL     1      -6.397   7.466  72.433  1.00  0.00    -0.050 A  
HETATM   13  C   UNL     1      -7.569   7.358  71.669  1.00  0.00    -0.085 A  
HETATM   14  C   UNL     1      -8.803   6.929  72.357  1.00  0.00    -0.139 A  
HETATM   15  C   UNL     1     -10.051   7.371  72.128  1.00  0.00    -0.223 A  
HETATM   16  C   UNL     1     -10.459   8.385  71.137  1.00  0.00    -0.263 A  
HETATM   17  C   UNL     1     -11.516   9.246  71.465  1.00  0.00    -0.454 A  
HETATM   18  C   UNL     1     -11.948  10.224  70.564  1.00  0.00    -0.415 A  
HETATM   19  C   UNL     1     -11.332  10.356  69.324  1.00  0.00    -0.296 A  
HETATM   20  C   UNL     1     -10.290   9.500  68.976  1.00  0.00    -0.219 A  
HETATM   21  C   UNL     1      -9.866   8.499  69.864  1.00  0.00    -0.186 A  
ENDBRANCH   6   7
ENDBRANCH   5   6
ENDBRANCH   4   5
ENDBRANCH   2   4
TORSDOF 4
ENDMDL
MODEL      204
REMARK 921   NORMALIZED FREE ENERGY PREDICTED BY IDOCK:   -2.79 KCAL/MOL
REMARK 922        TOTAL FREE ENERGY PREDICTED BY IDOCK:   -3.89 KCAL/MOL
REMARK 923 INTER-LIGAND FREE ENERGY PREDICTED BY IDOCK:   -3.44 KCAL/MOL
REMARK 924 INTRA-LIGAND FREE ENERGY PREDICTED BY IDOCK:   -0.45 KCAL/MOL
REMARK 927      BINDING AFFINITY PREDICTED BY RF-SCORE:    0.00 PKD
ROOT
HETATM    1  C   UNL     1      -9.368   9.681  67.745  1.00  0.00    -0.127 C  
HETATM    2  N   UNL     1      -8.012   9.962  68.220  1.00  0.00    -0.099 NA 
HETATM    3  C   UNL     1      -7.821  11.408  68.348  1.00  0.00    -0.135 C  
ENDROOT
BRANCH   2   4
HETATM    4  C   UNL     1      -7.750   9.243  69.486  1.00  0.00    -0.084 C  
BRANCH   4   5
HETATM    5  C   UNL     1      -6.866   7.997  69.308  1.00  0.00    -0.048 C  
BRANCH   5   6
HETATM    6  C   UNL     1      -7.385   6.777  70.034  1.00  0.00    -0.085 C  
BRANCH   6   7
HETATM    7  C   UNL     1      -8.612   6.225  69.902  1.00  0.00    -0.134 A  
HETATM    8  C   UNL     1      -9.548   6.241  71.052  1.00  0.00    -0.191 A  
HETATM    9  C   UNL     1     -10.083   7.456  71.503  1.00  0.00    -0.197 A  
HETATM   10  C   UNL     1     -11.055   7.471  72.503  1.00  0.00    -0.371 A  
HETATM   11  C   UNL     1     -11.489   6.276  73.069  1.00  0.00    -0.033 A  
HETATM   12  C   UNL     1     -10.946   5.062  72.643  1.00  0.00    -0.280 A  
HETATM   13  C   UNL     1      -9.989   5.026  71.618  1.00  0.00    -0.249 A  
HETATM   14  C   UNL     1      -9.460   3.708  71.215  1.00  0.00    -0.231 A  
HETATM   15  C   UNL     1      -9.145   3.309  69.971  1.00  0.00    -0.197 A  
HETATM   16  C   UNL     1      -9.262   4.105  68.734  1.00  0.00    -0.206 A  
HETATM   17  C   UNL     1      -9.619   3.444  67.551  1.00  0.00    -0.152 A  
HETATM   18  C   UNL     1      -9.742   4.146  66.348  1.00  0.00    -0.223 A  
HETATM   19  C   UNL     1      -9.511   5.517  66.310  1.00  0.00    -0.171 A  
HETATM   20  C   UNL     1      -9.142   6.188  67.473  1.00  0.00    -0.109 A  
HETATM   21  C   UNL     1      -8.992   5.487  68.680  1.00  0.00    -0.118 A  
ENDBRANCH   6   7
ENDBRANCH   5   6
ENDBRANCH   4   5
ENDBRANCH   2   4
TORSDOF 4
ENDMDL
MODEL      205
REMARK 921   NORMALIZED FREE ENERGY PREDICTED BY IDOCK:   -2.78 KCAL/MOL
REMARK 922        TOTAL FREE ENERGY PREDICTED BY IDOCK:   -3.89 KCAL/MOL
REMARK 923 INTER-LIGAND FREE ENERGY PREDICTED BY IDOCK:   -3.57 KCAL/MOL
REMARK 924 INTRA-LIGAND FREE ENERGY PREDICTED BY IDOCK:   -0.32 KCAL/MOL
REMARK 927      BINDING AFFINITY PREDICTED BY RF-SCORE:    0.00 PKD
ROOT
HETATM    1  C   UNL     1     -10.473   6.487  72.645  1.00  0.00    -0.211 C  
HETATM    2  N   UNL     1      -9.855   7.783  72.931  1.00  0.00    -0.238 NA 
HETATM    3  C   UNL     1      -8.499   7.584  73.445  1.00  0.00    -0.151 C  
ENDROOT
BRANCH   2   4
HETATM    4  C   UNL     1      -9.883   8.643  71.728  1.00  0.00    -0.295 C  
BRANCH   4   5
HETATM    5  C   UNL     1      -8.483   8.997  71.199  1.00  0.00    -0.234 C  
BRANCH   5   6
HETATM    6  C   UNL     1      -8.034   8.128  70.045  1.00  0.00    -0.105 C  
BRANCH   6   7
HETATM    7  C   UNL     1      -8.076   8.450  68.733  1.00  0.00    -0.121 A  
HETATM    8  C   UNL     1      -8.558   9.792  68.325  1.00  0.00    -0.119 A  
HETATM    9  C   UNL     1      -7.803  10.932  68.636  1.00  0.00    -0.126 A  
HETATM   10  C   UNL     1      -8.183  12.184  68.153  1.00  0.00    -0.164 A  
HETATM   11  C   UNL     1      -9.327  12.309  67.370  1.00  0.00    -0.183 A  
HETATM   12  C   UNL     1     -10.098  11.184  67.073  1.00  0.00    -0.235 A  
HETATM   13  C   UNL     1      -9.715   9.912  67.526  1.00  0.00    -0.193 A  
HETATM   14  C   UNL     1     -10.576   8.766  67.172  1.00  0.00    -0.303 A  
HETATM   15  C   UNL     1     -10.176   7.523  66.856  1.00  0.00    -0.359 A  
HETATM   16  C   UNL     1      -8.786   7.033  66.792  1.00  0.00    -0.124 A  
HETATM   17  C   UNL     1      -8.462   6.079  65.817  1.00  0.00    -0.146 A  
HETATM   18  C   UNL     1      -7.162   5.577  65.710  1.00  0.00    -0.068 A  
HETATM   19  C   UNL     1      -6.167   6.019  66.575  1.00  0.00    -0.037 A  
HETATM   20  C   UNL     1      -6.473   6.956  67.559  1.00  0.00    -0.050 A  
HETATM   21  C   UNL     1      -7.782   7.448  67.689  1.00  0.00    -0.112 A  
ENDBRANCH   6   7
ENDBRANCH   5   6
ENDBRANCH   4   5
ENDBRANCH   2   4
TORSDOF 4
ENDMDL
MODEL      206
REMARK 921   NORMALIZED FREE ENERGY PREDICTED BY IDOCK:   -2.78 KCAL/MOL
REMARK 922        TOTAL FREE ENERGY PREDICTED BY IDOCK:   -3.89 KCAL/MOL
REMARK 923 INTER-LIGAND FREE ENERGY PREDICTED BY IDOCK:   -3.69 KCAL/MOL
REMARK 924 INTRA-LIGAND FREE ENERGY PREDICTED BY IDOCK:   -0.19 KCAL/MOL
REMARK 927      BINDING AFFINITY PREDICTED BY RF-SCORE:    0.00 PKD
ROOT
HETATM    1  C   UNL     1     -10.812   6.749  72.707  1.00  0.00    -0.262 C  
HETATM    2  N   UNL     1     -10.044   7.957  73.017  1.00  0.00    -0.307 NA 
HETATM    3  C   UNL     1      -8.663   7.597  73.343  1.00  0.00    -0.202 C  
ENDROOT
BRANCH   2   4
HETATM    4  C   UNL     1     -10.129   8.921  71.898  1.00  0.00    -0.322 C  
BRANCH   4   5
HETATM    5  C   UNL     1      -8.860   8.962  71.031  1.00  0.00    -0.285 C  
BRANCH   5   6
HETATM    6  C   UNL     1      -9.136   8.843  69.548  1.00  0.00    -0.146 C  
BRANCH   6   7
HETATM    7  C   UNL     1      -8.517   9.523  68.559  1.00  0.00    -0.119 A  
HETATM    8  C   UNL     1      -7.915  10.847  68.848  1.00  0.00    -0.146 A  
HETATM    9  C   UNL     1      -6.795  10.940  69.687  1.00  0.00    -0.137 A  
HETATM   10  C   UNL     1      -6.148  12.162  69.868  1.00  0.00    -0.146 A  
HETATM   11  C   UNL     1      -6.623  13.302  69.227  1.00  0.00    -0.093 A  
HETATM   12  C   UNL     1      -7.751  13.226  68.408  1.00  0.00    -0.138 A  
HETATM   13  C   UNL     1      -8.397  11.999  68.191  1.00  0.00    -0.165 A  
HETATM   14  C   UNL     1      -9.582  11.991  67.310  1.00  0.00    -0.185 A  
HETATM   15  C   UNL     1      -9.932  11.033  66.435  1.00  0.00    -0.264 A  
HETATM   16  C   UNL     1      -9.203   9.780  66.162  1.00  0.00    -0.221 A  
HETATM   17  C   UNL     1      -9.205   9.283  64.851  1.00  0.00    -0.206 A  
HETATM   18  C   UNL     1      -8.534   8.098  64.534  1.00  0.00    -0.013 A  
HETATM   19  C   UNL     1      -7.853   7.392  65.520  1.00  0.00    -0.115 A  
HETATM   20  C   UNL     1      -7.853   7.864  66.831  1.00  0.00    -0.104 A  
HETATM   21  C   UNL     1      -8.544   9.039  67.163  1.00  0.00    -0.119 A  
ENDBRANCH   6   7
ENDBRANCH   5   6
ENDBRANCH   4   5
ENDBRANCH   2   4
TORSDOF 4
ENDMDL
MODEL      207
REMARK 921   NORMALIZED FREE ENERGY PREDICTED BY IDOCK:   -2.77 KCAL/MOL
REMARK 922        TOTAL FREE ENERGY PREDICTED BY IDOCK:   -3.88 KCAL/MOL
REMARK 923 INTER-LIGAND FREE ENERGY PREDICTED BY IDOCK:   -3.43 KCAL/MOL
REMARK 924 INTRA-LIGAND FREE ENERGY PREDICTED BY IDOCK:   -0.45 KCAL/MOL
REMARK 927      BINDING AFFINITY PREDICTED BY RF-SCORE:    0.00 PKD
ROOT
HETATM    1  C   UNL     1     -11.737   8.744  72.575  1.00  0.00    -0.171 C  
HETATM    2  N   UNL     1     -12.246   8.911  71.212  1.00  0.00    -0.302 NA 
HETATM    3  C   UNL     1     -11.368   9.810  70.461  1.00  0.00    -0.314 C  
ENDROOT
BRANCH   2   4
HETATM    4  C   UNL     1     -12.403   7.595  70.556  1.00  0.00     0.184 C  
BRANCH   4   5
HETATM    5  C   UNL     1     -11.065   6.945  70.165  1.00  0.00    -0.344 C  
BRANCH   5   6
HETATM    6  C   UNL     1     -10.966   5.485  70.551  1.00  0.00    -0.196 C  
BRANCH   6   7
HETATM    7  C   UNL     1      -9.848   4.726  70.541  1.00  0.00    -0.301 A  
HETATM    8  C   UNL     1      -9.608   3.793  69.414  1.00  0.00    -0.219 A  
HETATM    9  C   UNL     1      -9.344   4.295  68.132  1.00  0.00    -0.204 A  
HETATM   10  C   UNL     1      -8.997   3.432  67.093  1.00  0.00    -0.173 A  
HETATM   11  C   UNL     1      -8.928   2.061  67.321  1.00  0.00    -0.166 A  
HETATM   12  C   UNL     1      -9.211   1.548  68.589  1.00  0.00    -0.205 A  
HETATM   13  C   UNL     1      -9.533   2.404  69.653  1.00  0.00    -0.115 A  
HETATM   14  C   UNL     1      -9.818   1.794  70.967  1.00  0.00    -0.110 A  
HETATM   15  C   UNL     1      -9.480   2.279  72.173  1.00  0.00    -0.175 A  
HETATM   16  C   UNL     1      -8.747   3.529  72.447  1.00  0.00    -0.100 A  
HETATM   17  C   UNL     1      -7.862   3.556  73.534  1.00  0.00    -0.070 A  
HETATM   18  C   UNL     1      -7.143   4.714  73.844  1.00  0.00    -0.076 A  
HETATM   19  C   UNL     1      -7.296   5.861  73.073  1.00  0.00    -0.094 A  
HETATM   20  C   UNL     1      -8.181   5.857  71.997  1.00  0.00    -0.112 A  
HETATM   21  C   UNL     1      -8.926   4.707  71.695  1.00  0.00    -0.163 A  
ENDBRANCH   6   7
ENDBRANCH   5   6
ENDBRANCH   4   5
ENDBRANCH   2   4
TORSDOF 4
ENDMDL
MODEL      208
REMARK 921   NORMALIZED FREE ENERGY PREDICTED BY IDOCK:   -2.77 KCAL/MOL
REMARK 922        TOTAL FREE ENERGY PREDICTED BY IDOCK:   -3.87 KCAL/MOL
REMARK 923 INTER-LIGAND FREE ENERGY PREDICTED BY IDOCK:   -3.45 KCAL/MOL
REMARK 924 INTRA-LIGAND FREE ENERGY PREDICTED BY IDOCK:   -0.42 KCAL/MOL
REMARK 927      BINDING AFFINITY PREDICTED BY RF-SCORE:    0.00 PKD
ROOT
HETATM    1  C   UNL     1      -8.788   4.271  71.366  1.00  0.00    -0.113 C  
HETATM    2  N   UNL     1      -8.736   5.728  71.238  1.00  0.00    -0.132 NA 
HETATM    3  C   UNL     1      -7.916   6.292  72.311  1.00  0.00    -0.104 C  
ENDROOT
BRANCH   2   4
HETATM    4  C   UNL     1      -8.249   6.109  69.894  1.00  0.00    -0.120 C  
BRANCH   4   5
HETATM    5  C   UNL     1      -9.167   7.111  69.174  1.00  0.00    -0.139 C  
BRANCH   5   6
HETATM    6  C   UNL     1      -8.485   8.415  68.825  1.00  0.00    -0.124 C  
BRANCH   6   7
HETATM    7  C   UNL     1      -8.841   9.269  67.840  1.00  0.00    -0.124 A  
HETATM    8  C   UNL     1      -8.237   9.125  66.494  1.00  0.00    -0.111 A  
HETATM    9  C   UNL     1      -8.540   8.005  65.706  1.00  0.00    -0.174 A  
HETATM   10  C   UNL     1      -8.076   7.919  64.394  1.00  0.00    -0.103 A  
HETATM   11  C   UNL     1      -7.293   8.941  63.864  1.00  0.00    -0.098 A  
HETATM   12  C   UNL     1      -6.967  10.050  64.647  1.00  0.00    -0.137 A  
HETATM   13  C   UNL     1      -7.449  10.167  65.959  1.00  0.00    -0.118 A  
HETATM   14  C   UNL     1      -7.068  11.368  66.729  1.00  0.00    -0.132 A  
HETATM   15  C   UNL     1      -7.834  12.048  67.599  1.00  0.00    -0.149 A  
HETATM   16  C   UNL     1      -9.228  11.742  67.971  1.00  0.00    -0.181 A  
HETATM   17  C   UNL     1     -10.093  12.811  68.239  1.00  0.00    -0.237 A  
HETATM   18  C   UNL     1     -11.425  12.582  68.601  1.00  0.00    -0.348 A  
HETATM   19  C   UNL     1     -11.910  11.283  68.699  1.00  0.00    -0.369 A  
HETATM   20  C   UNL     1     -11.061  10.207  68.450  1.00  0.00    -0.273 A  
HETATM   21  C   UNL     1      -9.716  10.428  68.111  1.00  0.00    -0.165 A  
ENDBRANCH   6   7
ENDBRANCH   5   6
ENDBRANCH   4   5
ENDBRANCH   2   4
TORSDOF 4
ENDMDL
MODEL      209
REMARK 921   NORMALIZED FREE ENERGY PREDICTED BY IDOCK:   -2.75 KCAL/MOL
REMARK 922        TOTAL FREE ENERGY PREDICTED BY IDOCK:   -3.85 KCAL/MOL
REMARK 923 INTER-LIGAND FREE ENERGY PREDICTED BY IDOCK:   -3.55 KCAL/MOL
REMARK 924 INTRA-LIGAND FREE ENERGY PREDICTED BY IDOCK:   -0.30 KCAL/MOL
REMARK 927      BINDING AFFINITY PREDICTED BY RF-SCORE:    0.00 PKD
ROOT
HETATM    1  C   UNL     1      -6.341  14.302  69.113  1.00  0.00    -0.104 C  
HETATM    2  N   UNL     1      -7.276  15.421  69.245  1.00  0.00    -0.170 NA 
HETATM    3  C   UNL     1      -6.585  16.581  69.811  1.00  0.00    -0.089 C  
ENDROOT
BRANCH   2   4
HETATM    4  C   UNL     1      -7.909  15.719  67.942  1.00  0.00    -0.139 C  
BRANCH   4   5
HETATM    5  C   UNL     1      -9.246  14.989  67.732  1.00  0.00    -0.181 C  
BRANCH   5   6
HETATM    6  C   UNL     1      -9.323  14.230  66.426  1.00  0.00    -0.270 C  
BRANCH   6   7
HETATM    7  C   UNL     1      -9.691  12.940  66.266  1.00  0.00    -0.268 A  
HETATM    8  C   UNL     1      -9.041  11.888  67.084  1.00  0.00    -0.178 A  
HETATM    9  C   UNL     1      -9.264  11.838  68.467  1.00  0.00    -0.152 A  
HETATM   10  C   UNL     1      -8.758  10.783  69.226  1.00  0.00    -0.044 A  
HETATM   11  C   UNL     1      -8.012   9.780  68.613  1.00  0.00    -0.089 A  
HETATM   12  C   UNL     1      -7.765   9.833  67.240  1.00  0.00    -0.095 A  
HETATM   13  C   UNL     1      -8.291  10.871  66.456  1.00  0.00    -0.155 A  
HETATM   14  C   UNL     1      -7.993  10.862  65.010  1.00  0.00     0.181 A  
HETATM   15  C   UNL     1      -8.818  11.223  64.013  1.00  0.00     0.193 A  
HETATM   16  C   UNL     1     -10.205  11.705  64.147  1.00  0.00    -0.372 A  
HETATM   17  C   UNL     1     -11.130  11.349  63.156  1.00  0.00    -0.077 A  
HETATM   18  C   UNL     1     -12.459  11.780  63.229  1.00  0.00    -0.411 A  
HETATM   19  C   UNL     1     -12.882  12.571  64.291  1.00  0.00    -0.350 A  
HETATM   20  C   UNL     1     -11.973  12.946  65.278  1.00  0.00    -0.459 A  
HETATM   21  C   UNL     1     -10.631  12.539  65.199  1.00  0.00    -0.322 A  
ENDBRANCH   6   7
ENDBRANCH   5   6
ENDBRANCH   4   5
ENDBRANCH   2   4
TORSDOF 4
ENDMDL
MODEL      210
REMARK 921   NORMALIZED FREE ENERGY PREDICTED BY IDOCK:   -2.74 KCAL/MOL
REMARK 922        TOTAL FREE ENERGY PREDICTED BY IDOCK:   -3.84 KCAL/MOL
REMARK 923 INTER-LIGAND FREE ENERGY PREDICTED BY IDOCK:   -3.27 KCAL/MOL
REMARK 924 INTRA-LIGAND FREE ENERGY PREDICTED BY IDOCK:   -0.56 KCAL/MOL
REMARK 927      BINDING AFFINITY PREDICTED BY RF-SCORE:    0.00 PKD
ROOT
HETATM    1  C   UNL     1      -9.201  10.541  66.539  1.00  0.00    -0.161 C  
HETATM    2  N   UNL     1      -9.723   9.597  67.528  1.00  0.00    -0.153 NA 
HETATM    3  C   UNL     1     -10.466  10.320  68.561  1.00  0.00    -0.192 C  
ENDROOT
BRANCH   2   4
HETATM    4  C   UNL     1     -10.540   8.557  66.866  1.00  0.00    -0.209 C  
BRANCH   4   5
HETATM    5  C   UNL     1     -10.013   7.130  67.095  1.00  0.00    -0.270 C  
BRANCH   5   6
HETATM    6  C   UNL     1     -10.350   6.572  68.459  1.00  0.00    -0.219 C  
BRANCH   6   7
HETATM    7  C   UNL     1      -9.498   5.957  69.308  1.00  0.00    -0.154 A  
HETATM    8  C   UNL     1      -9.317   4.488  69.227  1.00  0.00    -0.215 A  
HETATM    9  C   UNL     1      -8.697   3.919  68.106  1.00  0.00    -0.124 A  
HETATM   10  C   UNL     1      -8.413   2.554  68.072  1.00  0.00    -0.097 A  
HETATM   11  C   UNL     1      -8.760   1.745  69.150  1.00  0.00    -0.110 A  
HETATM   12  C   UNL     1      -9.399   2.297  70.262  1.00  0.00    -0.184 A  
HETATM   13  C   UNL     1      -9.666   3.673  70.325  1.00  0.00    -0.193 A  
HETATM   14  C   UNL     1     -10.341   4.189  71.532  1.00  0.00    -0.020 A  
HETATM   15  C   UNL     1     -10.111   5.362  72.147  1.00  0.00    -0.237 A  
HETATM   16  C   UNL     1      -9.130   6.389  71.750  1.00  0.00    -0.143 A  
HETATM   17  C   UNL     1      -8.486   7.118  72.759  1.00  0.00    -0.125 A  
HETATM   18  C   UNL     1      -7.549   8.106  72.442  1.00  0.00    -0.153 A  
HETATM   19  C   UNL     1      -7.242   8.379  71.113  1.00  0.00    -0.068 A  
HETATM   20  C   UNL     1      -7.882   7.675  70.097  1.00  0.00    -0.097 A  
HETATM   21  C   UNL     1      -8.843   6.699  70.406  1.00  0.00    -0.152 A  
ENDBRANCH   6   7
ENDBRANCH   5   6
ENDBRANCH   4   5
ENDBRANCH   2   4
TORSDOF 4
ENDMDL
MODEL      211
REMARK 921   NORMALIZED FREE ENERGY PREDICTED BY IDOCK:   -2.70 KCAL/MOL
REMARK 922        TOTAL FREE ENERGY PREDICTED BY IDOCK:   -3.78 KCAL/MOL
REMARK 923 INTER-LIGAND FREE ENERGY PREDICTED BY IDOCK:   -3.43 KCAL/MOL
REMARK 924 INTRA-LIGAND FREE ENERGY PREDICTED BY IDOCK:   -0.35 KCAL/MOL
REMARK 927      BINDING AFFINITY PREDICTED BY RF-SCORE:    0.00 PKD
ROOT
HETATM    1  C   UNL     1     -10.995   8.918  72.439  1.00  0.00    -0.034 C  
HETATM    2  N   UNL     1     -11.795   9.119  71.229  1.00  0.00    -0.306 NA 
HETATM    3  C   UNL     1     -11.462  10.409  70.623  1.00  0.00    -0.349 C  
ENDROOT
BRANCH   2   4
HETATM    4  C   UNL     1     -11.607   7.988  70.294  1.00  0.00     0.003 C  
BRANCH   4   5
HETATM    5  C   UNL     1     -10.448   8.201  69.306  1.00  0.00    -0.221 C  
BRANCH   5   6
HETATM    6  C   UNL     1      -9.310   7.221  69.487  1.00  0.00    -0.152 C  
BRANCH   6   7
HETATM    7  C   UNL     1      -9.394   5.873  69.431  1.00  0.00    -0.150 A  
HETATM    8  C   UNL     1      -9.404   5.089  70.689  1.00  0.00    -0.216 A  
HETATM    9  C   UNL     1     -10.498   5.175  71.561  1.00  0.00    -0.256 A  
HETATM   10  C   UNL     1     -10.574   4.352  72.684  1.00  0.00    -0.233 A  
HETATM   11  C   UNL     1      -9.550   3.448  72.954  1.00  0.00    -0.167 A  
HETATM   12  C   UNL     1      -8.444   3.370  72.104  1.00  0.00    -0.087 A  
HETATM   13  C   UNL     1      -8.366   4.170  70.954  1.00  0.00    -0.092 A  
HETATM   14  C   UNL     1      -7.170   4.032  70.100  1.00  0.00    -0.042 A  
HETATM   15  C   UNL     1      -7.125   4.087  68.758  1.00  0.00    -0.054 A  
HETATM   16  C   UNL     1      -8.266   4.295  67.845  1.00  0.00    -0.094 A  
HETATM   17  C   UNL     1      -8.255   3.634  66.609  1.00  0.00    -0.099 A  
HETATM   18  C   UNL     1      -9.307   3.796  65.702  1.00  0.00    -0.162 A  
HETATM   19  C   UNL     1     -10.384   4.617  66.017  1.00  0.00    -0.318 A  
HETATM   20  C   UNL     1     -10.405   5.292  67.235  1.00  0.00    -0.254 A  
HETATM   21  C   UNL     1      -9.341   5.156  68.141  1.00  0.00    -0.148 A  
ENDBRANCH   6   7
ENDBRANCH   5   6
ENDBRANCH   4   5
ENDBRANCH   2   4
TORSDOF 4
ENDMDL
MODEL      212
REMARK 921   NORMALIZED FREE ENERGY PREDICTED BY IDOCK:   -2.67 KCAL/MOL
REMARK 922        TOTAL FREE ENERGY PREDICTED BY IDOCK:   -3.75 KCAL/MOL
REMARK 923 INTER-LIGAND FREE ENERGY PREDICTED BY IDOCK:   -3.49 KCAL/MOL
REMARK 924 INTRA-LIGAND FREE ENERGY PREDICTED BY IDOCK:   -0.26 KCAL/MOL
REMARK 927      BINDING AFFINITY PREDICTED BY RF-SCORE:    0.00 PKD
ROOT
HETATM    1  C   UNL     1     -10.487   6.592  69.492  1.00  0.00    -0.222 C  
HETATM    2  N   UNL     1      -9.732   5.553  68.790  1.00  0.00    -0.135 NA 
HETATM    3  C   UNL     1      -9.843   4.284  69.512  1.00  0.00    -0.154 C  
ENDROOT
BRANCH   2   4
HETATM    4  C   UNL     1     -10.186   5.447  67.386  1.00  0.00    -0.201 C  
BRANCH   4   5
HETATM    5  C   UNL     1     -10.488   6.809  66.738  1.00  0.00    -0.298 C  
BRANCH   5   6
HETATM    6  C   UNL     1      -9.306   7.407  66.008  1.00  0.00    -0.045 C  
BRANCH   6   7
HETATM    7  C   UNL     1      -9.012   8.721  65.897  1.00  0.00    -0.240 A  
HETATM    8  C   UNL     1      -8.167   9.188  64.772  1.00  0.00    -0.150 A  
HETATM    9  C   UNL     1      -8.654   9.131  63.458  1.00  0.00    -0.177 A  
HETATM   10  C   UNL     1      -7.918   9.678  62.408  1.00  0.00    -0.128 A  
HETATM   11  C   UNL     1      -6.685  10.273  62.658  1.00  0.00    -0.136 A  
HETATM   12  C   UNL     1      -6.180  10.315  63.959  1.00  0.00    -0.110 A  
HETATM   13  C   UNL     1      -6.920   9.795  65.032  1.00  0.00    -0.119 A  
HETATM   14  C   UNL     1      -6.326   9.877  66.382  1.00  0.00    -0.071 A  
HETATM   15  C   UNL     1      -6.973  10.117  67.535  1.00  0.00    -0.085 A  
HETATM   16  C   UNL     1      -8.419  10.355  67.702  1.00  0.00    -0.114 A  
HETATM   17  C   UNL     1      -8.833  11.260  68.689  1.00  0.00    -0.141 A  
HETATM   18  C   UNL     1     -10.191  11.522  68.896  1.00  0.00    -0.166 A  
HETATM   19  C   UNL     1     -11.154  10.885  68.120  1.00  0.00    -0.337 A  
HETATM   20  C   UNL     1     -10.761   9.972  67.144  1.00  0.00    -0.279 A  
HETATM   21  C   UNL     1      -9.401   9.684  66.947  1.00  0.00    -0.183 A  
ENDBRANCH   6   7
ENDBRANCH   5   6
ENDBRANCH   4   5
ENDBRANCH   2   4
TORSDOF 4
ENDMDL
MODEL      213
REMARK 921   NORMALIZED FREE ENERGY PREDICTED BY IDOCK:   -2.66 KCAL/MOL
REMARK 922        TOTAL FREE ENERGY PREDICTED BY IDOCK:   -3.74 KCAL/MOL
REMARK 923 INTER-LIGAND FREE ENERGY PREDICTED BY IDOCK:   -3.16 KCAL/MOL
REMARK 924 INTRA-LIGAND FREE ENERGY PREDICTED BY IDOCK:   -0.58 KCAL/MOL
REMARK 927      BINDING AFFINITY PREDICTED BY RF-SCORE:    0.00 PKD
ROOT
HETATM    1  C   UNL     1      -9.707   2.806  64.294  1.00  0.00    -0.143 C  
HETATM    2  N   UNL     1      -8.940   3.238  65.463  1.00  0.00    -0.137 NA 
HETATM    3  C   UNL     1      -8.526   2.071  66.244  1.00  0.00    -0.102 C  
ENDROOT
BRANCH   2   4
HETATM    4  C   UNL     1      -7.793   4.075  65.046  1.00  0.00    -0.089 C  
BRANCH   4   5
HETATM    5  C   UNL     1      -7.524   5.255  65.994  1.00  0.00    -0.082 C  
BRANCH   5   6
HETATM    6  C   UNL     1      -8.698   5.597  66.884  1.00  0.00    -0.113 C  
BRANCH   6   7
HETATM    7  C   UNL     1      -8.644   5.925  68.194  1.00  0.00    -0.113 A  
HETATM    8  C   UNL     1      -8.644   4.851  69.217  1.00  0.00    -0.099 A  
HETATM    9  C   UNL     1      -7.542   3.992  69.330  1.00  0.00    -0.053 A  
HETATM   10  C   UNL     1      -7.477   3.059  70.365  1.00  0.00    -0.040 A  
HETATM   11  C   UNL     1      -8.519   2.966  71.283  1.00  0.00    -0.094 A  
HETATM   12  C   UNL     1      -9.632   3.801  71.165  1.00  0.00    -0.246 A  
HETATM   13  C   UNL     1      -9.700   4.765  70.149  1.00  0.00    -0.288 A  
HETATM   14  C   UNL     1     -10.905   5.617  70.086  1.00  0.00    -0.356 A  
HETATM   15  C   UNL     1     -10.957   6.919  69.760  1.00  0.00    -0.310 A  
HETATM   16  C   UNL     1      -9.819   7.784  69.396  1.00  0.00    -0.176 A  
HETATM   17  C   UNL     1      -9.853   9.128  69.793  1.00  0.00    -0.192 A  
HETATM   18  C   UNL     1      -8.803   9.995  69.474  1.00  0.00    -0.209 A  
HETATM   19  C   UNL     1      -7.706   9.533  68.755  1.00  0.00    -0.080 A  
HETATM   20  C   UNL     1      -7.662   8.204  68.341  1.00  0.00    -0.113 A  
HETATM   21  C   UNL     1      -8.723   7.333  68.635  1.00  0.00    -0.127 A  
ENDBRANCH   6   7
ENDBRANCH   5   6
ENDBRANCH   4   5
ENDBRANCH   2   4
TORSDOF 4
ENDMDL
MODEL      214
REMARK 921   NORMALIZED FREE ENERGY PREDICTED BY IDOCK:   -2.62 KCAL/MOL
REMARK 922        TOTAL FREE ENERGY PREDICTED BY IDOCK:   -3.68 KCAL/MOL
REMARK 923 INTER-LIGAND FREE ENERGY PREDICTED BY IDOCK:   -3.67 KCAL/MOL
REMARK 924 INTRA-LIGAND FREE ENERGY PREDICTED BY IDOCK:   -0.01 KCAL/MOL
REMARK 927      BINDING AFFINITY PREDICTED BY RF-SCORE:    0.00 PKD
ROOT
HETATM    1  C   UNL     1     -10.018   7.393  66.583  1.00  0.00    -0.191 C  
HETATM    2  N   UNL     1     -10.075   8.679  67.278  1.00  0.00    -0.220 NA 
HETATM    3  C   UNL     1     -10.140   8.460  68.724  1.00  0.00    -0.196 C  
ENDROOT
BRANCH   2   4
HETATM    4  C   UNL     1      -8.928   9.527  66.886  1.00  0.00    -0.131 C  
BRANCH   4   5
HETATM    5  C   UNL     1      -8.606  10.629  67.910  1.00  0.00    -0.124 C  
BRANCH   5   6
HETATM    6  C   UNL     1      -9.681  11.688  68.018  1.00  0.00    -0.182 C  
BRANCH   6   7
HETATM    7  C   UNL     1      -9.528  12.940  68.500  1.00  0.00    -0.098 A  
HETATM    8  C   UNL     1     -10.703  13.663  69.043  1.00  0.00    -0.194 A  
HETATM    9  C   UNL     1     -11.311  13.224  70.228  1.00  0.00     0.221 A  
HETATM   10  C   UNL     1     -12.338  13.964  70.812  1.00  0.00    -0.449 A  
HETATM   11  C   UNL     1     -12.776  15.140  70.210  1.00  0.00    -0.340 A  
HETATM   12  C   UNL     1     -12.193  15.575  69.018  1.00  0.00    -0.147 A  
HETATM   13  C   UNL     1     -11.140  14.858  68.432  1.00  0.00    -0.282 A  
HETATM   14  C   UNL     1     -10.568  15.378  67.174  1.00  0.00    -0.305 A  
HETATM   15  C   UNL     1      -9.276  15.360  66.805  1.00  0.00    -0.273 A  
HETATM   16  C   UNL     1      -8.145  14.818  67.581  1.00  0.00    -0.183 A  
HETATM   17  C   UNL     1      -6.906  15.466  67.490  1.00  0.00    -0.223 A  
HETATM   18  C   UNL     1      -5.797  14.996  68.200  1.00  0.00    -0.141 A  
HETATM   19  C   UNL     1      -5.911  13.872  69.012  1.00  0.00    -0.086 A  
HETATM   20  C   UNL     1      -7.131  13.207  69.104  1.00  0.00     0.021 A  
HETATM   21  C   UNL     1      -8.242  13.658  68.374  1.00  0.00    -0.146 A  
ENDBRANCH   6   7
ENDBRANCH   5   6
ENDBRANCH   4   5
ENDBRANCH   2   4
TORSDOF 4
ENDMDL
MODEL      215
REMARK 921   NORMALIZED FREE ENERGY PREDICTED BY IDOCK:   -2.59 KCAL/MOL
REMARK 922        TOTAL FREE ENERGY PREDICTED BY IDOCK:   -3.65 KCAL/MOL
REMARK 923 INTER-LIGAND FREE ENERGY PREDICTED BY IDOCK:   -3.17 KCAL/MOL
REMARK 924 INTRA-LIGAND FREE ENERGY PREDICTED BY IDOCK:   -0.48 KCAL/MOL
REMARK 927      BINDING AFFINITY PREDICTED BY RF-SCORE:    0.00 PKD
ROOT
HETATM    1  C   UNL     1      -9.489   2.722  64.253  1.00  0.00    -0.137 C  
HETATM    2  N   UNL     1      -8.465   3.391  65.057  1.00  0.00    -0.097 NA 
HETATM    3  C   UNL     1      -7.890   2.446  66.015  1.00  0.00    -0.081 C  
ENDROOT
BRANCH   2   4
HETATM    4  C   UNL     1      -7.442   4.003  64.181  1.00  0.00    -0.070 C  
BRANCH   4   5
HETATM    5  C   UNL     1      -7.273   5.515  64.405  1.00  0.00    -0.055 C  
BRANCH   5   6
HETATM    6  C   UNL     1      -8.372   6.129  65.244  1.00  0.00    -0.144 C  
BRANCH   6   7
HETATM    7  C   UNL     1      -8.260   7.209  66.048  1.00  0.00    -0.129 A  
HETATM    8  C   UNL     1      -7.675   7.054  67.402  1.00  0.00    -0.110 A  
HETATM    9  C   UNL     1      -6.317   6.738  67.547  1.00  0.00    -0.044 A  
HETATM   10  C   UNL     1      -5.729   6.711  68.811  1.00  0.00    -0.017 A  
HETATM   11  C   UNL     1      -6.495   6.983  69.941  1.00  0.00    -0.039 A  
HETATM   12  C   UNL     1      -7.854   7.276  69.810  1.00  0.00    -0.117 A  
HETATM   13  C   UNL     1      -8.455   7.337  68.544  1.00  0.00    -0.125 A  
HETATM   14  C   UNL     1      -9.895   7.657  68.479  1.00  0.00    -0.174 A  
HETATM   15  C   UNL     1     -10.516   8.408  67.554  1.00  0.00    -0.328 A  
HETATM   16  C   UNL     1      -9.890   9.080  66.400  1.00  0.00    -0.356 A  
HETATM   17  C   UNL     1     -10.402  10.321  65.996  1.00  0.00    -0.248 A  
HETATM   18  C   UNL     1      -9.851  11.003  64.907  1.00  0.00    -0.327 A  
HETATM   19  C   UNL     1      -8.781  10.456  64.206  1.00  0.00    -0.206 A  
HETATM   20  C   UNL     1      -8.268   9.218  64.584  1.00  0.00    -0.148 A  
HETATM   21  C   UNL     1      -8.832   8.515  65.661  1.00  0.00    -0.214 A  
ENDBRANCH   6   7
ENDBRANCH   5   6
ENDBRANCH   4   5
ENDBRANCH   2   4
TORSDOF 4
ENDMDL
MODEL      216
REMARK 921   NORMALIZED FREE ENERGY PREDICTED BY IDOCK:   -2.57 KCAL/MOL
REMARK 922        TOTAL FREE ENERGY PREDICTED BY IDOCK:   -3.62 KCAL/MOL
REMARK 923 INTER-LIGAND FREE ENERGY PREDICTED BY IDOCK:   -4.29 KCAL/MOL
REMARK 924 INTRA-LIGAND FREE ENERGY PREDICTED BY IDOCK:    0.67 KCAL/MOL
REMARK 927      BINDING AFFINITY PREDICTED BY RF-SCORE:    0.00 PKD
ROOT
HETATM    1  C   UNL     1      -5.236  14.201  67.442  1.00  0.00     0.410 C  
HETATM    2  N   UNL     1      -6.398  14.611  68.231  1.00  0.00    -0.111 NA 
HETATM    3  C   UNL     1      -6.565  13.713  69.375  1.00  0.00    -0.090 C  
ENDROOT
BRANCH   2   4
HETATM    4  C   UNL     1      -6.269  16.028  68.638  1.00  0.00    -0.115 C  
BRANCH   4   5
HETATM    5  C   UNL     1      -7.533  16.585  69.316  1.00  0.00    -0.183 C  
BRANCH   5   6
HETATM    6  C   UNL     1      -8.487  15.512  69.791  1.00  0.00     0.020 C  
BRANCH   6   7
HETATM    7  C   UNL     1      -9.762  15.333  69.381  1.00  0.00    -0.248 A  
HETATM    8  C   UNL     1     -10.845  15.221  70.389  1.00  0.00    -0.293 A  
HETATM    9  C   UNL     1     -11.194  16.332  71.169  1.00  0.00    -0.184 A  
HETATM   10  C   UNL     1     -12.288  16.274  72.031  1.00  0.00    -0.348 A  
HETATM   11  C   UNL     1     -13.032  15.102  72.133  1.00  0.00    -0.440 A  
HETATM   12  C   UNL     1     -12.679  13.982  71.377  1.00  0.00    -0.442 A  
HETATM   13  C   UNL     1     -11.599  14.032  70.483  1.00  0.00    -0.171 A  
HETATM   14  C   UNL     1     -11.284  12.812  69.714  1.00  0.00     0.010 A  
HETATM   15  C   UNL     1     -10.864  12.746  68.439  1.00  0.00    -0.272 A  
HETATM   16  C   UNL     1     -10.627  13.883  67.530  1.00  0.00    -0.256 A  
HETATM   17  C   UNL     1     -10.918  13.715  66.169  1.00  0.00    -0.285 A  
HETATM   18  C   UNL     1     -10.711  14.756  65.258  1.00  0.00    -0.406 A  
HETATM   19  C   UNL     1     -10.212  15.979  65.694  1.00  0.00    -0.412 A  
HETATM   20  C   UNL     1      -9.904  16.159  67.041  1.00  0.00    -0.248 A  
HETATM   21  C   UNL     1     -10.085  15.110  67.957  1.00  0.00    -0.222 A  
ENDBRANCH   6   7
ENDBRANCH   5   6
ENDBRANCH   4   5
ENDBRANCH   2   4
TORSDOF 4
ENDMDL
MODEL      217
REMARK 921   NORMALIZED FREE ENERGY PREDICTED BY IDOCK:   -2.53 KCAL/MOL
REMARK 922        TOTAL FREE ENERGY PREDICTED BY IDOCK:   -3.57 KCAL/MOL
REMARK 923 INTER-LIGAND FREE ENERGY PREDICTED BY IDOCK:   -3.34 KCAL/MOL
REMARK 924 INTRA-LIGAND FREE ENERGY PREDICTED BY IDOCK:   -0.23 KCAL/MOL
REMARK 927      BINDING AFFINITY PREDICTED BY RF-SCORE:    0.00 PKD
ROOT
HETATM    1  C   UNL     1      -5.922  11.850  70.214  1.00  0.00    -0.150 C  
HETATM    2  N   UNL     1      -6.615  11.575  68.954  1.00  0.00    -0.066 NA 
HETATM    3  C   UNL     1      -6.913  12.833  68.267  1.00  0.00    -0.097 C  
ENDROOT
BRANCH   2   4
HETATM    4  C   UNL     1      -5.819  10.649  68.120  1.00  0.00    -0.042 C  
BRANCH   4   5
HETATM    5  C   UNL     1      -6.534   9.317  67.837  1.00  0.00    -0.059 C  
BRANCH   5   6
HETATM    6  C   UNL     1      -7.357   8.812  69.001  1.00  0.00    -0.073 C  
BRANCH   6   7
HETATM    7  C   UNL     1      -8.517   8.125  68.926  1.00  0.00    -0.130 A  
HETATM    8  C   UNL     1      -9.580   8.372  69.930  1.00  0.00    -0.171 A  
HETATM    9  C   UNL     1     -10.248   9.604  69.954  1.00  0.00    -0.279 A  
HETATM   10  C   UNL     1     -11.329   9.804  70.812  1.00  0.00    -0.416 A  
HETATM   11  C   UNL     1     -11.741   8.783  71.662  1.00  0.00    -0.402 A  
HETATM   12  C   UNL     1     -11.068   7.559  71.662  1.00  0.00    -0.270 A  
HETATM   13  C   UNL     1      -9.997   7.330  70.785  1.00  0.00    -0.187 A  
HETATM   14  C   UNL     1      -9.334   6.012  70.837  1.00  0.00    -0.175 A  
HETATM   15  C   UNL     1      -8.849   5.310  69.799  1.00  0.00    -0.123 A  
HETATM   16  C   UNL     1      -8.877   5.706  68.378  1.00  0.00    -0.108 A  
HETATM   17  C   UNL     1      -9.045   4.703  67.413  1.00  0.00    -0.135 A  
HETATM   18  C   UNL     1      -9.076   5.017  66.051  1.00  0.00    -0.146 A  
HETATM   19  C   UNL     1      -8.939   6.337  65.633  1.00  0.00    -0.035 A  
HETATM   20  C   UNL     1      -8.757   7.344  66.577  1.00  0.00    -0.149 A  
HETATM   21  C   UNL     1      -8.699   7.034  67.945  1.00  0.00    -0.125 A  
ENDBRANCH   6   7
ENDBRANCH   5   6
ENDBRANCH   4   5
ENDBRANCH   2   4
TORSDOF 4
ENDMDL
MODEL      218
REMARK 921   NORMALIZED FREE ENERGY PREDICTED BY IDOCK:   -2.36 KCAL/MOL
REMARK 922        TOTAL FREE ENERGY PREDICTED BY IDOCK:   -3.36 KCAL/MOL
REMARK 923 INTER-LIGAND FREE ENERGY PREDICTED BY IDOCK:   -3.52 KCAL/MOL
REMARK 924 INTRA-LIGAND FREE ENERGY PREDICTED BY IDOCK:    0.16 KCAL/MOL
REMARK 927      BINDING AFFINITY PREDICTED BY RF-SCORE:    0.00 PKD
ROOT
HETATM    1  C   UNL     1     -11.425   7.424  72.645  1.00  0.00    -0.291 C  
HETATM    2  N   UNL     1     -10.311   8.374  72.628  1.00  0.00    -0.295 NA 
HETATM    3  C   UNL     1      -9.124   7.758  73.223  1.00  0.00    -0.244 C  
ENDROOT
BRANCH   2   4
HETATM    4  C   UNL     1     -10.068   8.858  71.252  1.00  0.00    -0.295 C  
BRANCH   4   5
HETATM    5  C   UNL     1      -8.585   9.140  70.958  1.00  0.00    -0.236 C  
BRANCH   5   6
HETATM    6  C   UNL     1      -8.314   9.516  69.518  1.00  0.00    -0.145 C  
BRANCH   6   7
HETATM    7  C   UNL     1      -8.420   8.704  68.443  1.00  0.00    -0.131 A  
HETATM    8  C   UNL     1      -8.285   7.238  68.618  1.00  0.00    -0.125 A  
HETATM    9  C   UNL     1      -9.264   6.523  69.322  1.00  0.00    -0.139 A  
HETATM   10  C   UNL     1      -9.211   5.131  69.389  1.00  0.00    -0.155 A  
HETATM   11  C   UNL     1      -8.172   4.444  68.767  1.00  0.00    -0.083 A  
HETATM   12  C   UNL     1      -7.179   5.148  68.083  1.00  0.00    -0.067 A  
HETATM   13  C   UNL     1      -7.232   6.546  67.981  1.00  0.00    -0.088 A  
HETATM   14  C   UNL     1      -6.151   7.224  67.239  1.00  0.00    -0.042 A  
HETATM   15  C   UNL     1      -6.269   8.299  66.442  1.00  0.00    -0.049 A  
HETATM   16  C   UNL     1      -7.510   9.034  66.131  1.00  0.00    -0.091 A  
HETATM   17  C   UNL     1      -7.657   9.575  64.846  1.00  0.00    -0.111 A  
HETATM   18  C   UNL     1      -8.810  10.284  64.496  1.00  0.00    -0.223 A  
HETATM   19  C   UNL     1      -9.831  10.464  65.422  1.00  0.00    -0.347 A  
HETATM   20  C   UNL     1      -9.696   9.946  66.708  1.00  0.00    -0.244 A  
HETATM   21  C   UNL     1      -8.531   9.254  67.076  1.00  0.00    -0.124 A  
ENDBRANCH   6   7
ENDBRANCH   5   6
ENDBRANCH   4   5
ENDBRANCH   2   4
TORSDOF 4
ENDMDL
MODEL      219
REMARK 921   NORMALIZED FREE ENERGY PREDICTED BY IDOCK:   -2.34 KCAL/MOL
REMARK 922        TOTAL FREE ENERGY PREDICTED BY IDOCK:   -3.34 KCAL/MOL
REMARK 923 INTER-LIGAND FREE ENERGY PREDICTED BY IDOCK:   -2.91 KCAL/MOL
REMARK 924 INTRA-LIGAND FREE ENERGY PREDICTED BY IDOCK:   -0.43 KCAL/MOL
REMARK 927      BINDING AFFINITY PREDICTED BY RF-SCORE:    0.00 PKD
ROOT
HETATM    1  C   UNL     1     -10.479   6.602  69.497  1.00  0.00    -0.218 C  
HETATM    2  N   UNL     1      -9.738   5.578  68.760  1.00  0.00    -0.135 NA 
HETATM    3  C   UNL     1      -9.920   4.275  69.402  1.00  0.00    -0.035 C  
ENDROOT
BRANCH   2   4
HETATM    4  C   UNL     1     -10.145   5.571  67.338  1.00  0.00    -0.179 C  
BRANCH   4   5
HETATM    5  C   UNL     1     -10.325   6.980  66.748  1.00  0.00    -0.291 C  
BRANCH   5   6
HETATM    6  C   UNL     1      -9.076   7.525  66.092  1.00  0.00    -0.179 C  
BRANCH   6   7
HETATM    7  C   UNL     1      -8.666   8.812  66.090  1.00  0.00    -0.184 A  
HETATM    8  C   UNL     1      -9.319   9.786  65.182  1.00  0.00    -0.322 A  
HETATM    9  C   UNL     1     -10.655  10.155  65.394  1.00  0.00     0.097 A  
HETATM   10  C   UNL     1     -11.242  11.158  64.624  1.00  0.00    -0.052 A  
HETATM   11  C   UNL     1     -10.505  11.789  63.626  1.00  0.00    -0.490 A  
HETATM   12  C   UNL     1      -9.180  11.414  63.391  1.00  0.00    -0.149 A  
HETATM   13  C   UNL     1      -8.565  10.427  64.176  1.00  0.00    -0.186 A  
HETATM   14  C   UNL     1      -7.162  10.083  63.875  1.00  0.00    -0.125 A  
HETATM   15  C   UNL     1      -6.197   9.775  64.759  1.00  0.00    -0.095 A  
HETATM   16  C   UNL     1      -6.333   9.717  66.227  1.00  0.00    -0.070 A  
HETATM   17  C   UNL     1      -5.241  10.115  67.010  1.00  0.00    -0.041 A  
HETATM   18  C   UNL     1      -5.310  10.078  68.407  1.00  0.00    -0.035 A  
HETATM   19  C   UNL     1      -6.470   9.645  69.040  1.00  0.00    -0.045 A  
HETATM   20  C   UNL     1      -7.560   9.233  68.277  1.00  0.00    -0.083 A  
HETATM   21  C   UNL     1      -7.490   9.243  66.874  1.00  0.00    -0.091 A  
ENDBRANCH   6   7
ENDBRANCH   5   6
ENDBRANCH   4   5
ENDBRANCH   2   4
TORSDOF 4
ENDMDL
MODEL      220
REMARK 921   NORMALIZED FREE ENERGY PREDICTED BY IDOCK:   -2.33 KCAL/MOL
REMARK 922        TOTAL FREE ENERGY PREDICTED BY IDOCK:   -3.33 KCAL/MOL
REMARK 923 INTER-LIGAND FREE ENERGY PREDICTED BY IDOCK:   -3.01 KCAL/MOL
REMARK 924 INTRA-LIGAND FREE ENERGY PREDICTED BY IDOCK:   -0.33 KCAL/MOL
REMARK 927      BINDING AFFINITY PREDICTED BY RF-SCORE:    0.00 PKD
ROOT
HETATM    1  C   UNL     1      -6.170   6.080  69.821  1.00  0.00    -0.027 C  
HETATM    2  N   UNL     1      -7.536   6.593  69.704  1.00  0.00    -0.096 NA 
HETATM    3  C   UNL     1      -8.394   5.955  70.705  1.00  0.00    -0.124 C  
ENDROOT
BRANCH   2   4
HETATM    4  C   UNL     1      -7.543   8.068  69.811  1.00  0.00    -0.092 C  
BRANCH   4   5
HETATM    5  C   UNL     1      -8.909   8.644  70.220  1.00  0.00    -0.158 C  
BRANCH   5   6
HETATM    6  C   UNL     1      -9.359   9.805  69.361  1.00  0.00    -0.212 C  
BRANCH   6   7
HETATM    7  C   UNL     1      -8.644  10.407  68.386  1.00  0.00    -0.128 A  
HETATM    8  C   UNL     1      -7.818  11.594  68.713  1.00  0.00    -0.096 A  
HETATM    9  C   UNL     1      -6.689  11.458  69.533  1.00  0.00    -0.119 A  
HETATM   10  C   UNL     1      -5.837  12.542  69.747  1.00  0.00    -0.123 A  
HETATM   11  C   UNL     1      -6.115  13.772  69.158  1.00  0.00    -0.095 A  
HETATM   12  C   UNL     1      -7.250  13.924  68.358  1.00  0.00    -0.110 A  
HETATM   13  C   UNL     1      -8.101  12.837  68.108  1.00  0.00    -0.158 A  
HETATM   14  C   UNL     1      -9.280  13.069  67.250  1.00  0.00    -0.213 A  
HETATM   15  C   UNL     1      -9.801  12.221  66.347  1.00  0.00    -0.242 A  
HETATM   16  C   UNL     1      -9.305  10.873  66.014  1.00  0.00    -0.215 A  
HETATM   17  C   UNL     1      -9.408  10.436  64.686  1.00  0.00    -0.304 A  
HETATM   18  C   UNL     1      -8.957   9.167  64.313  1.00  0.00    -0.076 A  
HETATM   19  C   UNL     1      -8.397   8.316  65.259  1.00  0.00    -0.175 A  
HETATM   20  C   UNL     1      -8.299   8.727  66.586  1.00  0.00    -0.108 A  
HETATM   21  C   UNL     1      -8.772   9.991  66.975  1.00  0.00    -0.137 A  
ENDBRANCH   6   7
ENDBRANCH   5   6
ENDBRANCH   4   5
ENDBRANCH   2   4
TORSDOF 4
ENDMDL
MODEL      221
REMARK 921   NORMALIZED FREE ENERGY PREDICTED BY IDOCK:   -2.32 KCAL/MOL
REMARK 922        TOTAL FREE ENERGY PREDICTED BY IDOCK:   -3.32 KCAL/MOL
REMARK 923 INTER-LIGAND FREE ENERGY PREDICTED BY IDOCK:   -2.75 KCAL/MOL
REMARK 924 INTRA-LIGAND FREE ENERGY PREDICTED BY IDOCK:   -0.56 KCAL/MOL
REMARK 927      BINDING AFFINITY PREDICTED BY RF-SCORE:    0.00 PKD
ROOT
HETATM    1  C   UNL     1     -10.252  13.274  67.878  1.00  0.00    -0.233 C  
HETATM    2  N   UNL     1     -11.448  12.745  67.219  1.00  0.00    -0.317 NA 
HETATM    3  C   UNL     1     -11.532  13.263  65.853  1.00  0.00    -0.332 C  
ENDROOT
BRANCH   2   4
HETATM    4  C   UNL     1     -11.449  11.266  67.265  1.00  0.00    -0.186 C  
BRANCH   4   5
HETATM    5  C   UNL     1     -10.122  10.641  66.801  1.00  0.00    -0.272 C  
BRANCH   5   6
HETATM    6  C   UNL     1      -9.534   9.662  67.793  1.00  0.00    -0.146 C  
BRANCH   6   7
HETATM    7  C   UNL     1      -8.223   9.401  67.983  1.00  0.00    -0.114 A  
HETATM    8  C   UNL     1      -7.223  10.470  67.747  1.00  0.00    -0.085 A  
HETATM    9  C   UNL     1      -7.178  11.586  68.594  1.00  0.00    -0.102 A  
HETATM   10  C   UNL     1      -6.166  12.536  68.457  1.00  0.00    -0.063 A  
HETATM   11  C   UNL     1      -5.202  12.388  67.464  1.00  0.00    -0.105 A  
HETATM   12  C   UNL     1      -5.250  11.291  66.601  1.00  0.00    -0.114 A  
HETATM   13  C   UNL     1      -6.244  10.310  66.743  1.00  0.00    -0.070 A  
HETATM   14  C   UNL     1      -6.233   9.176  65.798  1.00  0.00    -0.056 A  
HETATM   15  C   UNL     1      -6.530   7.894  66.071  1.00  0.00    -0.046 A  
HETATM   16  C   UNL     1      -6.930   7.341  67.378  1.00  0.00    -0.079 A  
HETATM   17  C   UNL     1      -6.505   6.046  67.709  1.00  0.00    -0.046 A  
HETATM   18  C   UNL     1      -6.856   5.468  68.932  1.00  0.00    -0.055 A  
HETATM   19  C   UNL     1      -7.635   6.175  69.843  1.00  0.00    -0.088 A  
HETATM   20  C   UNL     1      -8.077   7.457  69.525  1.00  0.00    -0.129 A  
HETATM   21  C   UNL     1      -7.751   8.034  68.288  1.00  0.00    -0.117 A  
ENDBRANCH   6   7
ENDBRANCH   5   6
ENDBRANCH   4   5
ENDBRANCH   2   4
TORSDOF 4
ENDMDL
MODEL      222
REMARK 921   NORMALIZED FREE ENERGY PREDICTED BY IDOCK:   -2.21 KCAL/MOL
REMARK 922        TOTAL FREE ENERGY PREDICTED BY IDOCK:   -3.17 KCAL/MOL
REMARK 923 INTER-LIGAND FREE ENERGY PREDICTED BY IDOCK:   -2.56 KCAL/MOL
REMARK 924 INTRA-LIGAND FREE ENERGY PREDICTED BY IDOCK:   -0.62 KCAL/MOL
REMARK 927      BINDING AFFINITY PREDICTED BY RF-SCORE:    0.00 PKD
ROOT
HETATM    1  C   UNL     1      -8.755  10.492  63.257  1.00  0.00    -0.195 C  
HETATM    2  N   UNL     1      -7.602   9.955  62.533  1.00  0.00    -0.117 NA 
HETATM    3  C   UNL     1      -6.455  10.850  62.691  1.00  0.00     0.070 C  
ENDROOT
BRANCH   2   4
HETATM    4  C   UNL     1      -7.311   8.575  62.981  1.00  0.00    -0.099 C  
BRANCH   4   5
HETATM    5  C   UNL     1      -8.179   8.123  64.167  1.00  0.00    -0.083 C  
BRANCH   5   6
HETATM    6  C   UNL     1      -7.465   7.190  65.119  1.00  0.00    -0.094 C  
BRANCH   6   7
HETATM    7  C   UNL     1      -7.996   6.595  66.209  1.00  0.00    -0.108 A  
HETATM    8  C   UNL     1      -8.261   5.136  66.189  1.00  0.00    -0.109 A  
HETATM    9  C   UNL     1      -7.193   4.230  66.148  1.00  0.00    -0.075 A  
HETATM   10  C   UNL     1      -7.425   2.858  66.251  1.00  0.00    -0.075 A  
HETATM   11  C   UNL     1      -8.726   2.381  66.380  1.00  0.00    -0.125 A  
HETATM   12  C   UNL     1      -9.800   3.274  66.399  1.00  0.00     0.235 A  
HETATM   13  C   UNL     1      -9.582   4.658  66.326  1.00  0.00    -0.187 A  
HETATM   14  C   UNL     1     -10.763   5.543  66.356  1.00  0.00    -0.262 A  
HETATM   15  C   UNL     1     -10.861   6.740  66.960  1.00  0.00    -0.453 A  
HETATM   16  C   UNL     1      -9.807   7.429  67.728  1.00  0.00    -0.187 A  
HETATM   17  C   UNL     1     -10.188   8.194  68.839  1.00  0.00    -0.221 A  
HETATM   18  C   UNL     1      -9.233   8.871  69.604  1.00  0.00    -0.152 A  
HETATM   19  C   UNL     1      -7.885   8.794  69.270  1.00  0.00    -0.100 A  
HETATM   20  C   UNL     1      -7.490   8.050  68.161  1.00  0.00    -0.101 A  
HETATM   21  C   UNL     1      -8.444   7.387  67.373  1.00  0.00    -0.119 A  
ENDBRANCH   6   7
ENDBRANCH   5   6
ENDBRANCH   4   5
ENDBRANCH   2   4
TORSDOF 4
ENDMDL
MODEL      223
REMARK 921   NORMALIZED FREE ENERGY PREDICTED BY IDOCK:   -2.13 KCAL/MOL
REMARK 922        TOTAL FREE ENERGY PREDICTED BY IDOCK:   -3.08 KCAL/MOL
REMARK 923 INTER-LIGAND FREE ENERGY PREDICTED BY IDOCK:   -2.49 KCAL/MOL
REMARK 924 INTRA-LIGAND FREE ENERGY PREDICTED BY IDOCK:   -0.59 KCAL/MOL
REMARK 927      BINDING AFFINITY PREDICTED BY RF-SCORE:    0.00 PKD
ROOT
HETATM    1  C   UNL     1     -11.773   8.402  72.664  1.00  0.00    -0.294 C  
HETATM    2  N   UNL     1     -12.111   8.397  71.240  1.00  0.00    -0.291 NA 
HETATM    3  C   UNL     1     -11.539   9.576  70.589  1.00  0.00    -0.283 C  
ENDROOT
BRANCH   2   4
HETATM    4  C   UNL     1     -11.669   7.133  70.611  1.00  0.00    -0.307 C  
BRANCH   4   5
HETATM    5  C   UNL     1     -10.143   7.037  70.445  1.00  0.00    -0.198 C  
BRANCH   5   6
HETATM    6  C   UNL     1      -9.698   6.897  69.005  1.00  0.00    -0.150 C  
BRANCH   6   7
HETATM    7  C   UNL     1      -8.425   6.801  68.564  1.00  0.00    -0.123 A  
HETATM    8  C   UNL     1      -7.752   5.480  68.556  1.00  0.00    -0.085 A  
HETATM    9  C   UNL     1      -8.188   4.476  67.680  1.00  0.00    -0.099 A  
HETATM   10  C   UNL     1      -7.487   3.275  67.577  1.00  0.00    -0.062 A  
HETATM   11  C   UNL     1      -6.356   3.061  68.358  1.00  0.00    -0.029 A  
HETATM   12  C   UNL     1      -5.925   4.045  69.250  1.00  0.00    -0.023 A  
HETATM   13  C   UNL     1      -6.601   5.271  69.346  1.00  0.00    -0.047 A  
HETATM   14  C   UNL     1      -6.089   6.267  70.307  1.00  0.00    -0.030 A  
HETATM   15  C   UNL     1      -6.047   7.600  70.145  1.00  0.00    -0.026 A  
HETATM   16  C   UNL     1      -6.504   8.359  68.965  1.00  0.00    -0.048 A  
HETATM   17  C   UNL     1      -5.791   9.510  68.600  1.00  0.00    -0.040 A  
HETATM   18  C   UNL     1      -6.179  10.271  67.493  1.00  0.00    -0.057 A  
HETATM   19  C   UNL     1      -7.283   9.893  66.735  1.00  0.00    -0.091 A  
HETATM   20  C   UNL     1      -8.010   8.761  67.091  1.00  0.00    -0.096 A  
HETATM   21  C   UNL     1      -7.643   8.005  68.216  1.00  0.00    -0.109 A  
ENDBRANCH   6   7
ENDBRANCH   5   6
ENDBRANCH   4   5
ENDBRANCH   2   4
TORSDOF 4
ENDMDL
MODEL      224
REMARK 921   NORMALIZED FREE ENERGY PREDICTED BY IDOCK:   -1.86 KCAL/MOL
REMARK 922        TOTAL FREE ENERGY PREDICTED BY IDOCK:   -2.75 KCAL/MOL
REMARK 923 INTER-LIGAND FREE ENERGY PREDICTED BY IDOCK:   -2.41 KCAL/MOL
REMARK 924 INTRA-LIGAND FREE ENERGY PREDICTED BY IDOCK:   -0.33 KCAL/MOL
REMARK 927      BINDING AFFINITY PREDICTED BY RF-SCORE:    0.00 PKD
ROOT
HETATM    1  C   UNL     1      -6.678  14.601  69.966  1.00  0.00    -0.135 C  
HETATM    2  N   UNL     1      -5.961  13.408  70.421  1.00  0.00    -0.155 NA 
HETATM    3  C   UNL     1      -6.029  13.315  71.880  1.00  0.00     0.854 C  
ENDROOT
BRANCH   2   4
HETATM    4  C   UNL     1      -6.493  12.201  69.751  1.00  0.00    -0.050 C  
BRANCH   4   5
HETATM    5  C   UNL     1      -6.301  10.914  70.571  1.00  0.00    -0.020 C  
BRANCH   5   6
HETATM    6  C   UNL     1      -7.409   9.903  70.379  1.00  0.00    -0.139 C  
BRANCH   6   7
HETATM    7  C   UNL     1      -8.239   9.813  69.316  1.00  0.00    -0.132 A  
HETATM    8  C   UNL     1      -7.724   9.285  68.030  1.00  0.00    -0.088 A  
HETATM    9  C   UNL     1      -7.354   7.937  67.923  1.00  0.00    -0.092 A  
HETATM   10  C   UNL     1      -6.985   7.401  66.690  1.00  0.00    -0.070 A  
HETATM   11  C   UNL     1      -6.967   8.210  65.557  1.00  0.00    -0.063 A  
HETATM   12  C   UNL     1      -7.312   9.559  65.656  1.00  0.00    -0.094 A  
HETATM   13  C   UNL     1      -7.714  10.108  66.883  1.00  0.00    -0.103 A  
HETATM   14  C   UNL     1      -8.068  11.541  66.914  1.00  0.00    -0.164 A  
HETATM   15  C   UNL     1      -9.048  12.116  67.633  1.00  0.00    -0.181 A  
HETATM   16  C   UNL     1      -9.985  11.437  68.547  1.00  0.00    -0.203 A  
HETATM   17  C   UNL     1     -11.299  11.921  68.629  1.00  0.00    -0.331 A  
HETATM   18  C   UNL     1     -12.231  11.319  69.481  1.00  0.00    -0.325 A  
HETATM   19  C   UNL     1     -11.865  10.227  70.261  1.00  0.00    -0.372 A  
HETATM   20  C   UNL     1     -10.561   9.742  70.202  1.00  0.00    -0.337 A  
HETATM   21  C   UNL     1      -9.612  10.356  69.368  1.00  0.00    -0.213 A  
ENDBRANCH   6   7
ENDBRANCH   5   6
ENDBRANCH   4   5
ENDBRANCH   2   4
TORSDOF 4
ENDMDL
MODEL      225
REMARK 921   NORMALIZED FREE ENERGY PREDICTED BY IDOCK:   -1.79 KCAL/MOL
REMARK 922        TOTAL FREE ENERGY PREDICTED BY IDOCK:   -2.66 KCAL/MOL
REMARK 923 INTER-LIGAND FREE ENERGY PREDICTED BY IDOCK:   -2.39 KCAL/MOL
REMARK 924 INTRA-LIGAND FREE ENERGY PREDICTED BY IDOCK:   -0.27 KCAL/MOL
REMARK 927      BINDING AFFINITY PREDICTED BY RF-SCORE:    0.00 PKD
ROOT
HETATM    1  C   UNL     1     -13.880   8.343  70.948  1.00  0.00     0.289 C  
HETATM    2  N   UNL     1     -13.179   7.543  71.953  1.00  0.00    -0.285 NA 
HETATM    3  C   UNL     1     -14.008   6.402  72.347  1.00  0.00     0.540 C  
ENDROOT
BRANCH   2   4
HETATM    4  C   UNL     1     -11.851   7.131  71.448  1.00  0.00    -0.308 C  
BRANCH   4   5
HETATM    5  C   UNL     1     -11.569   7.609  70.014  1.00  0.00     0.075 C  
BRANCH   5   6
HETATM    6  C   UNL     1     -10.714   6.652  69.214  1.00  0.00    -0.307 C  
BRANCH   6   7
HETATM    7  C   UNL     1      -9.705   5.889  69.687  1.00  0.00    -0.199 A  
HETATM    8  C   UNL     1      -9.643   4.452  69.328  1.00  0.00    -0.261 A  
HETATM    9  C   UNL     1      -9.382   4.071  68.004  1.00  0.00    -0.220 A  
HETATM   10  C   UNL     1      -9.202   2.727  67.678  1.00  0.00    -0.240 A  
HETATM   11  C   UNL     1      -9.297   1.753  68.668  1.00  0.00    -0.233 A  
HETATM   12  C   UNL     1      -9.579   2.119  69.985  1.00  0.00    -0.060 A  
HETATM   13  C   UNL     1      -9.735   3.469  70.336  1.00  0.00    -0.176 A  
HETATM   14  C   UNL     1     -10.028   3.784  71.748  1.00  0.00    -0.227 A  
HETATM   15  C   UNL     1      -9.570   4.832  72.454  1.00  0.00    -0.184 A  
HETATM   16  C   UNL     1      -8.671   5.896  71.970  1.00  0.00    -0.137 A  
HETATM   17  C   UNL     1      -7.736   6.433  72.866  1.00  0.00    -0.102 A  
HETATM   18  C   UNL     1      -6.859   7.446  72.465  1.00  0.00    -0.067 A  
HETATM   19  C   UNL     1      -6.903   7.935  71.164  1.00  0.00    -0.045 A  
HETATM   20  C   UNL     1      -7.834   7.423  70.264  1.00  0.00    -0.095 A  
HETATM   21  C   UNL     1      -8.735   6.424  70.666  1.00  0.00    -0.144 A  
ENDBRANCH   6   7
ENDBRANCH   5   6
ENDBRANCH   4   5
ENDBRANCH   2   4
TORSDOF 4
ENDMDL
MODEL      226
REMARK 921   NORMALIZED FREE ENERGY PREDICTED BY IDOCK:   -1.77 KCAL/MOL
REMARK 922        TOTAL FREE ENERGY PREDICTED BY IDOCK:   -2.64 KCAL/MOL
REMARK 923 INTER-LIGAND FREE ENERGY PREDICTED BY IDOCK:   -2.49 KCAL/MOL
REMARK 924 INTRA-LIGAND FREE ENERGY PREDICTED BY IDOCK:   -0.15 KCAL/MOL
REMARK 927      BINDING AFFINITY PREDICTED BY RF-SCORE:    0.00 PKD
ROOT
HETATM    1  C   UNL     1     -10.094   5.695  70.457  1.00  0.00    -0.217 C  
HETATM    2  N   UNL     1      -9.367   4.474  70.106  1.00  0.00    -0.131 NA 
HETATM    3  C   UNL     1      -9.549   3.469  71.154  1.00  0.00    -0.170 C  
ENDROOT
BRANCH   2   4
HETATM    4  C   UNL     1      -9.789   3.988  68.775  1.00  0.00     0.025 C  
BRANCH   4   5
HETATM    5  C   UNL     1     -10.018   5.119  67.757  1.00  0.00    -0.202 C  
BRANCH   5   6
HETATM    6  C   UNL     1      -8.738   5.686  67.186  1.00  0.00    -0.108 C  
BRANCH   6   7
HETATM    7  C   UNL     1      -8.443   6.994  67.019  1.00  0.00    -0.121 A  
HETATM    8  C   UNL     1      -7.641   7.419  65.847  1.00  0.00    -0.089 A  
HETATM    9  C   UNL     1      -8.178   7.320  64.556  1.00  0.00    -0.013 A  
HETATM   10  C   UNL     1      -7.482   7.828  63.460  1.00  0.00    -0.115 A  
HETATM   11  C   UNL     1      -6.238   8.425  63.642  1.00  0.00    -0.073 A  
HETATM   12  C   UNL     1      -5.683   8.509  64.921  1.00  0.00    -0.048 A  
HETATM   13  C   UNL     1      -6.382   8.029  66.038  1.00  0.00    -0.046 A  
HETATM   14  C   UNL     1      -5.737   8.153  67.360  1.00  0.00    -0.039 A  
HETATM   15  C   UNL     1      -6.338   8.436  68.529  1.00  0.00    -0.054 A  
HETATM   16  C   UNL     1      -7.775   8.685  68.744  1.00  0.00    -0.097 A  
HETATM   17  C   UNL     1      -8.148   9.625  69.715  1.00  0.00    -0.160 A  
HETATM   18  C   UNL     1      -9.496   9.901  69.964  1.00  0.00    -0.246 A  
HETATM   19  C   UNL     1     -10.490   9.243  69.248  1.00  0.00    -0.228 A  
HETATM   20  C   UNL     1     -10.138   8.296  68.290  1.00  0.00    -0.231 A  
HETATM   21  C   UNL     1      -8.788   7.994  68.050  1.00  0.00    -0.128 A  
ENDBRANCH   6   7
ENDBRANCH   5   6
ENDBRANCH   4   5
ENDBRANCH   2   4
TORSDOF 4
ENDMDL
MODEL      227
REMARK 921   NORMALIZED FREE ENERGY PREDICTED BY IDOCK:   -1.65 KCAL/MOL
REMARK 922        TOTAL FREE ENERGY PREDICTED BY IDOCK:   -2.48 KCAL/MOL
REMARK 923 INTER-LIGAND FREE ENERGY PREDICTED BY IDOCK:   -1.79 KCAL/MOL
REMARK 924 INTRA-LIGAND FREE ENERGY PREDICTED BY IDOCK:   -0.69 KCAL/MOL
REMARK 927      BINDING AFFINITY PREDICTED BY RF-SCORE:    0.00 PKD
ROOT
HETATM    1  C   UNL     1      -8.404   9.343  67.475  1.00  0.00    -0.122 C  
HETATM    2  N   UNL     1      -6.974   9.635  67.588  1.00  0.00    -0.086 NA 
HETATM    3  C   UNL     1      -6.778  11.063  67.846  1.00  0.00    -0.063 C  
ENDROOT
BRANCH   2   4
HETATM    4  C   UNL     1      -6.355   8.782  68.626  1.00  0.00    -0.053 C  
BRANCH   4   5
HETATM    5  C   UNL     1      -5.636   7.549  68.053  1.00  0.00    -0.027 C  
BRANCH   5   6
HETATM    6  C   UNL     1      -5.653   6.354  68.979  1.00  0.00    -0.016 C  
BRANCH   6   7
HETATM    7  C   UNL     1      -6.681   5.498  69.167  1.00  0.00    -0.053 A  
HETATM    8  C   UNL     1      -6.804   4.301  68.301  1.00  0.00    -0.048 A  
HETATM    9  C   UNL     1      -5.859   3.270  68.392  1.00  0.00    -0.023 A  
HETATM   10  C   UNL     1      -6.031   2.088  67.672  1.00  0.00    -0.020 A  
HETATM   11  C   UNL     1      -7.139   1.933  66.844  1.00  0.00    -0.047 A  
HETATM   12  C   UNL     1      -8.075   2.963  66.728  1.00  0.00    -0.084 A  
HETATM   13  C   UNL     1      -7.933   4.147  67.468  1.00  0.00    -0.091 A  
HETATM   14  C   UNL     1      -8.962   5.192  67.299  1.00  0.00    -0.112 A  
HETATM   15  C   UNL     1      -9.457   6.000  68.252  1.00  0.00    -0.117 A  
HETATM   16  C   UNL     1      -9.080   6.015  69.678  1.00  0.00    -0.139 A  
HETATM   17  C   UNL     1     -10.074   6.299  70.625  1.00  0.00    -0.230 A  
HETATM   18  C   UNL     1      -9.775   6.330  71.990  1.00  0.00    -0.164 A  
HETATM   19  C   UNL     1      -8.480   6.078  72.430  1.00  0.00    -0.116 A  
HETATM   20  C   UNL     1      -7.476   5.808  71.503  1.00  0.00    -0.093 A  
HETATM   21  C   UNL     1      -7.762   5.800  70.128  1.00  0.00    -0.087 A  
ENDBRANCH   6   7
ENDBRANCH   5   6
ENDBRANCH   4   5
ENDBRANCH   2   4
TORSDOF 4
ENDMDL
MODEL      228
REMARK 921   NORMALIZED FREE ENERGY PREDICTED BY IDOCK:   -1.54 KCAL/MOL
REMARK 922        TOTAL FREE ENERGY PREDICTED BY IDOCK:   -2.35 KCAL/MOL
REMARK 923 INTER-LIGAND FREE ENERGY PREDICTED BY IDOCK:   -2.77 KCAL/MOL
REMARK 924 INTRA-LIGAND FREE ENERGY PREDICTED BY IDOCK:    0.42 KCAL/MOL
REMARK 927      BINDING AFFINITY PREDICTED BY RF-SCORE:    0.00 PKD
ROOT
HETATM    1  C   UNL     1     -13.900   8.371  70.968  1.00  0.00     0.110 C  
HETATM    2  N   UNL     1     -13.370   7.496  72.016  1.00  0.00    -0.197 NA 
HETATM    3  C   UNL     1     -14.372   6.492  72.378  1.00  0.00     0.382 C  
ENDROOT
BRANCH   2   4
HETATM    4  C   UNL     1     -12.092   6.890  71.583  1.00  0.00    -0.353 C  
BRANCH   4   5
HETATM    5  C   UNL     1     -11.785   7.114  70.092  1.00  0.00    -0.165 C  
BRANCH   5   6
HETATM    6  C   UNL     1     -11.048   5.962  69.447  1.00  0.00    -0.369 C  
BRANCH   6   7
HETATM    7  C   UNL     1      -9.974   5.313  69.948  1.00  0.00    -0.309 A  
HETATM    8  C   UNL     1      -8.629   5.582  69.385  1.00  0.00    -0.104 A  
HETATM    9  C   UNL     1      -8.028   6.834  69.572  1.00  0.00    -0.125 A  
HETATM   10  C   UNL     1      -6.717   7.058  69.153  1.00  0.00    -0.049 A  
HETATM   11  C   UNL     1      -6.002   6.039  68.530  1.00  0.00    -0.020 A  
HETATM   12  C   UNL     1      -6.599   4.794  68.319  1.00  0.00    -0.042 A  
HETATM   13  C   UNL     1      -7.907   4.543  68.760  1.00  0.00    -0.071 A  
HETATM   14  C   UNL     1      -8.474   3.203  68.506  1.00  0.00    -0.103 A  
HETATM   15  C   UNL     1      -9.281   2.500  69.319  1.00  0.00    -0.196 A  
HETATM   16  C   UNL     1      -9.774   2.915  70.646  1.00  0.00    -0.104 A  
HETATM   17  C   UNL     1      -9.936   1.930  71.631  1.00  0.00    -0.201 A  
HETATM   18  C   UNL     1     -10.403   2.264  72.906  1.00  0.00    -0.234 A  
HETATM   19  C   UNL     1     -10.714   3.583  73.216  1.00  0.00    -0.291 A  
HETATM   20  C   UNL     1     -10.572   4.572  72.245  1.00  0.00    -0.173 A  
HETATM   21  C   UNL     1     -10.128   4.242  70.955  1.00  0.00    -0.161 A  
ENDBRANCH   6   7
ENDBRANCH   5   6
ENDBRANCH   4   5
ENDBRANCH   2   4
TORSDOF 4
ENDMDL
MODEL      229
REMARK 921   NORMALIZED FREE ENERGY PREDICTED BY IDOCK:    0.32 KCAL/MOL
REMARK 922        TOTAL FREE ENERGY PREDICTED BY IDOCK:   -0.06 KCAL/MOL
REMARK 923 INTER-LIGAND FREE ENERGY PREDICTED BY IDOCK:    0.55 KCAL/MOL
REMARK 924 INTRA-LIGAND FREE ENERGY PREDICTED BY IDOCK:   -0.61 KCAL/MOL
REMARK 927      BINDING AFFINITY PREDICTED BY RF-SCORE:    0.00 PKD
ROOT
HETATM    1  C   UNL     1      -7.154  14.180  70.399  1.00  0.00     0.557 C  
HETATM    2  N   UNL     1      -6.599  15.110  69.414  1.00  0.00    -0.138 NA 
HETATM    3  C   UNL     1      -5.150  14.926  69.319  1.00  0.00    -0.090 C  
ENDROOT
BRANCH   2   4
HETATM    4  C   UNL     1      -7.278  14.942  68.110  1.00  0.00    -0.119 C  
BRANCH   4   5
HETATM    5  C   UNL     1      -8.664  14.286  68.224  1.00  0.00    -0.179 C  
BRANCH   5   6
HETATM    6  C   UNL     1      -9.804  15.214  67.864  1.00  0.00    -0.216 C  
BRANCH   6   7
HETATM    7  C   UNL     1     -11.109  14.881  67.766  1.00  0.00    -0.313 A  
HETATM    8  C   UNL     1     -11.869  14.535  68.992  1.00  0.00    -0.354 A  
HETATM    9  C   UNL     1     -12.136  15.521  69.952  1.00  0.00    -0.378 A  
HETATM   10  C   UNL     1     -12.952  15.237  71.047  1.00  0.00    -0.526 A  
HETATM   11  C   UNL     1     -13.494  13.964  71.200  1.00  0.00    -0.199 A  
HETATM   12  C   UNL     1     -13.216  12.969  70.261  1.00  0.00     0.779 A  
HETATM   13  C   UNL     1     -12.421  13.245  69.138  1.00  0.00     0.194 A  
HETATM   14  C   UNL     1     -12.171  12.146  68.184  1.00  0.00     0.197 A  
HETATM   15  C   UNL     1     -12.093  12.240  66.846  1.00  0.00    -0.026 A  
HETATM   16  C   UNL     1     -12.243  13.464  66.037  1.00  0.00    -0.491 A  
HETATM   17  C   UNL     1     -12.856  13.359  64.781  1.00  0.00    -0.222 A  
HETATM   18  C   UNL     1     -13.023  14.486  63.969  1.00  0.00     0.875 A  
HETATM   19  C   UNL     1     -12.581  15.732  64.401  1.00  0.00     0.524 A  
HETATM   20  C   UNL     1     -11.957  15.852  65.640  1.00  0.00     0.945 A  
HETATM   21  C   UNL     1     -11.763  14.722  66.450  1.00  0.00    -0.268 A  
ENDBRANCH   6   7
ENDBRANCH   5   6
ENDBRANCH   4   5
ENDBRANCH   2   4
TORSDOF 4
ENDMDL
MODEL      230
REMARK 921   NORMALIZED FREE ENERGY PREDICTED BY IDOCK:    4.43 KCAL/MOL
REMARK 922        TOTAL FREE ENERGY PREDICTED BY IDOCK:    5.01 KCAL/MOL
REMARK 923 INTER-LIGAND FREE ENERGY PREDICTED BY IDOCK:    5.70 KCAL/MOL
REMARK 924 INTRA-LIGAND FREE ENERGY PREDICTED BY IDOCK:   -0.69 KCAL/MOL
REMARK 927      BINDING AFFINITY PREDICTED BY RF-SCORE:    0.00 PKD
ROOT
HETATM    1  C   UNL     1      -9.058  11.764  65.168  1.00  0.00     0.173 C  
HETATM    2  N   UNL     1      -8.539  12.254  66.446  1.00  0.00    -0.039 NA 
HETATM    3  C   UNL     1      -8.138  13.656  66.315  1.00  0.00     1.327 C  
ENDROOT
BRANCH   2   4
HETATM    4  C   UNL     1      -9.535  12.048  67.520  1.00  0.00    -0.178 C  
BRANCH   4   5
HETATM    5  C   UNL     1      -8.932  12.116  68.933  1.00  0.00     0.237 C  
BRANCH   5   6
HETATM    6  C   UNL     1      -9.920  12.551  69.993  1.00  0.00     2.540 C  
BRANCH   6   7
HETATM    7  C   UNL     1     -10.444  13.787  70.142  1.00  0.00     1.148 A  
HETATM    8  C   UNL     1     -11.778  13.945  70.770  1.00  0.00    -0.142 A  
HETATM    9  C   UNL     1     -11.952  13.648  72.129  1.00  0.00     0.913 A  
HETATM   10  C   UNL     1     -13.169  13.907  72.758  1.00  0.00    -0.543 A  
HETATM   11  C   UNL     1     -14.226  14.449  72.033  1.00  0.00    -0.639 A  
HETATM   12  C   UNL     1     -14.070  14.728  70.673  1.00  0.00     0.385 A  
HETATM   13  C   UNL     1     -12.844  14.501  70.031  1.00  0.00    -0.067 A  
HETATM   14  C   UNL     1     -12.750  14.821  68.593  1.00  0.00     0.652 A  
HETATM   15  C   UNL     1     -11.692  15.345  67.949  1.00  0.00    -0.198 A  
HETATM   16  C   UNL     1     -10.395  15.717  68.543  1.00  0.00    -0.229 A  
HETATM   17  C   UNL     1      -9.726  16.837  68.030  1.00  0.00    -0.243 A  
HETATM   18  C   UNL     1      -8.491  17.236  68.552  1.00  0.00    -0.267 A  
HETATM   19  C   UNL     1      -7.907  16.521  69.592  1.00  0.00     0.373 A  
HETATM   20  C   UNL     1      -8.550  15.397  70.105  1.00  0.00     0.604 A  
HETATM   21  C   UNL     1      -9.778  14.976  69.570  1.00  0.00    -0.113 A  
ENDBRANCH   6   7
ENDBRANCH   5   6
ENDBRANCH   4   5
ENDBRANCH   2   4
TORSDOF 4
ENDMDL
MODEL      231
REMARK 921   NORMALIZED FREE ENERGY PREDICTED BY IDOCK:    5.88 KCAL/MOL
REMARK 922        TOTAL FREE ENERGY PREDICTED BY IDOCK:    6.80 KCAL/MOL
REMARK 923 INTER-LIGAND FREE ENERGY PREDICTED BY IDOCK:    3.18 KCAL/MOL
REMARK 924 INTRA-LIGAND FREE ENERGY PREDICTED BY IDOCK:    3.62 KCAL/MOL
REMARK 927      BINDING AFFINITY PREDICTED BY RF-SCORE:    0.00 PKD
ROOT
HETATM    1  C   UNL     1      -7.285  15.209  67.533  1.00  0.00    -0.200 C  
HETATM    2  N   UNL     1      -7.544  16.609  67.192  1.00  0.00    -0.167 NA 
HETATM    3  C   UNL     1      -6.614  17.477  67.917  1.00  0.00    -0.174 C  
ENDROOT
BRANCH   2   4
HETATM    4  C   UNL     1      -7.474  16.803  65.727  1.00  0.00     0.716 C  
BRANCH   4   5
HETATM    5  C   UNL     1      -8.853  16.804  65.046  1.00  0.00     2.878 C  
BRANCH   5   6
HETATM    6  C   UNL     1      -9.942  16.169  65.882  1.00  0.00    -0.384 C  
BRANCH   6   7
HETATM    7  C   UNL     1     -10.474  16.668  67.020  1.00  0.00    -0.283 A  
HETATM    8  C   UNL     1     -10.285  18.101  67.349  1.00  0.00    -0.383 A  
HETATM    9  C   UNL     1     -10.899  19.087  66.565  1.00  0.00    -0.291 A  
HETATM   10  C   UNL     1     -10.828  20.430  66.935  1.00  0.00     0.354 A  
HETATM   11  C   UNL     1     -10.130  20.799  68.082  1.00  0.00     0.065 A  
HETATM   12  C   UNL     1      -9.496  19.827  68.857  1.00  0.00    -0.310 A  
HETATM   13  C   UNL     1      -9.581  18.469  68.516  1.00  0.00    -0.388 A  
HETATM   14  C   UNL     1      -8.889  17.495  69.383  1.00  0.00     0.427 A  
HETATM   15  C   UNL     1      -9.316  16.266  69.719  1.00  0.00     0.283 A  
HETATM   16  C   UNL     1     -10.574  15.623  69.296  1.00  0.00    -0.238 A  
HETATM   17  C   UNL     1     -11.225  14.777  70.204  1.00  0.00    -0.256 A  
HETATM   18  C   UNL     1     -12.419  14.137  69.856  1.00  0.00    -0.313 A  
HETATM   19  C   UNL     1     -12.979  14.334  68.599  1.00  0.00     1.637 A  
HETATM   20  C   UNL     1     -12.338  15.160  67.679  1.00  0.00     0.544 A  
HETATM   21  C   UNL     1     -11.126  15.786  68.010  1.00  0.00    -0.337 A  
ENDBRANCH   6   7
ENDBRANCH   5   6
ENDBRANCH   4   5
ENDBRANCH   2   4
TORSDOF 4
ENDMDL
MODEL      232
REMARK 921   NORMALIZED FREE ENERGY PREDICTED BY IDOCK:    9.77 KCAL/MOL
REMARK 922        TOTAL FREE ENERGY PREDICTED BY IDOCK:   11.60 KCAL/MOL
REMARK 923 INTER-LIGAND FREE ENERGY PREDICTED BY IDOCK:   11.59 KCAL/MOL
REMARK 924 INTRA-LIGAND FREE ENERGY PREDICTED BY IDOCK:    0.00 KCAL/MOL
REMARK 927      BINDING AFFINITY PREDICTED BY RF-SCORE:    0.00 PKD
ROOT
HETATM    1  C   UNL     1      -6.789  14.513  70.320  1.00  0.00     0.046 C  
HETATM    2  N   UNL     1      -6.478  13.394  71.211  1.00  0.00     0.497 NA 
HETATM    3  C   UNL     1      -7.433  13.362  72.320  1.00  0.00     8.326 C  
ENDROOT
BRANCH   2   4
HETATM    4  C   UNL     1      -6.450  12.124  70.452  1.00  0.00     0.460 C  
BRANCH   4   5
HETATM    5  C   UNL     1      -5.192  11.280  70.722  1.00  0.00    -0.119 C  
BRANCH   5   6
HETATM    6  C   UNL     1      -5.459   9.792  70.759  1.00  0.00    -0.057 C  
BRANCH   6   7
HETATM    7  C   UNL     1      -6.642   9.182  70.528  1.00  0.00    -0.061 A  
HETATM    8  C   UNL     1      -7.224   9.208  69.164  1.00  0.00    -0.067 A  
HETATM    9  C   UNL     1      -6.599   8.510  68.122  1.00  0.00    -0.061 A  
HETATM   10  C   UNL     1      -7.201   8.426  66.867  1.00  0.00    -0.079 A  
HETATM   11  C   UNL     1      -8.423   9.053  66.638  1.00  0.00    -0.126 A  
HETATM   12  C   UNL     1      -9.043   9.771  67.663  1.00  0.00    -0.140 A  
HETATM   13  C   UNL     1      -8.466   9.840  68.940  1.00  0.00    -0.129 A  
HETATM   14  C   UNL     1      -9.178  10.613  69.977  1.00  0.00     0.604 A  
HETATM   15  C   UNL     1      -9.277  10.314  71.283  1.00  0.00     2.793 A  
HETATM   16  C   UNL     1      -8.695   9.143  71.966  1.00  0.00     0.375 A  
HETATM   17  C   UNL     1      -9.413   8.565  73.022  1.00  0.00    -0.127 A  
HETATM   18  C   UNL     1      -8.909   7.456  73.708  1.00  0.00    -0.260 A  
HETATM   19  C   UNL     1      -7.683   6.907  73.349  1.00  0.00    -0.097 A  
HETATM   20  C   UNL     1      -6.949   7.477  72.311  1.00  0.00    -0.064 A  
HETATM   21  C   UNL     1      -7.435   8.606  71.633  1.00  0.00    -0.121 A  
ENDBRANCH   6   7
ENDBRANCH   5   6
ENDBRANCH   4   5
ENDBRANCH   2   4
TORSDOF 4
ENDMDL
MODEL      233
REMARK 921   NORMALIZED FREE ENERGY PREDICTED BY IDOCK:   27.93 KCAL/MOL
REMARK 922        TOTAL FREE ENERGY PREDICTED BY IDOCK:   34.01 KCAL/MOL
REMARK 923 INTER-LIGAND FREE ENERGY PREDICTED BY IDOCK:   13.13 KCAL/MOL
REMARK 924 INTRA-LIGAND FREE ENERGY PREDICTED BY IDOCK:   20.88 KCAL/MOL
REMARK 927      BINDING AFFINITY PREDICTED BY RF-SCORE:    0.00 PKD
ROOT
HETATM    1  C   UNL     1      -8.046  16.143  67.594  1.00  0.00    -0.147 C  
HETATM    2  N   UNL     1      -8.573  17.506  67.680  1.00  0.00    -0.217 NA 
HETATM    3  C   UNL     1      -7.558  18.396  68.245  1.00  0.00    -0.286 C  
ENDROOT
BRANCH   2   4
HETATM    4  C   UNL     1      -9.048  17.959  66.354  1.00  0.00    -0.235 C  
BRANCH   4   5
HETATM    5  C   UNL     1     -10.475  18.532  66.381  1.00  0.00    -0.443 C  
BRANCH   5   6
HETATM    6  C   UNL     1     -11.415  17.773  67.291  1.00  0.00     0.968 C  
BRANCH   6   7
HETATM    7  C   UNL     1     -11.150  17.349  68.546  1.00  0.00     0.076 A  
HETATM    8  C   UNL     1      -9.964  17.880  69.262  1.00  0.00    -0.107 A  
HETATM    9  C   UNL     1      -9.925  19.226  69.651  1.00  0.00     0.113 A  
HETATM   10  C   UNL     1      -8.872  19.705  70.429  1.00  0.00     1.565 A  
HETATM   11  C   UNL     1      -7.843  18.849  70.811  1.00  0.00     3.218 A  
HETATM   12  C   UNL     1      -7.861  17.512  70.410  1.00  0.00     3.234 A  
HETATM   13  C   UNL     1      -8.927  17.005  69.652  1.00  0.00     0.721 A  
HETATM   14  C   UNL     1      -8.882  15.581  69.266  1.00  0.00    -0.256 A  
HETATM   15  C   UNL     1      -9.920  14.730  69.195  1.00  0.00    -0.184 A  
HETATM   16  C   UNL     1     -11.332  15.035  69.492  1.00  0.00    -0.308 A  
HETATM   17  C   UNL     1     -12.117  14.036  70.084  1.00  0.00    -0.419 A  
HETATM   18  C   UNL     1     -13.463  14.267  70.385  1.00  0.00     0.370 A  
HETATM   19  C   UNL     1     -14.043  15.498  70.100  1.00  0.00     1.620 A  
HETATM   20  C   UNL     1     -13.282  16.498  69.500  1.00  0.00     3.799 A  
HETATM   21  C   UNL     1     -11.937  16.266  69.171  1.00  0.00     0.051 A  
ENDBRANCH   6   7
ENDBRANCH   5   6
ENDBRANCH   4   5
ENDBRANCH   2   4
TORSDOF 4
ENDMDL
