MODEL        1
REMARK 921   NORMALIZED FREE ENERGY PREDICTED BY IDOCK:   -6.94 KCAL/MOL
REMARK 922        TOTAL FREE ENERGY PREDICTED BY IDOCK:   -9.11 KCAL/MOL
REMARK 923 INTER-LIGAND FREE ENERGY PREDICTED BY IDOCK:   -8.56 KCAL/MOL
REMARK 924 INTRA-LIGAND FREE ENERGY PREDICTED BY IDOCK:   -0.55 KCAL/MOL
REMARK 927      BINDING AFFINITY PREDICTED BY RF-SCORE:    0.00 PKD
ROOT
HETATM    1  C   UNL     1     -10.586  19.347  67.544  1.00  0.00    -0.591 C  
HETATM    2  C   UNL     1     -10.161  17.995  68.122  1.00  0.00    -0.378 C  
HETATM    3  C   UNL     1     -10.640  16.828  67.251  1.00  0.00    -0.275 C  
HETATM    4  C   UNL     1      -9.789  16.639  65.990  1.00  0.00    -0.309 C  
HETATM    5  C   UNL     1      -8.321  16.419  66.376  1.00  0.00    -0.363 C  
HETATM    6  C   UNL     1      -6.346  17.182  67.738  1.00  0.00    -0.158 C  
HETATM    7  C   UNL     1      -7.735  17.588  67.201  1.00  0.00    -0.228 C  
HETATM    8  C   UNL     1      -7.521  18.829  66.313  1.00  0.00    -0.288 C  
HETATM    9  C   UNL     1      -8.652  17.898  68.410  1.00  0.00    -0.296 C  
ENDROOT
BRANCH   4  10
HETATM   10  O   UNL     1     -10.243  15.483  65.256  1.00  0.00    -0.360 OA 
BRANCH  10  11
HETATM   11  C   UNL     1     -11.363  15.680  64.500  1.00  0.00    -0.320 C  
HETATM   12  O   UNL     1     -11.640  16.715  63.898  1.00  0.00    -1.204 OA 
BRANCH  11  13
HETATM   13  C   UNL     1     -12.268  14.443  64.492  1.00  0.00    -0.463 C  
HETATM   14  O   UNL     1     -12.331  13.865  63.184  1.00  0.00    -1.122 OA 
HETATM   15  H   UNL     1     -12.891  13.099  63.180  1.00  0.00     0.000 HD 
BRANCH  13  16
HETATM   16  C   UNL     1     -11.795  13.367  65.447  1.00  0.00    -0.381 A  
HETATM   17  C   UNL     1     -12.126  13.441  66.809  1.00  0.00    -0.419 A  
HETATM   18  C   UNL     1     -11.731  12.434  67.691  1.00  0.00    -0.412 A  
HETATM   19  C   UNL     1     -11.005  11.341  67.223  1.00  0.00    -0.342 A  
HETATM   20  C   UNL     1     -10.668  11.254  65.875  1.00  0.00    -0.291 A  
HETATM   21  C   UNL     1     -11.059  12.261  64.991  1.00  0.00    -0.359 A  
ENDBRANCH  13  16
ENDBRANCH  11  13
ENDBRANCH  10  11
ENDBRANCH   4  10
TORSDOF 4
ENDMDL
MODEL        2
REMARK 921   NORMALIZED FREE ENERGY PREDICTED BY IDOCK:   -6.66 KCAL/MOL
REMARK 922        TOTAL FREE ENERGY PREDICTED BY IDOCK:   -8.77 KCAL/MOL
REMARK 923 INTER-LIGAND FREE ENERGY PREDICTED BY IDOCK:   -8.28 KCAL/MOL
REMARK 924 INTRA-LIGAND FREE ENERGY PREDICTED BY IDOCK:   -0.50 KCAL/MOL
REMARK 927      BINDING AFFINITY PREDICTED BY RF-SCORE:    0.00 PKD
ROOT
HETATM    1  C   UNL     1     -10.867  16.449  69.628  1.00  0.00    -0.346 C  
HETATM    2  C   UNL     1      -9.513  16.284  68.935  1.00  0.00    -0.252 C  
HETATM    3  C   UNL     1      -9.626  15.443  67.659  1.00  0.00    -0.210 C  
HETATM    4  C   UNL     1     -10.216  16.227  66.481  1.00  0.00    -0.300 C  
HETATM    5  C   UNL     1      -9.363  17.470  66.199  1.00  0.00    -0.168 C  
HETATM    6  C   UNL     1      -8.200  19.503  67.124  1.00  0.00    -0.308 C  
HETATM    7  C   UNL     1      -9.254  18.414  67.419  1.00  0.00    -0.275 C  
HETATM    8  C   UNL     1     -10.589  19.143  67.666  1.00  0.00    -0.546 C  
HETATM    9  C   UNL     1      -8.794  17.618  68.666  1.00  0.00    -0.259 C  
ENDROOT
BRANCH   4  10
HETATM   10  O   UNL     1     -10.225  15.405  65.295  1.00  0.00    -0.360 OA 
BRANCH  10  11
HETATM   11  C   UNL     1     -11.293  15.597  64.465  1.00  0.00    -0.320 C  
HETATM   12  O   UNL     1     -11.547  16.639  63.867  1.00  0.00    -1.204 OA 
BRANCH  11  13
HETATM   13  C   UNL     1     -12.169  14.343  64.369  1.00  0.00    -0.458 C  
HETATM   14  O   UNL     1     -12.411  13.994  63.002  1.00  0.00    -1.101 OA 
HETATM   15  H   UNL     1     -12.954  13.217  62.943  1.00  0.00     0.000 HD 
BRANCH  13  16
HETATM   16  C   UNL     1     -11.546  13.141  65.047  1.00  0.00    -0.354 A  
HETATM   17  C   UNL     1     -11.920  12.799  66.355  1.00  0.00    -0.443 A  
HETATM   18  C   UNL     1     -11.384  11.669  66.975  1.00  0.00    -0.373 A  
HETATM   19  C   UNL     1     -10.471  10.867  66.295  1.00  0.00    -0.304 A  
HETATM   20  C   UNL     1     -10.088  11.194  64.997  1.00  0.00    -0.338 A  
HETATM   21  C   UNL     1     -10.621  12.325  64.375  1.00  0.00    -0.360 A  
ENDBRANCH  13  16
ENDBRANCH  11  13
ENDBRANCH  10  11
ENDBRANCH   4  10
TORSDOF 4
ENDMDL
MODEL        3
REMARK 921   NORMALIZED FREE ENERGY PREDICTED BY IDOCK:   -6.36 KCAL/MOL
REMARK 922        TOTAL FREE ENERGY PREDICTED BY IDOCK:   -8.40 KCAL/MOL
REMARK 923 INTER-LIGAND FREE ENERGY PREDICTED BY IDOCK:   -7.64 KCAL/MOL
REMARK 924 INTRA-LIGAND FREE ENERGY PREDICTED BY IDOCK:   -0.76 KCAL/MOL
REMARK 927      BINDING AFFINITY PREDICTED BY RF-SCORE:    0.00 PKD
ROOT
HETATM    1  C   UNL     1      -8.081  16.116  68.706  1.00  0.00    -0.218 C  
HETATM    2  C   UNL     1      -7.785  16.901  67.426  1.00  0.00    -0.193 C  
HETATM    3  C   UNL     1      -8.473  16.279  66.206  1.00  0.00    -0.369 C  
HETATM    4  C   UNL     1      -9.972  16.598  66.142  1.00  0.00    -0.337 C  
HETATM    5  C   UNL     1     -10.184  18.117  66.130  1.00  0.00    -0.372 C  
HETATM    6  C   UNL     1      -9.633  20.347  67.159  1.00  0.00    -0.587 C  
HETATM    7  C   UNL     1      -9.580  18.819  67.368  1.00  0.00    -0.337 C  
HETATM    8  C   UNL     1     -10.411  18.513  68.629  1.00  0.00    -0.271 C  
HETATM    9  C   UNL     1      -8.098  18.404  67.541  1.00  0.00    -0.253 C  
ENDROOT
BRANCH   4  10
HETATM   10  O   UNL     1     -10.542  16.050  64.936  1.00  0.00    -0.587 OA 
BRANCH  10  11
HETATM   11  C   UNL     1     -10.862  14.723  64.996  1.00  0.00    -0.425 C  
HETATM   12  O   UNL     1     -10.222  13.815  64.472  1.00  0.00    -0.414 OA 
BRANCH  11  13
HETATM   13  C   UNL     1     -12.145  14.486  65.799  1.00  0.00    -0.279 C  
HETATM   14  O   UNL     1     -13.118  13.791  65.012  1.00  0.00    -0.751 OA 
HETATM   15  H   UNL     1     -13.914  13.644  65.509  1.00  0.00     0.000 HD 
BRANCH  13  16
HETATM   16  C   UNL     1     -11.909  13.675  67.055  1.00  0.00    -0.448 A  
HETATM   17  C   UNL     1     -11.762  14.322  68.292  1.00  0.00    -0.377 A  
HETATM   18  C   UNL     1     -11.585  13.583  69.463  1.00  0.00    -0.355 A  
HETATM   19  C   UNL     1     -11.554  12.191  69.413  1.00  0.00    -0.381 A  
HETATM   20  C   UNL     1     -11.696  11.535  68.193  1.00  0.00    -0.357 A  
HETATM   21  C   UNL     1     -11.872  12.271  67.020  1.00  0.00    -0.329 A  
ENDBRANCH  13  16
ENDBRANCH  11  13
ENDBRANCH  10  11
ENDBRANCH   4  10
TORSDOF 4
ENDMDL
MODEL        4
REMARK 921   NORMALIZED FREE ENERGY PREDICTED BY IDOCK:   -6.35 KCAL/MOL
REMARK 922        TOTAL FREE ENERGY PREDICTED BY IDOCK:   -8.39 KCAL/MOL
REMARK 923 INTER-LIGAND FREE ENERGY PREDICTED BY IDOCK:   -8.09 KCAL/MOL
REMARK 924 INTRA-LIGAND FREE ENERGY PREDICTED BY IDOCK:   -0.30 KCAL/MOL
REMARK 927      BINDING AFFINITY PREDICTED BY RF-SCORE:    0.00 PKD
ROOT
HETATM    1  C   UNL     1     -10.360  19.612  65.845  1.00  0.00    -0.584 C  
HETATM    2  C   UNL     1      -9.860  20.035  67.228  1.00  0.00    -0.563 C  
HETATM    3  C   UNL     1     -10.269  19.033  68.313  1.00  0.00    -0.460 C  
HETATM    4  C   UNL     1      -9.405  17.766  68.308  1.00  0.00    -0.288 C  
HETATM    5  C   UNL     1      -7.928  18.139  68.487  1.00  0.00    -0.312 C  
HETATM    6  C   UNL     1      -6.004  19.598  67.776  1.00  0.00    -0.215 C  
HETATM    7  C   UNL     1      -7.411  19.097  67.389  1.00  0.00    -0.254 C  
HETATM    8  C   UNL     1      -7.266  18.359  66.045  1.00  0.00    -0.290 C  
HETATM    9  C   UNL     1      -8.349  20.325  67.273  1.00  0.00    -0.404 C  
ENDROOT
BRANCH   4  10
HETATM   10  O   UNL     1      -9.790  16.901  69.396  1.00  0.00    -0.185 OA 
BRANCH  10  11
HETATM   11  C   UNL     1     -10.332  15.704  69.021  1.00  0.00    -0.225 C  
HETATM   12  O   UNL     1      -9.698  14.741  68.597  1.00  0.00    -0.213 OA 
BRANCH  11  13
HETATM   13  C   UNL     1     -11.856  15.698  69.178  1.00  0.00    -0.362 C  
HETATM   14  O   UNL     1     -12.452  14.706  68.336  1.00  0.00    -0.594 OA 
HETATM   15  H   UNL     1     -13.396  14.702  68.433  1.00  0.00     0.000 HD 
BRANCH  13  16
HETATM   16  C   UNL     1     -12.297  15.418  70.599  1.00  0.00    -0.451 A  
HETATM   17  C   UNL     1     -13.158  14.343  70.869  1.00  0.00    -0.390 A  
HETATM   18  C   UNL     1     -13.538  14.049  72.180  1.00  0.00    -0.582 A  
HETATM   19  C   UNL     1     -13.061  14.824  73.235  1.00  0.00    -0.550 A  
HETATM   20  C   UNL     1     -12.209  15.896  72.983  1.00  0.00    -0.609 A  
HETATM   21  C   UNL     1     -11.828  16.193  71.673  1.00  0.00    -0.557 A  
ENDBRANCH  13  16
ENDBRANCH  11  13
ENDBRANCH  10  11
ENDBRANCH   4  10
TORSDOF 4
ENDMDL
MODEL        5
REMARK 921   NORMALIZED FREE ENERGY PREDICTED BY IDOCK:   -6.30 KCAL/MOL
REMARK 922        TOTAL FREE ENERGY PREDICTED BY IDOCK:   -8.32 KCAL/MOL
REMARK 923 INTER-LIGAND FREE ENERGY PREDICTED BY IDOCK:   -7.59 KCAL/MOL
REMARK 924 INTRA-LIGAND FREE ENERGY PREDICTED BY IDOCK:   -0.73 KCAL/MOL
REMARK 927      BINDING AFFINITY PREDICTED BY RF-SCORE:    0.00 PKD
ROOT
HETATM    1  C   UNL     1      -8.328  14.865  68.980  1.00  0.00    -0.175 C  
HETATM    2  C   UNL     1      -7.900  16.017  68.067  1.00  0.00    -0.142 C  
HETATM    3  C   UNL     1      -8.311  15.772  66.611  1.00  0.00    -0.319 C  
HETATM    4  C   UNL     1      -9.802  16.034  66.363  1.00  0.00    -0.288 C  
HETATM    5  C   UNL     1     -10.153  17.473  66.759  1.00  0.00    -0.320 C  
HETATM    6  C   UNL     1      -9.997  19.301  68.483  1.00  0.00    -0.513 C  
HETATM    7  C   UNL     1      -9.834  17.786  68.239  1.00  0.00    -0.340 C  
HETATM    8  C   UNL     1     -10.831  17.075  69.174  1.00  0.00    -0.164 C  
HETATM    9  C   UNL     1      -8.369  17.397  68.558  1.00  0.00    -0.271 C  
ENDROOT
BRANCH   4  10
HETATM   10  O   UNL     1     -10.107  15.860  64.964  1.00  0.00    -0.444 OA 
BRANCH  10  11
HETATM   11  C   UNL     1     -11.411  15.559  64.689  1.00  0.00    -0.357 C  
HETATM   12  O   UNL     1     -12.140  16.193  63.931  1.00  0.00    -0.956 OA 
BRANCH  11  13
HETATM   13  C   UNL     1     -11.881  14.319  65.458  1.00  0.00    -0.363 C  
HETATM   14  O   UNL     1     -13.278  14.088  65.249  1.00  0.00    -0.782 OA 
HETATM   15  H   UNL     1     -13.569  13.320  65.726  1.00  0.00     0.000 HD 
BRANCH  13  16
HETATM   16  C   UNL     1     -11.142  13.062  65.050  1.00  0.00    -0.319 A  
HETATM   17  C   UNL     1     -11.090  12.684  63.699  1.00  0.00    -0.496 A  
HETATM   18  C   UNL     1     -10.377  11.550  63.306  1.00  0.00    -0.435 A  
HETATM   19  C   UNL     1      -9.706  10.783  64.256  1.00  0.00    -0.357 A  
HETATM   20  C   UNL     1      -9.750  11.144  65.600  1.00  0.00    -0.267 A  
HETATM   21  C   UNL     1     -10.464  12.276  65.996  1.00  0.00    -0.284 A  
ENDBRANCH  13  16
ENDBRANCH  11  13
ENDBRANCH  10  11
ENDBRANCH   4  10
TORSDOF 4
ENDMDL
MODEL        6
REMARK 921   NORMALIZED FREE ENERGY PREDICTED BY IDOCK:   -6.24 KCAL/MOL
REMARK 922        TOTAL FREE ENERGY PREDICTED BY IDOCK:   -8.25 KCAL/MOL
REMARK 923 INTER-LIGAND FREE ENERGY PREDICTED BY IDOCK:   -7.73 KCAL/MOL
REMARK 924 INTRA-LIGAND FREE ENERGY PREDICTED BY IDOCK:   -0.53 KCAL/MOL
REMARK 927      BINDING AFFINITY PREDICTED BY RF-SCORE:    0.00 PKD
ROOT
HETATM    1  C   UNL     1      -8.435  16.176  68.644  1.00  0.00    -0.216 C  
HETATM    2  C   UNL     1      -8.150  16.585  67.197  1.00  0.00    -0.213 C  
HETATM    3  C   UNL     1      -8.920  15.714  66.198  1.00  0.00    -0.362 C  
HETATM    4  C   UNL     1     -10.401  16.099  66.092  1.00  0.00    -0.339 C  
HETATM    5  C   UNL     1     -10.531  17.574  65.692  1.00  0.00    -0.156 C  
HETATM    6  C   UNL     1      -9.818  19.954  66.092  1.00  0.00    -0.562 C  
HETATM    7  C   UNL     1      -9.839  18.531  66.688  1.00  0.00    -0.370 C  
HETATM    8  C   UNL     1     -10.633  18.614  68.007  1.00  0.00    -0.350 C  
HETATM    9  C   UNL     1      -8.376  18.082  66.926  1.00  0.00    -0.263 C  
ENDROOT
BRANCH   4  10
HETATM   10  O   UNL     1     -11.049  15.296  65.084  1.00  0.00    -0.370 OA 
BRANCH  10  11
HETATM   11  C   UNL     1     -11.907  14.346  65.563  1.00  0.00    -0.357 C  
HETATM   12  O   UNL     1     -12.371  14.319  66.700  1.00  0.00    -0.446 OA 
BRANCH  11  13
HETATM   13  C   UNL     1     -12.224  13.284  64.505  1.00  0.00    -0.400 C  
HETATM   14  O   UNL     1     -12.317  13.872  63.204  1.00  0.00    -1.122 OA 
HETATM   15  H   UNL     1     -12.514  13.214  62.548  1.00  0.00     0.000 HD 
BRANCH  13  16
HETATM   16  C   UNL     1     -11.179  12.191  64.441  1.00  0.00    -0.400 A  
HETATM   17  C   UNL     1     -10.789  11.521  65.611  1.00  0.00    -0.310 A  
HETATM   18  C   UNL     1      -9.856  10.484  65.559  1.00  0.00    -0.324 A  
HETATM   19  C   UNL     1      -9.305  10.102  64.338  1.00  0.00    -0.348 A  
HETATM   20  C   UNL     1      -9.680  10.758  63.168  1.00  0.00    -0.394 A  
HETATM   21  C   UNL     1     -10.611  11.797  63.218  1.00  0.00    -0.427 A  
ENDBRANCH  13  16
ENDBRANCH  11  13
ENDBRANCH  10  11
ENDBRANCH   4  10
TORSDOF 4
ENDMDL
MODEL        7
REMARK 921   NORMALIZED FREE ENERGY PREDICTED BY IDOCK:   -6.14 KCAL/MOL
REMARK 922        TOTAL FREE ENERGY PREDICTED BY IDOCK:   -8.13 KCAL/MOL
REMARK 923 INTER-LIGAND FREE ENERGY PREDICTED BY IDOCK:   -7.87 KCAL/MOL
REMARK 924 INTRA-LIGAND FREE ENERGY PREDICTED BY IDOCK:   -0.25 KCAL/MOL
REMARK 927      BINDING AFFINITY PREDICTED BY RF-SCORE:    0.00 PKD
ROOT
HETATM    1  C   UNL     1      -8.480  11.275  66.229  1.00  0.00    -0.156 C  
HETATM    2  C   UNL     1      -9.843  10.647  65.928  1.00  0.00    -0.296 C  
HETATM    3  C   UNL     1     -10.821  10.825  67.095  1.00  0.00    -0.335 C  
HETATM    4  C   UNL     1     -11.407  12.241  67.168  1.00  0.00    -0.335 C  
HETATM    5  C   UNL     1     -12.114  12.584  65.851  1.00  0.00    -0.420 C  
HETATM    6  C   UNL     1     -12.017  12.625  63.336  1.00  0.00    -0.613 C  
HETATM    7  C   UNL     1     -11.177  12.497  64.625  1.00  0.00    -0.353 C  
HETATM    8  C   UNL     1     -10.174  13.667  64.620  1.00  0.00    -0.338 C  
HETATM    9  C   UNL     1     -10.459  11.124  64.602  1.00  0.00    -0.400 C  
ENDROOT
BRANCH   4  10
HETATM   10  O   UNL     1     -12.373  12.321  68.236  1.00  0.00    -0.209 OA 
BRANCH  10  11
HETATM   11  C   UNL     1     -11.875  12.738  69.438  1.00  0.00    -0.300 C  
HETATM   12  O   UNL     1     -11.554  12.000  70.367  1.00  0.00    -0.187 OA 
BRANCH  11  13
HETATM   13  C   UNL     1     -11.769  14.265  69.509  1.00  0.00    -0.316 C  
HETATM   14  O   UNL     1     -12.502  14.877  68.443  1.00  0.00    -0.559 OA 
HETATM   15  H   UNL     1     -12.436  15.823  68.487  1.00  0.00     0.000 HD 
BRANCH  13  16
HETATM   16  C   UNL     1     -12.298  14.828  70.811  1.00  0.00    -0.397 A  
HETATM   17  C   UNL     1     -13.668  15.099  70.955  1.00  0.00    -0.450 A  
HETATM   18  C   UNL     1     -14.173  15.580  72.164  1.00  0.00    -0.617 A  
HETATM   19  C   UNL     1     -13.318  15.792  73.244  1.00  0.00    -0.649 A  
HETATM   20  C   UNL     1     -11.957  15.530  73.116  1.00  0.00    -0.577 A  
HETATM   21  C   UNL     1     -11.448  15.051  71.907  1.00  0.00    -0.368 A  
ENDBRANCH  13  16
ENDBRANCH  11  13
ENDBRANCH  10  11
ENDBRANCH   4  10
TORSDOF 4
ENDMDL
MODEL        8
REMARK 921   NORMALIZED FREE ENERGY PREDICTED BY IDOCK:   -6.14 KCAL/MOL
REMARK 922        TOTAL FREE ENERGY PREDICTED BY IDOCK:   -8.12 KCAL/MOL
REMARK 923 INTER-LIGAND FREE ENERGY PREDICTED BY IDOCK:   -7.58 KCAL/MOL
REMARK 924 INTRA-LIGAND FREE ENERGY PREDICTED BY IDOCK:   -0.54 KCAL/MOL
REMARK 927      BINDING AFFINITY PREDICTED BY RF-SCORE:    0.00 PKD
ROOT
HETATM    1  C   UNL     1     -10.221  11.814  68.516  1.00  0.00    -0.215 C  
HETATM    2  C   UNL     1     -11.027  10.956  67.538  1.00  0.00    -0.352 C  
HETATM    3  C   UNL     1     -11.723  11.810  66.472  1.00  0.00    -0.149 C  
HETATM    4  C   UNL     1     -10.763  12.290  65.376  1.00  0.00    -0.284 C  
HETATM    5  C   UNL     1     -10.089  11.086  64.706  1.00  0.00    -0.367 C  
HETATM    6  C   UNL     1      -8.860   8.908  64.994  1.00  0.00    -0.183 C  
HETATM    7  C   UNL     1      -9.303  10.205  65.703  1.00  0.00    -0.250 C  
HETATM    8  C   UNL     1      -8.017  10.919  66.166  1.00  0.00    -0.155 C  
HETATM    9  C   UNL     1     -10.208   9.820  66.900  1.00  0.00    -0.310 C  
ENDROOT
BRANCH   4  10
HETATM   10  O   UNL     1     -11.491  13.021  64.368  1.00  0.00    -0.332 OA 
BRANCH  10  11
HETATM   11  C   UNL     1     -12.056  14.189  64.794  1.00  0.00    -0.441 C  
HETATM   12  O   UNL     1     -13.214  14.317  65.183  1.00  0.00    -0.686 OA 
BRANCH  11  13
HETATM   13  C   UNL     1     -11.066  15.357  64.721  1.00  0.00    -0.403 C  
HETATM   14  O   UNL     1     -11.530  16.364  63.815  1.00  0.00    -1.590 OA 
HETATM   15  H   UNL     1     -10.917  17.087  63.769  1.00  0.00     0.000 HD 
BRANCH  13  16
HETATM   16  C   UNL     1     -10.840  16.018  66.064  1.00  0.00    -0.190 A  
HETATM   17  C   UNL     1     -10.524  17.384  66.131  1.00  0.00    -0.284 A  
HETATM   18  C   UNL     1     -10.354  18.014  67.365  1.00  0.00    -0.391 A  
HETATM   19  C   UNL     1     -10.500  17.288  68.545  1.00  0.00    -0.375 A  
HETATM   20  C   UNL     1     -10.812  15.932  68.495  1.00  0.00    -0.298 A  
HETATM   21  C   UNL     1     -10.980  15.299  67.262  1.00  0.00    -0.327 A  
ENDBRANCH  13  16
ENDBRANCH  11  13
ENDBRANCH  10  11
ENDBRANCH   4  10
TORSDOF 4
ENDMDL
MODEL        9
REMARK 921   NORMALIZED FREE ENERGY PREDICTED BY IDOCK:   -6.11 KCAL/MOL
REMARK 922        TOTAL FREE ENERGY PREDICTED BY IDOCK:   -8.09 KCAL/MOL
REMARK 923 INTER-LIGAND FREE ENERGY PREDICTED BY IDOCK:   -7.31 KCAL/MOL
REMARK 924 INTRA-LIGAND FREE ENERGY PREDICTED BY IDOCK:   -0.77 KCAL/MOL
REMARK 927      BINDING AFFINITY PREDICTED BY RF-SCORE:    0.00 PKD
ROOT
HETATM    1  C   UNL     1     -11.387  13.284  68.476  1.00  0.00    -0.319 C  
HETATM    2  C   UNL     1     -11.980  14.245  67.444  1.00  0.00    -0.426 C  
HETATM    3  C   UNL     1     -11.002  15.371  67.086  1.00  0.00    -0.317 C  
HETATM    4  C   UNL     1      -9.893  14.913  66.131  1.00  0.00    -0.308 C  
HETATM    5  C   UNL     1     -10.510  14.344  64.847  1.00  0.00    -0.448 C  
HETATM    6  C   UNL     1     -12.206  12.802  63.807  1.00  0.00    -0.572 C  
HETATM    7  C   UNL     1     -11.460  13.154  65.111  1.00  0.00    -0.327 C  
HETATM    8  C   UNL     1     -10.663  11.900  65.519  1.00  0.00    -0.329 C  
HETATM    9  C   UNL     1     -12.510  13.541  66.182  1.00  0.00    -0.424 C  
ENDROOT
BRANCH   4  10
HETATM   10  O   UNL     1      -9.055  16.032  65.776  1.00  0.00    -0.349 OA 
BRANCH  10  11
HETATM   11  C   UNL     1      -7.905  16.149  66.504  1.00  0.00    -0.228 C  
HETATM   12  O   UNL     1      -7.307  15.218  67.038  1.00  0.00    -0.182 OA 
BRANCH  11  13
HETATM   13  C   UNL     1      -7.438  17.605  66.595  1.00  0.00    -0.235 C  
HETATM   14  O   UNL     1      -7.070  18.105  65.305  1.00  0.00    -0.479 OA 
HETATM   15  H   UNL     1      -6.780  19.007  65.361  1.00  0.00     0.000 HD 
BRANCH  13  16
HETATM   16  C   UNL     1      -8.499  18.526  67.158  1.00  0.00    -0.268 A  
HETATM   17  C   UNL     1      -8.912  18.391  68.493  1.00  0.00    -0.336 A  
HETATM   18  C   UNL     1      -9.860  19.260  69.035  1.00  0.00    -0.466 A  
HETATM   19  C   UNL     1     -10.403  20.277  68.252  1.00  0.00    -0.337 A  
HETATM   20  C   UNL     1     -10.005  20.423  66.926  1.00  0.00    -0.549 A  
HETATM   21  C   UNL     1      -9.059  19.553  66.380  1.00  0.00    -0.417 A  
ENDBRANCH  13  16
ENDBRANCH  11  13
ENDBRANCH  10  11
ENDBRANCH   4  10
TORSDOF 4
ENDMDL
MODEL       10
REMARK 921   NORMALIZED FREE ENERGY PREDICTED BY IDOCK:   -5.99 KCAL/MOL
REMARK 922        TOTAL FREE ENERGY PREDICTED BY IDOCK:   -7.94 KCAL/MOL
REMARK 923 INTER-LIGAND FREE ENERGY PREDICTED BY IDOCK:   -7.51 KCAL/MOL
REMARK 924 INTRA-LIGAND FREE ENERGY PREDICTED BY IDOCK:   -0.44 KCAL/MOL
REMARK 927      BINDING AFFINITY PREDICTED BY RF-SCORE:    0.00 PKD
ROOT
HETATM    1  C   UNL     1      -9.912  20.111  67.054  1.00  0.00    -0.596 C  
HETATM    2  C   UNL     1      -9.574  19.122  68.172  1.00  0.00    -0.411 C  
HETATM    3  C   UNL     1     -10.333  17.800  68.010  1.00  0.00    -0.395 C  
HETATM    4  C   UNL     1      -9.728  16.897  66.928  1.00  0.00    -0.259 C  
HETATM    5  C   UNL     1      -8.257  16.606  67.251  1.00  0.00    -0.197 C  
HETATM    6  C   UNL     1      -6.007  17.519  67.915  1.00  0.00    -0.151 C  
HETATM    7  C   UNL     1      -7.401  17.888  67.364  1.00  0.00    -0.205 C  
HETATM    8  C   UNL     1      -7.177  18.518  65.975  1.00  0.00    -0.290 C  
HETATM    9  C   UNL     1      -8.064  18.884  68.347  1.00  0.00    -0.376 C  
ENDROOT
BRANCH   4  10
HETATM   10  O   UNL     1     -10.438  15.642  66.879  1.00  0.00    -0.295 OA 
BRANCH  10  11
HETATM   11  C   UNL     1     -11.034  15.361  65.682  1.00  0.00    -0.326 C  
HETATM   12  O   UNL     1     -10.891  16.010  64.649  1.00  0.00    -0.608 OA 
BRANCH  11  13
HETATM   13  C   UNL     1     -11.934  14.124  65.774  1.00  0.00    -0.402 C  
HETATM   14  O   UNL     1     -13.128  14.303  65.004  1.00  0.00    -0.682 OA 
HETATM   15  H   UNL     1     -13.686  13.537  65.061  1.00  0.00     0.000 HD 
BRANCH  13  16
HETATM   16  C   UNL     1     -11.253  12.867  65.278  1.00  0.00    -0.319 A  
HETATM   17  C   UNL     1     -10.722  11.947  66.196  1.00  0.00    -0.318 A  
HETATM   18  C   UNL     1     -10.128  10.764  65.752  1.00  0.00    -0.320 A  
HETATM   19  C   UNL     1     -10.061  10.485  64.389  1.00  0.00    -0.395 A  
HETATM   20  C   UNL     1     -10.582  11.388  63.466  1.00  0.00    -0.468 A  
HETATM   21  C   UNL     1     -11.174  12.573  63.907  1.00  0.00    -0.496 A  
ENDBRANCH  13  16
ENDBRANCH  11  13
ENDBRANCH  10  11
ENDBRANCH   4  10
TORSDOF 4
ENDMDL
MODEL       11
REMARK 921   NORMALIZED FREE ENERGY PREDICTED BY IDOCK:   -5.98 KCAL/MOL
REMARK 922        TOTAL FREE ENERGY PREDICTED BY IDOCK:   -7.93 KCAL/MOL
REMARK 923 INTER-LIGAND FREE ENERGY PREDICTED BY IDOCK:   -7.32 KCAL/MOL
REMARK 924 INTRA-LIGAND FREE ENERGY PREDICTED BY IDOCK:   -0.61 KCAL/MOL
REMARK 927      BINDING AFFINITY PREDICTED BY RF-SCORE:    0.00 PKD
ROOT
HETATM    1  C   UNL     1      -8.437  11.369  66.439  1.00  0.00    -0.160 C  
HETATM    2  C   UNL     1      -9.823  11.153  65.828  1.00  0.00    -0.279 C  
HETATM    3  C   UNL     1     -10.814  10.588  66.852  1.00  0.00    -0.252 C  
HETATM    4  C   UNL     1     -11.330  11.653  67.829  1.00  0.00    -0.288 C  
HETATM    5  C   UNL     1     -11.993  12.798  67.053  1.00  0.00    -0.364 C  
HETATM    6  C   UNL     1     -11.843  14.443  65.154  1.00  0.00    -0.386 C  
HETATM    7  C   UNL     1     -11.037  13.473  66.043  1.00  0.00    -0.300 C  
HETATM    8  C   UNL     1      -9.977  14.318  66.775  1.00  0.00    -0.266 C  
HETATM    9  C   UNL     1     -10.389  12.403  65.130  1.00  0.00    -0.313 C  
ENDROOT
BRANCH   4  10
HETATM   10  O   UNL     1     -12.312  11.076  68.714  1.00  0.00    -0.533 OA 
BRANCH  10  11
HETATM   11  C   UNL     1     -11.939  11.005  70.026  1.00  0.00    -0.351 C  
HETATM   12  O   UNL     1     -10.867  10.566  70.436  1.00  0.00    -0.263 OA 
BRANCH  11  13
HETATM   13  C   UNL     1     -13.035  11.535  70.956  1.00  0.00    -0.159 C  
HETATM   14  O   UNL     1     -13.042  10.819  72.196  1.00  0.00    -0.527 OA 
HETATM   15  H   UNL     1     -13.722  11.147  72.773  1.00  0.00     0.000 HD 
BRANCH  13  16
HETATM   16  C   UNL     1     -12.871  13.006  71.277  1.00  0.00    -0.370 A  
HETATM   17  C   UNL     1     -13.547  13.567  72.371  1.00  0.00    -0.709 A  
HETATM   18  C   UNL     1     -13.371  14.911  72.702  1.00  0.00    -0.553 A  
HETATM   19  C   UNL     1     -12.517  15.710  71.945  1.00  0.00    -0.505 A  
HETATM   20  C   UNL     1     -11.840  15.169  70.856  1.00  0.00    -0.373 A  
HETATM   21  C   UNL     1     -12.015  13.824  70.521  1.00  0.00    -0.367 A  
ENDBRANCH  13  16
ENDBRANCH  11  13
ENDBRANCH  10  11
ENDBRANCH   4  10
TORSDOF 4
ENDMDL
MODEL       12
REMARK 921   NORMALIZED FREE ENERGY PREDICTED BY IDOCK:   -5.97 KCAL/MOL
REMARK 922        TOTAL FREE ENERGY PREDICTED BY IDOCK:   -7.92 KCAL/MOL
REMARK 923 INTER-LIGAND FREE ENERGY PREDICTED BY IDOCK:   -7.43 KCAL/MOL
REMARK 924 INTRA-LIGAND FREE ENERGY PREDICTED BY IDOCK:   -0.49 KCAL/MOL
REMARK 927      BINDING AFFINITY PREDICTED BY RF-SCORE:    0.00 PKD
ROOT
HETATM    1  C   UNL     1     -10.167  10.436  69.435  1.00  0.00    -0.257 C  
HETATM    2  C   UNL     1     -11.268  10.492  68.374  1.00  0.00    -0.339 C  
HETATM    3  C   UNL     1     -11.988  11.846  68.373  1.00  0.00    -0.246 C  
HETATM    4  C   UNL     1     -11.173  12.952  67.692  1.00  0.00    -0.278 C  
HETATM    5  C   UNL     1     -10.844  12.547  66.250  1.00  0.00    -0.299 C  
HETATM    6  C   UNL     1      -9.971  10.777  64.687  1.00  0.00    -0.386 C  
HETATM    7  C   UNL     1     -10.053  11.222  66.162  1.00  0.00    -0.279 C  
HETATM    8  C   UNL     1      -8.603  11.418  66.648  1.00  0.00    -0.170 C  
HETATM    9  C   UNL     1     -10.782  10.115  66.964  1.00  0.00    -0.264 C  
ENDROOT
BRANCH   4  10
HETATM   10  O   UNL     1     -11.935  14.176  67.657  1.00  0.00    -0.377 OA 
BRANCH  10  11
HETATM   11  C   UNL     1     -11.438  15.190  68.426  1.00  0.00    -0.332 C  
HETATM   12  O   UNL     1     -11.356  16.366  68.082  1.00  0.00    -0.324 OA 
BRANCH  11  13
HETATM   13  C   UNL     1     -10.970  14.685  69.796  1.00  0.00    -0.201 C  
HETATM   14  O   UNL     1      -9.672  15.197  70.112  1.00  0.00    -0.476 OA 
HETATM   15  H   UNL     1      -9.382  14.885  70.961  1.00  0.00     0.000 HD 
BRANCH  13  16
HETATM   16  C   UNL     1     -11.906  15.083  70.917  1.00  0.00    -0.376 A  
HETATM   17  C   UNL     1     -13.275  14.784  70.830  1.00  0.00    -0.408 A  
HETATM   18  C   UNL     1     -14.140  15.109  71.876  1.00  0.00    -0.649 A  
HETATM   19  C   UNL     1     -13.649  15.734  73.020  1.00  0.00    -0.638 A  
HETATM   20  C   UNL     1     -12.294  16.039  73.121  1.00  0.00    -0.637 A  
HETATM   21  C   UNL     1     -11.426  15.717  72.075  1.00  0.00    -0.495 A  
ENDBRANCH  13  16
ENDBRANCH  11  13
ENDBRANCH  10  11
ENDBRANCH   4  10
TORSDOF 4
ENDMDL
MODEL       13
REMARK 921   NORMALIZED FREE ENERGY PREDICTED BY IDOCK:   -5.97 KCAL/MOL
REMARK 922        TOTAL FREE ENERGY PREDICTED BY IDOCK:   -7.92 KCAL/MOL
REMARK 923 INTER-LIGAND FREE ENERGY PREDICTED BY IDOCK:   -7.44 KCAL/MOL
REMARK 924 INTRA-LIGAND FREE ENERGY PREDICTED BY IDOCK:   -0.48 KCAL/MOL
REMARK 927      BINDING AFFINITY PREDICTED BY RF-SCORE:    0.00 PKD
ROOT
HETATM    1  C   UNL     1     -11.124   6.513  68.604  1.00  0.00    -0.348 C  
HETATM    2  C   UNL     1      -9.975   7.079  69.442  1.00  0.00    -0.165 C  
HETATM    3  C   UNL     1      -9.799   8.586  69.221  1.00  0.00    -0.185 C  
HETATM    4  C   UNL     1     -10.849   9.421  69.963  1.00  0.00    -0.241 C  
HETATM    5  C   UNL     1     -10.797   9.115  71.465  1.00  0.00    -0.436 C  
HETATM    6  C   UNL     1     -10.737   7.367  73.275  1.00  0.00    -0.441 C  
HETATM    7  C   UNL     1     -11.037   7.621  71.783  1.00  0.00    -0.281 C  
HETATM    8  C   UNL     1     -12.513   7.244  71.556  1.00  0.00    -0.408 C  
HETATM    9  C   UNL     1     -10.082   6.740  70.939  1.00  0.00    -0.207 C  
ENDROOT
BRANCH   4  10
HETATM   10  O   UNL     1     -10.583  10.827  69.777  1.00  0.00    -0.226 OA 
BRANCH  10  11
HETATM   11  C   UNL     1     -11.529  11.506  69.063  1.00  0.00    -0.291 C  
HETATM   12  O   UNL     1     -12.371  10.991  68.331  1.00  0.00    -0.528 OA 
BRANCH  11  13
HETATM   13  C   UNL     1     -11.416  13.020  69.270  1.00  0.00    -0.289 C  
HETATM   14  O   UNL     1     -11.798  13.727  68.085  1.00  0.00    -0.343 OA 
HETATM   15  H   UNL     1     -11.728  14.665  68.213  1.00  0.00     0.000 HD 
BRANCH  13  16
HETATM   16  C   UNL     1     -12.284  13.523  70.404  1.00  0.00    -0.426 A  
HETATM   17  C   UNL     1     -12.607  14.886  70.491  1.00  0.00    -0.414 A  
HETATM   18  C   UNL     1     -13.441  15.355  71.508  1.00  0.00    -0.601 A  
HETATM   19  C   UNL     1     -13.963  14.468  72.447  1.00  0.00    -0.580 A  
HETATM   20  C   UNL     1     -13.650  13.113  72.375  1.00  0.00    -0.667 A  
HETATM   21  C   UNL     1     -12.815  12.642  71.360  1.00  0.00    -0.358 A  
ENDBRANCH  13  16
ENDBRANCH  11  13
ENDBRANCH  10  11
ENDBRANCH   4  10
TORSDOF 4
ENDMDL
MODEL       14
REMARK 921   NORMALIZED FREE ENERGY PREDICTED BY IDOCK:   -5.96 KCAL/MOL
REMARK 922        TOTAL FREE ENERGY PREDICTED BY IDOCK:   -7.91 KCAL/MOL
REMARK 923 INTER-LIGAND FREE ENERGY PREDICTED BY IDOCK:   -7.46 KCAL/MOL
REMARK 924 INTRA-LIGAND FREE ENERGY PREDICTED BY IDOCK:   -0.45 KCAL/MOL
REMARK 927      BINDING AFFINITY PREDICTED BY RF-SCORE:    0.00 PKD
ROOT
HETATM    1  C   UNL     1     -10.567  13.088  63.985  1.00  0.00    -0.371 C  
HETATM    2  C   UNL     1     -11.660  14.015  64.521  1.00  0.00    -0.403 C  
HETATM    3  C   UNL     1     -12.366  13.415  65.742  1.00  0.00    -0.513 C  
HETATM    4  C   UNL     1     -11.535  13.533  67.025  1.00  0.00    -0.340 C  
HETATM    5  C   UNL     1     -11.201  15.005  67.299  1.00  0.00    -0.339 C  
HETATM    6  C   UNL     1     -10.337  17.191  66.397  1.00  0.00    -0.307 C  
HETATM    7  C   UNL     1     -10.423  15.671  66.141  1.00  0.00    -0.327 C  
HETATM    8  C   UNL     1      -8.975  15.148  66.084  1.00  0.00    -0.201 C  
HETATM    9  C   UNL     1     -11.169  15.446  64.803  1.00  0.00    -0.404 C  
ENDROOT
BRANCH   4  10
HETATM   10  O   UNL     1     -12.283  13.021  68.147  1.00  0.00    -0.226 OA 
BRANCH  10  11
HETATM   11  C   UNL     1     -11.909  11.778  68.574  1.00  0.00    -0.303 C  
HETATM   12  O   UNL     1     -12.006  10.744  67.918  1.00  0.00    -0.518 OA 
BRANCH  11  13
HETATM   13  C   UNL     1     -11.354  11.813  70.002  1.00  0.00    -0.045 C  
HETATM   14  O   UNL     1     -11.788  12.991  70.690  1.00  0.00    -0.524 OA 
HETATM   15  H   UNL     1     -11.444  13.013  71.575  1.00  0.00     0.000 HD 
BRANCH  13  16
HETATM   16  C   UNL     1     -11.780  10.617  70.826  1.00  0.00    -0.435 A  
HETATM   17  C   UNL     1     -13.109  10.502  71.263  1.00  0.00    -0.478 A  
HETATM   18  C   UNL     1     -13.524   9.384  71.988  1.00  0.00    -0.522 A  
HETATM   19  C   UNL     1     -12.619   8.366  72.282  1.00  0.00    -0.401 A  
HETATM   20  C   UNL     1     -11.297   8.467  71.857  1.00  0.00    -0.382 A  
HETATM   21  C   UNL     1     -10.878   9.585  71.133  1.00  0.00    -0.425 A  
ENDBRANCH  13  16
ENDBRANCH  11  13
ENDBRANCH  10  11
ENDBRANCH   4  10
TORSDOF 4
ENDMDL
MODEL       15
REMARK 921   NORMALIZED FREE ENERGY PREDICTED BY IDOCK:   -5.96 KCAL/MOL
REMARK 922        TOTAL FREE ENERGY PREDICTED BY IDOCK:   -7.91 KCAL/MOL
REMARK 923 INTER-LIGAND FREE ENERGY PREDICTED BY IDOCK:   -7.23 KCAL/MOL
REMARK 924 INTRA-LIGAND FREE ENERGY PREDICTED BY IDOCK:   -0.68 KCAL/MOL
REMARK 927      BINDING AFFINITY PREDICTED BY RF-SCORE:    0.00 PKD
ROOT
HETATM    1  C   UNL     1     -10.711  19.539  65.640  1.00  0.00    -0.420 C  
HETATM    2  C   UNL     1     -10.450  19.866  67.112  1.00  0.00    -0.566 C  
HETATM    3  C   UNL     1     -10.754  18.671  68.023  1.00  0.00    -0.273 C  
HETATM    4  C   UNL     1      -9.653  17.604  67.988  1.00  0.00    -0.289 C  
HETATM    5  C   UNL     1      -8.309  18.224  68.390  1.00  0.00    -0.323 C  
HETATM    6  C   UNL     1      -6.662  20.103  68.086  1.00  0.00    -0.329 C  
HETATM    7  C   UNL     1      -7.891  19.398  67.475  1.00  0.00    -0.292 C  
HETATM    8  C   UNL     1      -7.463  18.883  66.087  1.00  0.00    -0.292 C  
HETATM    9  C   UNL     1      -9.042  20.429  67.376  1.00  0.00    -0.484 C  
ENDROOT
BRANCH   4  10
HETATM   10  O   UNL     1      -9.962  16.547  68.920  1.00  0.00    -0.238 OA 
BRANCH  10  11
HETATM   11  C   UNL     1      -9.821  15.280  68.427  1.00  0.00    -0.216 C  
HETATM   12  O   UNL     1      -8.753  14.749  68.132  1.00  0.00    -0.157 OA 
BRANCH  11  13
HETATM   13  C   UNL     1     -11.175  14.581  68.266  1.00  0.00    -0.277 C  
HETATM   14  O   UNL     1     -12.239  15.413  68.740  1.00  0.00    -0.581 OA 
HETATM   15  H   UNL     1     -13.078  14.979  68.641  1.00  0.00     0.000 HD 
BRANCH  13  16
HETATM   16  C   UNL     1     -11.480  14.220  66.828  1.00  0.00    -0.380 A  
HETATM   17  C   UNL     1     -11.189  15.128  65.799  1.00  0.00    -0.287 A  
HETATM   18  C   UNL     1     -11.428  14.791  64.465  1.00  0.00    -0.333 A  
HETATM   19  C   UNL     1     -11.958  13.543  64.145  1.00  0.00    -0.498 A  
HETATM   20  C   UNL     1     -12.254  12.632  65.155  1.00  0.00    -0.539 A  
HETATM   21  C   UNL     1     -12.018  12.967  66.490  1.00  0.00    -0.457 A  
ENDBRANCH  13  16
ENDBRANCH  11  13
ENDBRANCH  10  11
ENDBRANCH   4  10
TORSDOF 4
ENDMDL
MODEL       16
REMARK 921   NORMALIZED FREE ENERGY PREDICTED BY IDOCK:   -5.93 KCAL/MOL
REMARK 922        TOTAL FREE ENERGY PREDICTED BY IDOCK:   -7.86 KCAL/MOL
REMARK 923 INTER-LIGAND FREE ENERGY PREDICTED BY IDOCK:   -7.36 KCAL/MOL
REMARK 924 INTRA-LIGAND FREE ENERGY PREDICTED BY IDOCK:   -0.50 KCAL/MOL
REMARK 927      BINDING AFFINITY PREDICTED BY RF-SCORE:    0.00 PKD
ROOT
HETATM    1  C   UNL     1     -11.001   6.641  68.396  1.00  0.00    -0.313 C  
HETATM    2  C   UNL     1      -9.911   7.202  69.314  1.00  0.00    -0.168 C  
HETATM    3  C   UNL     1      -9.703   8.705  69.097  1.00  0.00    -0.173 C  
HETATM    4  C   UNL     1     -10.797   9.556  69.754  1.00  0.00    -0.243 C  
HETATM    5  C   UNL     1     -10.859   9.260  71.257  1.00  0.00    -0.417 C  
HETATM    6  C   UNL     1     -10.951   7.524  73.078  1.00  0.00    -0.443 C  
HETATM    7  C   UNL     1     -11.137   7.771  71.566  1.00  0.00    -0.270 C  
HETATM    8  C   UNL     1     -12.597   7.407  71.233  1.00  0.00    -0.376 C  
HETATM    9  C   UNL     1     -10.132   6.874  70.801  1.00  0.00    -0.208 C  
ENDROOT
BRANCH   4  10
HETATM   10  O   UNL     1     -10.503  10.958  69.579  1.00  0.00    -0.215 OA 
BRANCH  10  11
HETATM   11  C   UNL     1     -11.443  11.664  68.884  1.00  0.00    -0.287 C  
HETATM   12  O   UNL     1     -12.279  11.178  68.127  1.00  0.00    -0.612 OA 
BRANCH  11  13
HETATM   13  C   UNL     1     -11.328  13.170  69.146  1.00  0.00    -0.281 C  
HETATM   14  O   UNL     1     -11.618  13.918  67.960  1.00  0.00    -0.294 OA 
HETATM   15  H   UNL     1     -11.547  14.851  68.122  1.00  0.00     0.000 HD 
BRANCH  13  16
HETATM   16  C   UNL     1     -12.270  13.648  70.231  1.00  0.00    -0.423 A  
HETATM   17  C   UNL     1     -12.768  12.741  71.179  1.00  0.00    -0.355 A  
HETATM   18  C   UNL     1     -13.603  13.178  72.209  1.00  0.00    -0.677 A  
HETATM   19  C   UNL     1     -13.948  14.524  72.305  1.00  0.00    -0.600 A  
HETATM   20  C   UNL     1     -13.463  15.436  71.371  1.00  0.00    -0.607 A  
HETATM   21  C   UNL     1     -12.629  15.002  70.338  1.00  0.00    -0.399 A  
ENDBRANCH  13  16
ENDBRANCH  11  13
ENDBRANCH  10  11
ENDBRANCH   4  10
TORSDOF 4
ENDMDL
MODEL       17
REMARK 921   NORMALIZED FREE ENERGY PREDICTED BY IDOCK:   -5.90 KCAL/MOL
REMARK 922        TOTAL FREE ENERGY PREDICTED BY IDOCK:   -7.83 KCAL/MOL
REMARK 923 INTER-LIGAND FREE ENERGY PREDICTED BY IDOCK:   -7.38 KCAL/MOL
REMARK 924 INTRA-LIGAND FREE ENERGY PREDICTED BY IDOCK:   -0.45 KCAL/MOL
REMARK 927      BINDING AFFINITY PREDICTED BY RF-SCORE:    0.00 PKD
ROOT
HETATM    1  C   UNL     1     -10.503  13.054  64.124  1.00  0.00    -0.395 C  
HETATM    2  C   UNL     1     -11.623  14.019  64.521  1.00  0.00    -0.403 C  
HETATM    3  C   UNL     1     -12.375  13.536  65.766  1.00  0.00    -0.516 C  
HETATM    4  C   UNL     1     -11.598  13.788  67.064  1.00  0.00    -0.365 C  
HETATM    5  C   UNL     1     -11.284  15.283  67.204  1.00  0.00    -0.291 C  
HETATM    6  C   UNL     1     -10.394  17.376  66.126  1.00  0.00    -0.329 C  
HETATM    7  C   UNL     1     -10.462  15.838  66.018  1.00  0.00    -0.350 C  
HETATM    8  C   UNL     1      -9.010  15.325  66.072  1.00  0.00    -0.151 C  
HETATM    9  C   UNL     1     -11.151  15.475  64.679  1.00  0.00    -0.373 C  
ENDROOT
BRANCH   4  10
HETATM   10  O   UNL     1     -12.390  13.383  68.200  1.00  0.00    -0.190 OA 
BRANCH  10  11
HETATM   11  C   UNL     1     -11.753  12.561  69.086  1.00  0.00    -0.321 C  
HETATM   12  O   UNL     1     -10.694  11.976  68.876  1.00  0.00    -0.219 OA 
BRANCH  11  13
HETATM   13  C   UNL     1     -12.530  12.436  70.401  1.00  0.00    -0.136 C  
HETATM   14  O   UNL     1     -11.963  11.419  71.234  1.00  0.00    -0.194 OA 
HETATM   15  H   UNL     1     -12.444  11.341  72.049  1.00  0.00     0.000 HD 
BRANCH  13  16
HETATM   16  C   UNL     1     -12.546  13.724  71.197  1.00  0.00    -0.452 A  
HETATM   17  C   UNL     1     -13.411  13.862  72.293  1.00  0.00    -0.623 A  
HETATM   18  C   UNL     1     -13.405  15.029  73.060  1.00  0.00    -0.568 A  
HETATM   19  C   UNL     1     -12.535  16.069  72.742  1.00  0.00    -0.582 A  
HETATM   20  C   UNL     1     -11.672  15.948  71.656  1.00  0.00    -0.563 A  
HETATM   21  C   UNL     1     -11.677  14.782  70.886  1.00  0.00    -0.360 A  
ENDBRANCH  13  16
ENDBRANCH  11  13
ENDBRANCH  10  11
ENDBRANCH   4  10
TORSDOF 4
ENDMDL
MODEL       18
REMARK 921   NORMALIZED FREE ENERGY PREDICTED BY IDOCK:   -5.87 KCAL/MOL
REMARK 922        TOTAL FREE ENERGY PREDICTED BY IDOCK:   -7.79 KCAL/MOL
REMARK 923 INTER-LIGAND FREE ENERGY PREDICTED BY IDOCK:   -7.87 KCAL/MOL
REMARK 924 INTRA-LIGAND FREE ENERGY PREDICTED BY IDOCK:    0.08 KCAL/MOL
REMARK 927      BINDING AFFINITY PREDICTED BY RF-SCORE:    0.00 PKD
ROOT
HETATM    1  C   UNL     1     -10.961  12.920  68.947  1.00  0.00    -0.271 C  
HETATM    2  C   UNL     1     -11.806  12.322  67.819  1.00  0.00    -0.341 C  
HETATM    3  C   UNL     1     -12.265  13.393  66.823  1.00  0.00    -0.367 C  
HETATM    4  C   UNL     1     -11.152  13.824  65.860  1.00  0.00    -0.286 C  
HETATM    5  C   UNL     1     -10.623  12.606  65.093  1.00  0.00    -0.324 C  
HETATM    6  C   UNL     1      -9.783  10.235  65.191  1.00  0.00    -0.364 C  
HETATM    7  C   UNL     1     -10.073  11.501  66.024  1.00  0.00    -0.270 C  
HETATM    8  C   UNL     1      -8.735  11.935  66.654  1.00  0.00    -0.185 C  
HETATM    9  C   UNL     1     -11.126  11.143  67.102  1.00  0.00    -0.352 C  
ENDROOT
BRANCH   4  10
HETATM   10  O   UNL     1     -11.668  14.774  64.904  1.00  0.00    -0.375 OA 
BRANCH  10  11
HETATM   11  C   UNL     1     -11.079  16.006  64.936  1.00  0.00    -0.370 C  
HETATM   12  O   UNL     1     -11.323  16.929  64.163  1.00  0.00    -1.208 OA 
BRANCH  11  13
HETATM   13  C   UNL     1     -10.045  16.111  66.062  1.00  0.00    -0.351 C  
HETATM   14  O   UNL     1      -8.714  16.030  65.542  1.00  0.00    -0.146 OA 
HETATM   15  H   UNL     1      -8.073  16.095  66.239  1.00  0.00     0.000 HD 
BRANCH  13  16
HETATM   16  C   UNL     1     -10.155  17.405  66.840  1.00  0.00    -0.314 A  
HETATM   17  C   UNL     1      -9.895  17.421  68.219  1.00  0.00    -0.310 A  
HETATM   18  C   UNL     1      -9.953  18.615  68.939  1.00  0.00    -0.399 A  
HETATM   19  C   UNL     1     -10.268  19.807  68.290  1.00  0.00    -0.569 A  
HETATM   20  C   UNL     1     -10.531  19.808  66.923  1.00  0.00    -0.596 A  
HETATM   21  C   UNL     1     -10.475  18.614  66.200  1.00  0.00    -0.473 A  
ENDBRANCH  13  16
ENDBRANCH  11  13
ENDBRANCH  10  11
ENDBRANCH   4  10
TORSDOF 4
ENDMDL
MODEL       19
REMARK 921   NORMALIZED FREE ENERGY PREDICTED BY IDOCK:   -5.86 KCAL/MOL
REMARK 922        TOTAL FREE ENERGY PREDICTED BY IDOCK:   -7.79 KCAL/MOL
REMARK 923 INTER-LIGAND FREE ENERGY PREDICTED BY IDOCK:   -7.04 KCAL/MOL
REMARK 924 INTRA-LIGAND FREE ENERGY PREDICTED BY IDOCK:   -0.74 KCAL/MOL
REMARK 927      BINDING AFFINITY PREDICTED BY RF-SCORE:    0.00 PKD
ROOT
HETATM    1  C   UNL     1     -10.472   8.409  67.104  1.00  0.00    -0.380 C  
HETATM    2  C   UNL     1      -9.305   9.089  66.384  1.00  0.00    -0.264 C  
HETATM    3  C   UNL     1      -9.772   9.845  65.134  1.00  0.00    -0.376 C  
HETATM    4  C   UNL     1     -10.444  11.183  65.465  1.00  0.00    -0.256 C  
HETATM    5  C   UNL     1      -9.481  12.067  66.269  1.00  0.00    -0.237 C  
HETATM    6  C   UNL     1      -7.883  12.255  68.204  1.00  0.00    -0.148 C  
HETATM    7  C   UNL     1      -9.015  11.407  67.586  1.00  0.00    -0.140 C  
HETATM    8  C   UNL     1     -10.160  11.375  68.616  1.00  0.00    -0.217 C  
HETATM    9  C   UNL     1      -8.459   9.989  67.300  1.00  0.00    -0.122 C  
ENDROOT
BRANCH   4  10
HETATM   10  O   UNL     1     -10.789  11.877  64.249  1.00  0.00    -0.298 OA 
BRANCH  10  11
HETATM   11  C   UNL     1     -11.887  12.685  64.334  1.00  0.00    -0.387 C  
HETATM   12  O   UNL     1     -13.047  12.296  64.442  1.00  0.00    -0.780 OA 
BRANCH  11  13
HETATM   13  C   UNL     1     -11.506  14.168  64.267  1.00  0.00    -0.272 C  
HETATM   14  O   UNL     1     -12.526  14.927  63.610  1.00  0.00    -1.055 OA 
HETATM   15  H   UNL     1     -12.290  15.846  63.568  1.00  0.00     0.000 HD 
BRANCH  13  16
HETATM   16  C   UNL     1     -11.288  14.779  65.635  1.00  0.00    -0.343 A  
HETATM   17  C   UNL     1     -10.377  15.834  65.796  1.00  0.00    -0.390 A  
HETATM   18  C   UNL     1     -10.198  16.433  67.044  1.00  0.00    -0.282 A  
HETATM   19  C   UNL     1     -10.928  15.987  68.144  1.00  0.00    -0.339 A  
HETATM   20  C   UNL     1     -11.834  14.940  68.001  1.00  0.00    -0.296 A  
HETATM   21  C   UNL     1     -12.014  14.337  66.754  1.00  0.00    -0.462 A  
ENDBRANCH  13  16
ENDBRANCH  11  13
ENDBRANCH  10  11
ENDBRANCH   4  10
TORSDOF 4
ENDMDL
MODEL       20
REMARK 921   NORMALIZED FREE ENERGY PREDICTED BY IDOCK:   -5.86 KCAL/MOL
REMARK 922        TOTAL FREE ENERGY PREDICTED BY IDOCK:   -7.78 KCAL/MOL
REMARK 923 INTER-LIGAND FREE ENERGY PREDICTED BY IDOCK:   -7.02 KCAL/MOL
REMARK 924 INTRA-LIGAND FREE ENERGY PREDICTED BY IDOCK:   -0.76 KCAL/MOL
REMARK 927      BINDING AFFINITY PREDICTED BY RF-SCORE:    0.00 PKD
ROOT
HETATM    1  C   UNL     1     -10.525  15.442  67.206  1.00  0.00    -0.282 C  
HETATM    2  C   UNL     1      -9.724  14.641  66.176  1.00  0.00    -0.344 C  
HETATM    3  C   UNL     1      -9.185  13.333  66.767  1.00  0.00    -0.237 C  
HETATM    4  C   UNL     1     -10.262  12.247  66.883  1.00  0.00    -0.213 C  
HETATM    5  C   UNL     1     -10.878  11.971  65.506  1.00  0.00    -0.336 C  
HETATM    6  C   UNL     1     -11.890  12.916  63.403  1.00  0.00    -0.576 C  
HETATM    7  C   UNL     1     -11.509  13.229  64.866  1.00  0.00    -0.342 C  
HETATM    8  C   UNL     1     -12.813  13.614  65.591  1.00  0.00    -0.425 C  
HETATM    9  C   UNL     1     -10.487  14.392  64.863  1.00  0.00    -0.448 C  
ENDROOT
BRANCH   4  10
HETATM   10  O   UNL     1      -9.677  11.023  67.372  1.00  0.00    -0.167 OA 
BRANCH  10  11
HETATM   11  C   UNL     1      -9.911  10.755  68.691  1.00  0.00    -0.184 C  
HETATM   12  O   UNL     1      -9.050  10.692  69.565  1.00  0.00    -0.111 OA 
BRANCH  11  13
HETATM   13  C   UNL     1     -11.400  10.523  68.966  1.00  0.00    -0.257 C  
HETATM   14  O   UNL     1     -11.622   9.214  69.503  1.00  0.00    -0.419 OA 
HETATM   15  H   UNL     1     -12.545   9.070  69.673  1.00  0.00     0.000 HD 
BRANCH  13  16
HETATM   16  C   UNL     1     -11.977  11.524  69.945  1.00  0.00    -0.426 A  
HETATM   17  C   UNL     1     -11.880  12.899  69.684  1.00  0.00    -0.387 A  
HETATM   18  C   UNL     1     -12.444  13.830  70.558  1.00  0.00    -0.409 A  
HETATM   19  C   UNL     1     -13.114  13.398  71.701  1.00  0.00    -0.463 A  
HETATM   20  C   UNL     1     -13.217  12.037  71.975  1.00  0.00    -0.481 A  
HETATM   21  C   UNL     1     -12.651  11.103  71.103  1.00  0.00    -0.513 A  
ENDBRANCH  13  16
ENDBRANCH  11  13
ENDBRANCH  10  11
ENDBRANCH   4  10
TORSDOF 4
ENDMDL
MODEL       21
REMARK 921   NORMALIZED FREE ENERGY PREDICTED BY IDOCK:   -5.78 KCAL/MOL
REMARK 922        TOTAL FREE ENERGY PREDICTED BY IDOCK:   -7.68 KCAL/MOL
REMARK 923 INTER-LIGAND FREE ENERGY PREDICTED BY IDOCK:   -7.17 KCAL/MOL
REMARK 924 INTRA-LIGAND FREE ENERGY PREDICTED BY IDOCK:   -0.51 KCAL/MOL
REMARK 927      BINDING AFFINITY PREDICTED BY RF-SCORE:    0.00 PKD
ROOT
HETATM    1  C   UNL     1      -6.953  17.323  67.925  1.00  0.00    -0.173 C  
HETATM    2  C   UNL     1      -7.494  17.632  66.527  1.00  0.00    -0.299 C  
HETATM    3  C   UNL     1      -8.422  16.523  66.018  1.00  0.00    -0.206 C  
HETATM    4  C   UNL     1      -9.818  16.581  66.650  1.00  0.00    -0.268 C  
HETATM    5  C   UNL     1     -10.459  17.948  66.381  1.00  0.00    -0.318 C  
HETATM    6  C   UNL     1     -10.211  20.453  66.412  1.00  0.00    -0.338 C  
HETATM    7  C   UNL     1      -9.618  19.125  66.927  1.00  0.00    -0.379 C  
HETATM    8  C   UNL     1      -9.684  19.175  68.465  1.00  0.00    -0.467 C  
HETATM    9  C   UNL     1      -8.159  19.015  66.417  1.00  0.00    -0.308 C  
ENDROOT
BRANCH   4  10
HETATM   10  O   UNL     1     -10.663  15.563  66.075  1.00  0.00    -0.316 OA 
BRANCH  10  11
HETATM   11  C   UNL     1     -11.331  14.786  66.978  1.00  0.00    -0.353 C  
HETATM   12  O   UNL     1     -11.204  14.849  68.199  1.00  0.00    -0.274 OA 
BRANCH  11  13
HETATM   13  C   UNL     1     -12.272  13.794  66.287  1.00  0.00    -0.447 C  
HETATM   14  O   UNL     1     -13.075  14.454  65.302  1.00  0.00    -0.629 OA 
HETATM   15  H   UNL     1     -13.658  13.839  64.873  1.00  0.00     0.000 HD 
BRANCH  13  16
HETATM   16  C   UNL     1     -11.532  12.669  65.596  1.00  0.00    -0.387 A  
HETATM   17  C   UNL     1     -11.447  12.639  64.195  1.00  0.00    -0.447 A  
HETATM   18  C   UNL     1     -10.731  11.629  63.549  1.00  0.00    -0.495 A  
HETATM   19  C   UNL     1     -10.091  10.641  64.293  1.00  0.00    -0.411 A  
HETATM   20  C   UNL     1     -10.168  10.656  65.683  1.00  0.00    -0.319 A  
HETATM   21  C   UNL     1     -10.885  11.663  66.333  1.00  0.00    -0.333 A  
ENDBRANCH  13  16
ENDBRANCH  11  13
ENDBRANCH  10  11
ENDBRANCH   4  10
TORSDOF 4
ENDMDL
MODEL       22
REMARK 921   NORMALIZED FREE ENERGY PREDICTED BY IDOCK:   -5.74 KCAL/MOL
REMARK 922        TOTAL FREE ENERGY PREDICTED BY IDOCK:   -7.64 KCAL/MOL
REMARK 923 INTER-LIGAND FREE ENERGY PREDICTED BY IDOCK:   -7.20 KCAL/MOL
REMARK 924 INTRA-LIGAND FREE ENERGY PREDICTED BY IDOCK:   -0.44 KCAL/MOL
REMARK 927      BINDING AFFINITY PREDICTED BY RF-SCORE:    0.00 PKD
ROOT
HETATM    1  C   UNL     1      -9.359  12.108  66.934  1.00  0.00    -0.203 C  
HETATM    2  C   UNL     1     -10.812  12.588  66.914  1.00  0.00    -0.280 C  
HETATM    3  C   UNL     1     -10.905  14.119  66.904  1.00  0.00    -0.296 C  
HETATM    4  C   UNL     1     -10.609  14.723  65.526  1.00  0.00    -0.359 C  
HETATM    5  C   UNL     1     -11.573  14.145  64.483  1.00  0.00    -0.400 C  
HETATM    6  C   UNL     1     -12.648  12.098  63.487  1.00  0.00    -0.621 C  
HETATM    7  C   UNL     1     -11.494  12.605  64.377  1.00  0.00    -0.402 C  
HETATM    8  C   UNL     1     -10.182  12.172  63.694  1.00  0.00    -0.459 C  
HETATM    9  C   UNL     1     -11.648  11.968  65.781  1.00  0.00    -0.353 C  
ENDROOT
BRANCH   4  10
HETATM   10  O   UNL     1     -10.787  16.154  65.566  1.00  0.00    -0.332 OA 
BRANCH  10  11
HETATM   11  C   UNL     1      -9.711  16.859  66.025  1.00  0.00    -0.233 C  
HETATM   12  O   UNL     1      -8.535  16.595  65.784  1.00  0.00    -0.433 OA 
BRANCH  11  13
HETATM   13  C   UNL     1     -10.139  18.038  66.905  1.00  0.00    -0.348 C  
HETATM   14  O   UNL     1     -10.840  17.580  68.066  1.00  0.00    -0.378 OA 
HETATM   15  H   UNL     1     -11.106  18.310  68.611  1.00  0.00     0.000 HD 
BRANCH  13  16
HETATM   16  C   UNL     1      -8.968  18.873  67.376  1.00  0.00    -0.297 A  
HETATM   17  C   UNL     1      -8.250  18.493  68.522  1.00  0.00    -0.360 A  
HETATM   18  C   UNL     1      -7.143  19.232  68.942  1.00  0.00    -0.385 A  
HETATM   19  C   UNL     1      -6.738  20.355  68.224  1.00  0.00    -0.313 A  
HETATM   20  C   UNL     1      -7.441  20.745  67.087  1.00  0.00    -0.366 A  
HETATM   21  C   UNL     1      -8.550  20.009  66.665  1.00  0.00    -0.382 A  
ENDBRANCH  13  16
ENDBRANCH  11  13
ENDBRANCH  10  11
ENDBRANCH   4  10
TORSDOF 4
ENDMDL
MODEL       23
REMARK 921   NORMALIZED FREE ENERGY PREDICTED BY IDOCK:   -5.74 KCAL/MOL
REMARK 922        TOTAL FREE ENERGY PREDICTED BY IDOCK:   -7.63 KCAL/MOL
REMARK 923 INTER-LIGAND FREE ENERGY PREDICTED BY IDOCK:   -7.08 KCAL/MOL
REMARK 924 INTRA-LIGAND FREE ENERGY PREDICTED BY IDOCK:   -0.55 KCAL/MOL
REMARK 927      BINDING AFFINITY PREDICTED BY RF-SCORE:    0.00 PKD
ROOT
HETATM    1  C   UNL     1     -10.951  11.849  67.908  1.00  0.00    -0.270 C  
HETATM    2  C   UNL     1     -11.639  13.082  67.317  1.00  0.00    -0.409 C  
HETATM    3  C   UNL     1     -10.725  14.312  67.344  1.00  0.00    -0.282 C  
HETATM    4  C   UNL     1      -9.662  14.286  66.239  1.00  0.00    -0.302 C  
HETATM    5  C   UNL     1     -10.337  14.181  64.866  1.00  0.00    -0.435 C  
HETATM    6  C   UNL     1     -12.041  13.022  63.420  1.00  0.00    -0.591 C  
HETATM    7  C   UNL     1     -11.228  12.925  64.728  1.00  0.00    -0.336 C  
HETATM    8  C   UNL     1     -10.364  11.653  64.621  1.00  0.00    -0.341 C  
HETATM    9  C   UNL     1     -12.222  12.847  65.913  1.00  0.00    -0.469 C  
ENDROOT
BRANCH   4  10
HETATM   10  O   UNL     1      -8.886  15.502  66.271  1.00  0.00    -0.306 OA 
BRANCH  10  11
HETATM   11  C   UNL     1      -7.917  15.545  67.232  1.00  0.00    -0.203 C  
HETATM   12  O   UNL     1      -6.907  14.845  67.253  1.00  0.00    -0.254 OA 
BRANCH  11  13
HETATM   13  C   UNL     1      -8.238  16.579  68.316  1.00  0.00    -0.185 C  
HETATM   14  O   UNL     1      -7.060  16.939  69.045  1.00  0.00    -0.214 OA 
HETATM   15  H   UNL     1      -7.259  17.579  69.717  1.00  0.00     0.000 HD 
BRANCH  13  16
HETATM   16  C   UNL     1      -8.835  17.852  67.753  1.00  0.00    -0.251 A  
HETATM   17  C   UNL     1      -8.067  18.678  66.918  1.00  0.00    -0.256 A  
HETATM   18  C   UNL     1      -8.619  19.832  66.359  1.00  0.00    -0.398 A  
HETATM   19  C   UNL     1      -9.943  20.172  66.625  1.00  0.00    -0.595 A  
HETATM   20  C   UNL     1     -10.717  19.363  67.453  1.00  0.00    -0.594 A  
HETATM   21  C   UNL     1     -10.167  18.209  68.015  1.00  0.00    -0.392 A  
ENDBRANCH  13  16
ENDBRANCH  11  13
ENDBRANCH  10  11
ENDBRANCH   4  10
TORSDOF 4
ENDMDL
MODEL       24
REMARK 921   NORMALIZED FREE ENERGY PREDICTED BY IDOCK:   -5.71 KCAL/MOL
REMARK 922        TOTAL FREE ENERGY PREDICTED BY IDOCK:   -7.60 KCAL/MOL
REMARK 923 INTER-LIGAND FREE ENERGY PREDICTED BY IDOCK:   -6.79 KCAL/MOL
REMARK 924 INTRA-LIGAND FREE ENERGY PREDICTED BY IDOCK:   -0.81 KCAL/MOL
REMARK 927      BINDING AFFINITY PREDICTED BY RF-SCORE:    0.00 PKD
ROOT
HETATM    1  C   UNL     1      -8.158  11.549  66.776  1.00  0.00    -0.158 C  
HETATM    2  C   UNL     1      -8.404  12.250  68.114  1.00  0.00    -0.174 C  
HETATM    3  C   UNL     1      -8.751  13.732  67.925  1.00  0.00    -0.183 C  
HETATM    4  C   UNL     1     -10.196  13.949  67.461  1.00  0.00    -0.245 C  
HETATM    5  C   UNL     1     -11.169  13.321  68.467  1.00  0.00    -0.304 C  
HETATM    6  C   UNL     1     -11.790  11.313  69.852  1.00  0.00    -0.436 C  
HETATM    7  C   UNL     1     -10.934  11.806  68.666  1.00  0.00    -0.269 C  
HETATM    8  C   UNL     1     -11.394  11.015  67.426  1.00  0.00    -0.306 C  
HETATM    9  C   UNL     1      -9.445  11.539  68.998  1.00  0.00     0.068 C  
ENDROOT
BRANCH   4  10
HETATM   10  O   UNL     1     -10.480  15.360  67.375  1.00  0.00    -0.266 OA 
BRANCH  10  11
HETATM   11  C   UNL     1     -10.215  15.932  66.163  1.00  0.00    -0.324 C  
HETATM   12  O   UNL     1      -9.204  16.574  65.888  1.00  0.00    -0.451 OA 
BRANCH  11  13
HETATM   13  C   UNL     1     -11.350  15.691  65.162  1.00  0.00    -0.198 C  
HETATM   14  O   UNL     1     -11.177  16.495  63.991  1.00  0.00    -1.409 OA 
HETATM   15  H   UNL     1     -11.880  16.347  63.371  1.00  0.00     0.000 HD 
BRANCH  13  16
HETATM   16  C   UNL     1     -11.442  14.247  64.718  1.00  0.00    -0.394 A  
HETATM   17  C   UNL     1     -12.692  13.613  64.642  1.00  0.00    -0.198 A  
HETATM   18  C   UNL     1     -12.794  12.295  64.194  1.00  0.00    -0.371 A  
HETATM   19  C   UNL     1     -11.650  11.596  63.815  1.00  0.00    -0.430 A  
HETATM   20  C   UNL     1     -10.403  12.210  63.887  1.00  0.00    -0.441 A  
HETATM   21  C   UNL     1     -10.298  13.528  64.336  1.00  0.00    -0.306 A  
ENDBRANCH  13  16
ENDBRANCH  11  13
ENDBRANCH  10  11
ENDBRANCH   4  10
TORSDOF 4
ENDMDL
MODEL       25
REMARK 921   NORMALIZED FREE ENERGY PREDICTED BY IDOCK:   -5.71 KCAL/MOL
REMARK 922        TOTAL FREE ENERGY PREDICTED BY IDOCK:   -7.60 KCAL/MOL
REMARK 923 INTER-LIGAND FREE ENERGY PREDICTED BY IDOCK:   -7.13 KCAL/MOL
REMARK 924 INTRA-LIGAND FREE ENERGY PREDICTED BY IDOCK:   -0.47 KCAL/MOL
REMARK 927      BINDING AFFINITY PREDICTED BY RF-SCORE:    0.00 PKD
ROOT
HETATM    1  C   UNL     1     -12.606  12.959  64.746  1.00  0.00    -0.493 C  
HETATM    2  C   UNL     1     -11.080  12.855  64.713  1.00  0.00    -0.337 C  
HETATM    3  C   UNL     1     -10.418  14.235  64.614  1.00  0.00    -0.325 C  
HETATM    4  C   UNL     1     -10.412  14.987  65.950  1.00  0.00    -0.328 C  
HETATM    5  C   UNL     1      -9.694  14.151  67.018  1.00  0.00    -0.258 C  
HETATM    6  C   UNL     1      -9.429  11.914  68.140  1.00  0.00    -0.195 C  
HETATM    7  C   UNL     1     -10.342  12.764  67.232  1.00  0.00    -0.235 C  
HETATM    8  C   UNL     1     -11.693  12.900  67.962  1.00  0.00    -0.401 C  
HETATM    9  C   UNL     1     -10.494  12.034  65.874  1.00  0.00    -0.290 C  
ENDROOT
BRANCH   4  10
HETATM   10  O   UNL     1      -9.711  16.240  65.808  1.00  0.00    -0.401 OA 
BRANCH  10  11
HETATM   11  C   UNL     1     -10.511  17.340  65.679  1.00  0.00    -0.181 C  
HETATM   12  O   UNL     1     -11.130  17.650  64.664  1.00  0.00    -0.906 OA 
BRANCH  11  13
HETATM   13  C   UNL     1     -10.542  18.172  66.965  1.00  0.00    -0.328 C  
HETATM   14  O   UNL     1     -10.903  17.362  68.088  1.00  0.00    -0.373 OA 
HETATM   15  H   UNL     1     -10.923  17.877  68.885  1.00  0.00     0.000 HD 
BRANCH  13  16
HETATM   16  C   UNL     1      -9.210  18.820  67.276  1.00  0.00    -0.304 A  
HETATM   17  C   UNL     1      -8.613  19.682  66.343  1.00  0.00    -0.390 A  
HETATM   18  C   UNL     1      -7.405  20.318  66.635  1.00  0.00    -0.316 A  
HETATM   19  C   UNL     1      -6.781  20.102  67.862  1.00  0.00    -0.313 A  
HETATM   20  C   UNL     1      -7.360  19.249  68.797  1.00  0.00    -0.381 A  
HETATM   21  C   UNL     1      -8.568  18.610  68.507  1.00  0.00    -0.370 A  
ENDBRANCH  13  16
ENDBRANCH  11  13
ENDBRANCH  10  11
ENDBRANCH   4  10
TORSDOF 4
ENDMDL
MODEL       26
REMARK 921   NORMALIZED FREE ENERGY PREDICTED BY IDOCK:   -5.71 KCAL/MOL
REMARK 922        TOTAL FREE ENERGY PREDICTED BY IDOCK:   -7.59 KCAL/MOL
REMARK 923 INTER-LIGAND FREE ENERGY PREDICTED BY IDOCK:   -7.08 KCAL/MOL
REMARK 924 INTRA-LIGAND FREE ENERGY PREDICTED BY IDOCK:   -0.51 KCAL/MOL
REMARK 927      BINDING AFFINITY PREDICTED BY RF-SCORE:    0.00 PKD
ROOT
HETATM    1  C   UNL     1     -12.744  12.475  64.636  1.00  0.00    -0.434 C  
HETATM    2  C   UNL     1     -11.297  12.392  64.146  1.00  0.00    -0.442 C  
HETATM    3  C   UNL     1     -10.472  13.602  64.600  1.00  0.00    -0.442 C  
HETATM    4  C   UNL     1     -10.055  13.516  66.073  1.00  0.00    -0.310 C  
HETATM    5  C   UNL     1      -9.254  12.231  66.317  1.00  0.00    -0.171 C  
HETATM    6  C   UNL     1      -9.091   9.738  66.002  1.00  0.00    -0.201 C  
HETATM    7  C   UNL     1     -10.042  10.952  65.949  1.00  0.00    -0.307 C  
HETATM    8  C   UNL     1     -11.160  10.686  66.975  1.00  0.00    -0.217 C  
HETATM    9  C   UNL     1     -10.600  11.069  64.509  1.00  0.00    -0.383 C  
ENDROOT
BRANCH   4  10
HETATM   10  O   UNL     1      -9.221  14.642  66.416  1.00  0.00    -0.274 OA 
BRANCH  10  11
HETATM   11  C   UNL     1      -9.537  15.260  67.593  1.00  0.00    -0.206 C  
HETATM   12  O   UNL     1      -8.914  15.145  68.645  1.00  0.00    -0.174 OA 
BRANCH  11  13
HETATM   13  C   UNL     1     -10.794  16.126  67.457  1.00  0.00    -0.284 C  
HETATM   14  O   UNL     1     -11.656  15.955  68.587  1.00  0.00    -0.382 OA 
HETATM   15  H   UNL     1     -12.435  16.491  68.504  1.00  0.00     0.000 HD 
BRANCH  13  16
HETATM   16  C   UNL     1     -10.479  17.602  67.341  1.00  0.00    -0.356 A  
HETATM   17  C   UNL     1     -10.476  18.224  66.082  1.00  0.00    -0.403 A  
HETATM   18  C   UNL     1     -10.228  19.592  65.967  1.00  0.00    -0.587 A  
HETATM   19  C   UNL     1      -9.982  20.356  67.105  1.00  0.00    -0.568 A  
HETATM   20  C   UNL     1      -9.979  19.754  68.361  1.00  0.00    -0.549 A  
HETATM   21  C   UNL     1     -10.225  18.385  68.480  1.00  0.00    -0.394 A  
ENDBRANCH  13  16
ENDBRANCH  11  13
ENDBRANCH  10  11
ENDBRANCH   4  10
TORSDOF 4
ENDMDL
MODEL       27
REMARK 921   NORMALIZED FREE ENERGY PREDICTED BY IDOCK:   -5.69 KCAL/MOL
REMARK 922        TOTAL FREE ENERGY PREDICTED BY IDOCK:   -7.57 KCAL/MOL
REMARK 923 INTER-LIGAND FREE ENERGY PREDICTED BY IDOCK:   -6.96 KCAL/MOL
REMARK 924 INTRA-LIGAND FREE ENERGY PREDICTED BY IDOCK:   -0.62 KCAL/MOL
REMARK 927      BINDING AFFINITY PREDICTED BY RF-SCORE:    0.00 PKD
ROOT
HETATM    1  C   UNL     1      -8.157   8.578  69.425  1.00  0.00    -0.112 C  
HETATM    2  C   UNL     1      -8.499   7.100  69.626  1.00  0.00    -0.134 C  
HETATM    3  C   UNL     1      -9.577   6.906  70.698  1.00  0.00    -0.171 C  
HETATM    4  C   UNL     1     -10.985   7.239  70.192  1.00  0.00    -0.260 C  
HETATM    5  C   UNL     1     -11.320   6.376  68.969  1.00  0.00    -0.332 C  
HETATM    6  C   UNL     1     -10.591   5.498  66.725  1.00  0.00    -0.360 C  
HETATM    7  C   UNL     1     -10.317   6.563  67.807  1.00  0.00    -0.234 C  
HETATM    8  C   UNL     1     -10.509   7.938  67.137  1.00  0.00    -0.414 C  
HETATM    9  C   UNL     1      -8.868   6.372  68.321  1.00  0.00    -0.115 C  
ENDROOT
BRANCH   4  10
HETATM   10  O   UNL     1     -11.958   6.964  71.221  1.00  0.00    -0.317 OA 
BRANCH  10  11
HETATM   11  C   UNL     1     -12.138   7.967  72.131  1.00  0.00    -0.343 C  
HETATM   12  O   UNL     1     -11.450   8.147  73.133  1.00  0.00    -0.258 OA 
BRANCH  11  13
HETATM   13  C   UNL     1     -13.328   8.859  71.763  1.00  0.00    -0.386 C  
HETATM   14  O   UNL     1     -14.222   9.001  72.873  1.00  0.00    -1.042 OA 
HETATM   15  H   UNL     1     -14.960   9.553  72.646  1.00  0.00     0.000 HD 
BRANCH  13  16
HETATM   16  C   UNL     1     -12.908  10.249  71.333  1.00  0.00    -0.544 A  
HETATM   17  C   UNL     1     -12.139  10.422  70.172  1.00  0.00    -0.334 A  
HETATM   18  C   UNL     1     -11.781  11.701  69.742  1.00  0.00    -0.425 A  
HETATM   19  C   UNL     1     -12.188  12.820  70.465  1.00  0.00    -0.389 A  
HETATM   20  C   UNL     1     -12.950  12.664  71.620  1.00  0.00    -0.400 A  
HETATM   21  C   UNL     1     -13.308  11.386  72.053  1.00  0.00    -0.388 A  
ENDBRANCH  13  16
ENDBRANCH  11  13
ENDBRANCH  10  11
ENDBRANCH   4  10
TORSDOF 4
ENDMDL
MODEL       28
REMARK 921   NORMALIZED FREE ENERGY PREDICTED BY IDOCK:   -5.68 KCAL/MOL
REMARK 922        TOTAL FREE ENERGY PREDICTED BY IDOCK:   -7.56 KCAL/MOL
REMARK 923 INTER-LIGAND FREE ENERGY PREDICTED BY IDOCK:   -7.11 KCAL/MOL
REMARK 924 INTRA-LIGAND FREE ENERGY PREDICTED BY IDOCK:   -0.46 KCAL/MOL
REMARK 927      BINDING AFFINITY PREDICTED BY RF-SCORE:    0.00 PKD
ROOT
HETATM    1  C   UNL     1     -12.785  13.969  65.594  1.00  0.00    -0.515 C  
HETATM    2  C   UNL     1     -11.412  14.006  64.920  1.00  0.00    -0.358 C  
HETATM    3  C   UNL     1     -10.919  15.442  64.709  1.00  0.00    -0.411 C  
HETATM    4  C   UNL     1     -10.385  16.081  65.997  1.00  0.00    -0.351 C  
HETATM    5  C   UNL     1      -9.246  15.229  66.571  1.00  0.00    -0.321 C  
HETATM    6  C   UNL     1      -8.428  12.940  67.226  1.00  0.00    -0.197 C  
HETATM    7  C   UNL     1      -9.678  13.777  66.879  1.00  0.00    -0.265 C  
HETATM    8  C   UNL     1     -10.599  13.732  68.114  1.00  0.00    -0.260 C  
HETATM    9  C   UNL     1     -10.353  13.149  65.635  1.00  0.00    -0.291 C  
ENDROOT
BRANCH   4  10
HETATM   10  O   UNL     1      -9.869  17.399  65.717  1.00  0.00    -0.536 OA 
BRANCH  10  11
HETATM   11  C   UNL     1     -10.081  18.324  66.699  1.00  0.00    -0.375 C  
HETATM   12  O   UNL     1     -10.901  18.219  67.607  1.00  0.00    -0.396 OA 
BRANCH  11  13
HETATM   13  C   UNL     1      -9.170  19.545  66.533  1.00  0.00    -0.365 C  
HETATM   14  O   UNL     1      -9.913  20.760  66.679  1.00  0.00    -0.570 OA 
HETATM   15  H   UNL     1      -9.348  21.517  66.576  1.00  0.00     0.000 HD 
BRANCH  13  16
HETATM   16  C   UNL     1      -8.041  19.574  67.542  1.00  0.00    -0.325 A  
HETATM   17  C   UNL     1      -7.793  18.455  68.352  1.00  0.00    -0.323 A  
HETATM   18  C   UNL     1      -6.729  18.455  69.256  1.00  0.00    -0.248 A  
HETATM   19  C   UNL     1      -5.901  19.570  69.360  1.00  0.00    -0.276 A  
HETATM   20  C   UNL     1      -6.135  20.689  68.565  1.00  0.00    -0.372 A  
HETATM   21  C   UNL     1      -7.199  20.693  67.661  1.00  0.00    -0.352 A  
ENDBRANCH  13  16
ENDBRANCH  11  13
ENDBRANCH  10  11
ENDBRANCH   4  10
TORSDOF 4
ENDMDL
MODEL       29
REMARK 921   NORMALIZED FREE ENERGY PREDICTED BY IDOCK:   -5.67 KCAL/MOL
REMARK 922        TOTAL FREE ENERGY PREDICTED BY IDOCK:   -7.55 KCAL/MOL
REMARK 923 INTER-LIGAND FREE ENERGY PREDICTED BY IDOCK:   -7.03 KCAL/MOL
REMARK 924 INTRA-LIGAND FREE ENERGY PREDICTED BY IDOCK:   -0.51 KCAL/MOL
REMARK 927      BINDING AFFINITY PREDICTED BY RF-SCORE:    0.00 PKD
ROOT
HETATM    1  C   UNL     1      -7.710  15.576  67.260  1.00  0.00    -0.244 C  
HETATM    2  C   UNL     1      -9.055  15.826  66.575  1.00  0.00    -0.327 C  
HETATM    3  C   UNL     1     -10.234  15.439  67.476  1.00  0.00    -0.244 C  
HETATM    4  C   UNL     1     -10.513  16.480  68.568  1.00  0.00    -0.302 C  
HETATM    5  C   UNL     1     -10.785  17.848  67.930  1.00  0.00    -0.328 C  
HETATM    6  C   UNL     1     -10.060  19.602  66.277  1.00  0.00    -0.578 C  
HETATM    7  C   UNL     1      -9.612  18.348  67.056  1.00  0.00    -0.301 C  
HETATM    8  C   UNL     1      -8.419  18.773  67.934  1.00  0.00    -0.316 C  
HETATM    9  C   UNL     1      -9.211  17.257  66.031  1.00  0.00    -0.121 C  
ENDROOT
BRANCH   4  10
HETATM   10  O   UNL     1     -11.675  16.095  69.330  1.00  0.00    -0.313 OA 
BRANCH  10  11
HETATM   11  C   UNL     1     -11.415  15.615  70.582  1.00  0.00    -0.375 C  
HETATM   12  O   UNL     1     -10.329  15.677  71.153  1.00  0.00     0.229 OA 
BRANCH  11  13
HETATM   13  C   UNL     1     -12.652  14.963  71.208  1.00  0.00    -0.331 C  
HETATM   14  O   UNL     1     -13.849  15.429  70.576  1.00  0.00    -0.784 OA 
HETATM   15  H   UNL     1     -14.616  15.026  70.965  1.00  0.00     0.000 HD 
BRANCH  13  16
HETATM   16  C   UNL     1     -12.635  13.453  71.102  1.00  0.00    -0.430 A  
HETATM   17  C   UNL     1     -13.332  12.675  72.040  1.00  0.00    -0.555 A  
HETATM   18  C   UNL     1     -13.358  11.284  71.929  1.00  0.00    -0.413 A  
HETATM   19  C   UNL     1     -12.692  10.654  70.880  1.00  0.00    -0.498 A  
HETATM   20  C   UNL     1     -11.995  11.412  69.943  1.00  0.00    -0.434 A  
HETATM   21  C   UNL     1     -11.965  12.804  70.052  1.00  0.00    -0.371 A  
ENDBRANCH  13  16
ENDBRANCH  11  13
ENDBRANCH  10  11
ENDBRANCH   4  10
TORSDOF 4
ENDMDL
MODEL       30
REMARK 921   NORMALIZED FREE ENERGY PREDICTED BY IDOCK:   -5.67 KCAL/MOL
REMARK 922        TOTAL FREE ENERGY PREDICTED BY IDOCK:   -7.54 KCAL/MOL
REMARK 923 INTER-LIGAND FREE ENERGY PREDICTED BY IDOCK:   -7.55 KCAL/MOL
REMARK 924 INTRA-LIGAND FREE ENERGY PREDICTED BY IDOCK:    0.01 KCAL/MOL
REMARK 927      BINDING AFFINITY PREDICTED BY RF-SCORE:    0.00 PKD
ROOT
HETATM    1  C   UNL     1      -8.523  16.407  66.214  1.00  0.00    -0.372 C  
HETATM    2  C   UNL     1      -9.998  16.815  66.250  1.00  0.00    -0.336 C  
HETATM    3  C   UNL     1     -10.786  16.202  65.086  1.00  0.00    -0.391 C  
HETATM    4  C   UNL     1     -11.114  14.720  65.307  1.00  0.00    -0.370 C  
HETATM    5  C   UNL     1     -11.907  14.547  66.609  1.00  0.00    -0.383 C  
HETATM    6  C   UNL     1     -12.105  15.079  69.061  1.00  0.00    -0.243 C  
HETATM    7  C   UNL     1     -11.151  15.078  67.848  1.00  0.00    -0.310 C  
HETATM    8  C   UNL     1      -9.975  14.151  68.209  1.00  0.00    -0.241 C  
HETATM    9  C   UNL     1     -10.680  16.533  67.600  1.00  0.00    -0.311 C  
ENDROOT
BRANCH   4  10
HETATM   10  O   UNL     1     -11.918  14.225  64.217  1.00  0.00    -0.446 OA 
BRANCH  10  11
HETATM   11  C   UNL     1     -12.177  12.884  64.250  1.00  0.00    -0.410 C  
HETATM   12  O   UNL     1     -13.248  12.376  64.574  1.00  0.00    -0.834 OA 
BRANCH  11  13
HETATM   13  C   UNL     1     -10.951  12.060  63.842  1.00  0.00    -0.401 C  
HETATM   14  O   UNL     1      -9.842  12.912  63.537  1.00  0.00    -0.672 OA 
HETATM   15  H   UNL     1      -9.082  12.401  63.284  1.00  0.00     0.000 HD 
BRANCH  13  16
HETATM   16  C   UNL     1     -10.507  11.097  64.923  1.00  0.00    -0.372 A  
HETATM   17  C   UNL     1     -10.932  11.282  66.248  1.00  0.00    -0.265 A  
HETATM   18  C   UNL     1     -10.563  10.378  67.245  1.00  0.00    -0.322 A  
HETATM   19  C   UNL     1      -9.767   9.278  66.931  1.00  0.00    -0.248 A  
HETATM   20  C   UNL     1      -9.336   9.082  65.622  1.00  0.00    -0.289 A  
HETATM   21  C   UNL     1      -9.702   9.986  64.622  1.00  0.00    -0.339 A  
ENDBRANCH  13  16
ENDBRANCH  11  13
ENDBRANCH  10  11
ENDBRANCH   4  10
TORSDOF 4
ENDMDL
MODEL       31
REMARK 921   NORMALIZED FREE ENERGY PREDICTED BY IDOCK:   -5.66 KCAL/MOL
REMARK 922        TOTAL FREE ENERGY PREDICTED BY IDOCK:   -7.53 KCAL/MOL
REMARK 923 INTER-LIGAND FREE ENERGY PREDICTED BY IDOCK:   -6.34 KCAL/MOL
REMARK 924 INTRA-LIGAND FREE ENERGY PREDICTED BY IDOCK:   -1.19 KCAL/MOL
REMARK 927      BINDING AFFINITY PREDICTED BY RF-SCORE:    0.00 PKD
ROOT
HETATM    1  C   UNL     1     -12.867  12.275  64.426  1.00  0.00    -0.294 C  
HETATM    2  C   UNL     1     -11.360  12.082  64.244  1.00  0.00    -0.433 C  
HETATM    3  C   UNL     1     -10.637  13.418  64.032  1.00  0.00    -0.122 C  
HETATM    4  C   UNL     1     -10.453  14.205  65.335  1.00  0.00    -0.357 C  
HETATM    5  C   UNL     1      -9.678  13.360  66.354  1.00  0.00    -0.282 C  
HETATM    6  C   UNL     1      -9.424  11.143  67.519  1.00  0.00    -0.178 C  
HETATM    7  C   UNL     1     -10.377  12.019  66.679  1.00  0.00    -0.237 C  
HETATM    8  C   UNL     1     -11.636  12.254  67.535  1.00  0.00    -0.422 C  
HETATM    9  C   UNL     1     -10.705  11.261  65.368  1.00  0.00    -0.291 C  
ENDROOT
BRANCH   4  10
HETATM   10  O   UNL     1      -9.702  15.410  65.081  1.00  0.00    -0.221 OA 
BRANCH  10  11
HETATM   11  C   UNL     1     -10.415  16.571  65.190  1.00  0.00    -0.143 C  
HETATM   12  O   UNL     1     -11.280  16.947  64.404  1.00  0.00    -1.159 OA 
BRANCH  11  13
HETATM   13  C   UNL     1      -9.998  17.378  66.424  1.00  0.00    -0.316 C  
HETATM   14  O   UNL     1     -10.742  18.599  66.510  1.00  0.00    -0.367 OA 
HETATM   15  H   UNL     1     -10.484  19.100  67.274  1.00  0.00     0.000 HD 
BRANCH  13  16
HETATM   16  C   UNL     1     -10.209  16.621  67.718  1.00  0.00    -0.292 A  
HETATM   17  C   UNL     1     -11.504  16.250  68.112  1.00  0.00    -0.173 A  
HETATM   18  C   UNL     1     -11.707  15.516  69.282  1.00  0.00    -0.380 A  
HETATM   19  C   UNL     1     -10.620  15.142  70.069  1.00  0.00    -0.237 A  
HETATM   20  C   UNL     1      -9.330  15.504  69.692  1.00  0.00    -0.224 A  
HETATM   21  C   UNL     1      -9.124  16.241  68.524  1.00  0.00    -0.216 A  
ENDBRANCH  13  16
ENDBRANCH  11  13
ENDBRANCH  10  11
ENDBRANCH   4  10
TORSDOF 4
ENDMDL
MODEL       32
REMARK 921   NORMALIZED FREE ENERGY PREDICTED BY IDOCK:   -5.65 KCAL/MOL
REMARK 922        TOTAL FREE ENERGY PREDICTED BY IDOCK:   -7.52 KCAL/MOL
REMARK 923 INTER-LIGAND FREE ENERGY PREDICTED BY IDOCK:   -7.09 KCAL/MOL
REMARK 924 INTRA-LIGAND FREE ENERGY PREDICTED BY IDOCK:   -0.43 KCAL/MOL
REMARK 927      BINDING AFFINITY PREDICTED BY RF-SCORE:    0.00 PKD
ROOT
HETATM    1  C   UNL     1     -12.630  12.507  64.420  1.00  0.00    -0.497 C  
HETATM    2  C   UNL     1     -11.210  13.011  64.151  1.00  0.00    -0.439 C  
HETATM    3  C   UNL     1     -10.874  14.243  65.001  1.00  0.00    -0.414 C  
HETATM    4  C   UNL     1     -10.552  13.889  66.458  1.00  0.00    -0.279 C  
HETATM    5  C   UNL     1      -9.383  12.898  66.510  1.00  0.00    -0.224 C  
HETATM    6  C   UNL     1      -8.367  10.764  65.643  1.00  0.00    -0.144 C  
HETATM    7  C   UNL     1      -9.667  11.592  65.733  1.00  0.00    -0.263 C  
HETATM    8  C   UNL     1     -10.695  10.723  66.483  1.00  0.00    -0.245 C  
HETATM    9  C   UNL     1     -10.134  11.922  64.293  1.00  0.00    -0.325 C  
ENDROOT
BRANCH   4  10
HETATM   10  O   UNL     1     -10.172  15.077  67.182  1.00  0.00    -0.245 OA 
BRANCH  10  11
HETATM   11  C   UNL     1     -10.989  15.405  68.227  1.00  0.00    -0.288 C  
HETATM   12  O   UNL     1     -11.910  16.217  68.179  1.00  0.00    -0.152 OA 
BRANCH  11  13
HETATM   13  C   UNL     1     -10.614  14.641  69.501  1.00  0.00    -0.149 C  
HETATM   14  O   UNL     1      -9.340  15.067  69.995  1.00  0.00    -0.455 OA 
HETATM   15  H   UNL     1      -9.108  14.593  70.785  1.00  0.00     0.000 HD 
BRANCH  13  16
HETATM   16  C   UNL     1     -11.624  14.827  70.614  1.00  0.00    -0.324 A  
HETATM   17  C   UNL     1     -12.644  13.882  70.804  1.00  0.00    -0.424 A  
HETATM   18  C   UNL     1     -13.555  14.021  71.852  1.00  0.00    -0.520 A  
HETATM   19  C   UNL     1     -13.457  15.104  72.723  1.00  0.00    -0.603 A  
HETATM   20  C   UNL     1     -12.452  16.052  72.547  1.00  0.00    -0.558 A  
HETATM   21  C   UNL     1     -11.540  15.916  71.498  1.00  0.00    -0.537 A  
ENDBRANCH  13  16
ENDBRANCH  11  13
ENDBRANCH  10  11
ENDBRANCH   4  10
TORSDOF 4
ENDMDL
MODEL       33
REMARK 921   NORMALIZED FREE ENERGY PREDICTED BY IDOCK:   -5.56 KCAL/MOL
REMARK 922        TOTAL FREE ENERGY PREDICTED BY IDOCK:   -7.41 KCAL/MOL
REMARK 923 INTER-LIGAND FREE ENERGY PREDICTED BY IDOCK:   -6.98 KCAL/MOL
REMARK 924 INTRA-LIGAND FREE ENERGY PREDICTED BY IDOCK:   -0.44 KCAL/MOL
REMARK 927      BINDING AFFINITY PREDICTED BY RF-SCORE:    0.00 PKD
ROOT
HETATM    1  C   UNL     1     -10.441  13.701  64.592  1.00  0.00    -0.442 C  
HETATM    2  C   UNL     1     -11.760  13.768  65.365  1.00  0.00    -0.346 C  
HETATM    3  C   UNL     1     -12.116  12.419  66.000  1.00  0.00    -0.327 C  
HETATM    4  C   UNL     1     -11.304  12.126  67.267  1.00  0.00    -0.334 C  
HETATM    5  C   UNL     1     -11.514  13.246  68.294  1.00  0.00    -0.351 C  
HETATM    6  C   UNL     1     -11.570  15.719  68.758  1.00  0.00    -0.401 C  
HETATM    7  C   UNL     1     -11.111  14.638  67.757  1.00  0.00    -0.306 C  
HETATM    8  C   UNL     1      -9.579  14.757  67.645  1.00  0.00    -0.208 C  
HETATM    9  C   UNL     1     -11.808  14.905  66.400  1.00  0.00    -0.137 C  
ENDROOT
BRANCH   4  10
HETATM   10  O   UNL     1     -11.739  10.883  67.856  1.00  0.00    -0.557 OA 
BRANCH  10  11
HETATM   11  C   UNL     1     -10.791   9.901  67.902  1.00  0.00    -0.258 C  
HETATM   12  O   UNL     1     -10.405   9.242  66.940  1.00  0.00    -0.249 OA 
BRANCH  11  13
HETATM   13  C   UNL     1     -10.255   9.697  69.324  1.00  0.00    -0.205 C  
HETATM   14  O   UNL     1      -9.427  10.795  69.720  1.00  0.00    -0.397 OA 
HETATM   15  H   UNL     1      -9.095  10.669  70.600  1.00  0.00     0.000 HD 
BRANCH  13  16
HETATM   16  C   UNL     1     -11.359   9.561  70.351  1.00  0.00    -0.318 A  
HETATM   17  C   UNL     1     -11.772   8.288  70.775  1.00  0.00    -0.213 A  
HETATM   18  C   UNL     1     -12.760   8.151  71.752  1.00  0.00    -0.356 A  
HETATM   19  C   UNL     1     -13.344   9.282  72.318  1.00  0.00    -0.547 A  
HETATM   20  C   UNL     1     -12.946  10.551  71.907  1.00  0.00    -0.553 A  
HETATM   21  C   UNL     1     -11.960  10.692  70.928  1.00  0.00    -0.469 A  
ENDBRANCH  13  16
ENDBRANCH  11  13
ENDBRANCH  10  11
ENDBRANCH   4  10
TORSDOF 4
ENDMDL
MODEL       34
REMARK 921   NORMALIZED FREE ENERGY PREDICTED BY IDOCK:   -5.55 KCAL/MOL
REMARK 922        TOTAL FREE ENERGY PREDICTED BY IDOCK:   -7.41 KCAL/MOL
REMARK 923 INTER-LIGAND FREE ENERGY PREDICTED BY IDOCK:   -6.75 KCAL/MOL
REMARK 924 INTRA-LIGAND FREE ENERGY PREDICTED BY IDOCK:   -0.66 KCAL/MOL
REMARK 927      BINDING AFFINITY PREDICTED BY RF-SCORE:    0.00 PKD
ROOT
HETATM    1  C   UNL     1      -9.713   8.961  71.627  1.00  0.00    -0.379 C  
HETATM    2  C   UNL     1     -11.023   8.701  70.879  1.00  0.00    -0.301 C  
HETATM    3  C   UNL     1     -11.765  10.005  70.561  1.00  0.00    -0.400 C  
HETATM    4  C   UNL     1     -11.153  10.763  69.376  1.00  0.00    -0.268 C  
HETATM    5  C   UNL     1     -11.139   9.866  68.132  1.00  0.00    -0.215 C  
HETATM    6  C   UNL     1     -10.582   7.621  67.138  1.00  0.00    -0.410 C  
HETATM    7  C   UNL     1     -10.348   8.555  68.344  1.00  0.00    -0.241 C  
HETATM    8  C   UNL     1      -8.834   8.834  68.403  1.00  0.00    -0.138 C  
HETATM    9  C   UNL     1     -10.849   7.833  69.620  1.00  0.00    -0.185 C  
ENDROOT
BRANCH   4  10
HETATM   10  O   UNL     1     -11.940  11.935  69.082  1.00  0.00    -0.306 OA 
BRANCH  10  11
HETATM   11  C   UNL     1     -11.267  12.939  68.445  1.00  0.00    -0.270 C  
HETATM   12  O   UNL     1     -10.163  13.371  68.770  1.00  0.00    -0.211 OA 
BRANCH  11  13
HETATM   13  C   UNL     1     -12.063  13.491  67.257  1.00  0.00    -0.323 C  
HETATM   14  O   UNL     1     -11.843  14.897  67.104  1.00  0.00    -0.338 OA 
HETATM   15  H   UNL     1     -12.336  15.239  66.369  1.00  0.00     0.000 HD 
BRANCH  13  16
HETATM   16  C   UNL     1     -11.698  12.824  65.948  1.00  0.00    -0.464 A  
HETATM   17  C   UNL     1     -12.611  12.825  64.881  1.00  0.00    -0.541 A  
HETATM   18  C   UNL     1     -12.270  12.250  63.655  1.00  0.00    -0.665 A  
HETATM   19  C   UNL     1     -11.015  11.671  63.480  1.00  0.00    -0.485 A  
HETATM   20  C   UNL     1     -10.100  11.661  64.529  1.00  0.00    -0.321 A  
HETATM   21  C   UNL     1     -10.438  12.234  65.757  1.00  0.00    -0.287 A  
ENDBRANCH  13  16
ENDBRANCH  11  13
ENDBRANCH  10  11
ENDBRANCH   4  10
TORSDOF 4
ENDMDL
MODEL       35
REMARK 921   NORMALIZED FREE ENERGY PREDICTED BY IDOCK:   -5.54 KCAL/MOL
REMARK 922        TOTAL FREE ENERGY PREDICTED BY IDOCK:   -7.38 KCAL/MOL
REMARK 923 INTER-LIGAND FREE ENERGY PREDICTED BY IDOCK:   -6.84 KCAL/MOL
REMARK 924 INTRA-LIGAND FREE ENERGY PREDICTED BY IDOCK:   -0.54 KCAL/MOL
REMARK 927      BINDING AFFINITY PREDICTED BY RF-SCORE:    0.00 PKD
ROOT
HETATM    1  C   UNL     1      -8.188  11.210  66.966  1.00  0.00    -0.146 C  
HETATM    2  C   UNL     1      -9.433  10.620  66.300  1.00  0.00    -0.213 C  
HETATM    3  C   UNL     1     -10.526  10.295  67.325  1.00  0.00    -0.307 C  
HETATM    4  C   UNL     1     -11.281  11.541  67.803  1.00  0.00    -0.279 C  
HETATM    5  C   UNL     1     -11.904  12.267  66.604  1.00  0.00    -0.362 C  
HETATM    6  C   UNL     1     -11.588  13.201  64.288  1.00  0.00    -0.440 C  
HETATM    7  C   UNL     1     -10.858  12.695  65.549  1.00  0.00    -0.310 C  
HETATM    8  C   UNL     1     -10.006  13.869  66.071  1.00  0.00    -0.325 C  
HETATM    9  C   UNL     1      -9.981  11.482  65.150  1.00  0.00    -0.304 C  
ENDROOT
BRANCH   4  10
HETATM   10  O   UNL     1     -12.342  11.160  68.703  1.00  0.00    -0.549 OA 
BRANCH  10  11
HETATM   11  C   UNL     1     -12.222  11.642  69.976  1.00  0.00    -0.263 C  
HETATM   12  O   UNL     1     -11.750  12.734  70.279  1.00  0.00    -0.246 OA 
BRANCH  11  13
HETATM   13  C   UNL     1     -12.742  10.640  71.012  1.00  0.00    -0.415 C  
HETATM   14  O   UNL     1     -13.888   9.940  70.515  1.00  0.00    -0.412 OA 
HETATM   15  H   UNL     1     -14.211   9.319  71.157  1.00  0.00     0.000 HD 
BRANCH  13  16
HETATM   16  C   UNL     1     -11.706   9.607  71.400  1.00  0.00    -0.478 A  
HETATM   17  C   UNL     1     -10.412   9.672  70.860  1.00  0.00    -0.359 A  
HETATM   18  C   UNL     1      -9.436   8.750  71.241  1.00  0.00    -0.320 A  
HETATM   19  C   UNL     1      -9.740   7.754  72.167  1.00  0.00    -0.240 A  
HETATM   20  C   UNL     1     -11.019   7.675  72.710  1.00  0.00    -0.432 A  
HETATM   21  C   UNL     1     -11.999   8.595  72.329  1.00  0.00    -0.438 A  
ENDBRANCH  13  16
ENDBRANCH  11  13
ENDBRANCH  10  11
ENDBRANCH   4  10
TORSDOF 4
ENDMDL
MODEL       36
REMARK 921   NORMALIZED FREE ENERGY PREDICTED BY IDOCK:   -5.53 KCAL/MOL
REMARK 922        TOTAL FREE ENERGY PREDICTED BY IDOCK:   -7.37 KCAL/MOL
REMARK 923 INTER-LIGAND FREE ENERGY PREDICTED BY IDOCK:   -7.05 KCAL/MOL
REMARK 924 INTRA-LIGAND FREE ENERGY PREDICTED BY IDOCK:   -0.32 KCAL/MOL
REMARK 927      BINDING AFFINITY PREDICTED BY RF-SCORE:    0.00 PKD
ROOT
HETATM    1  C   UNL     1      -8.138   7.598  69.815  1.00  0.00    -0.125 C  
HETATM    2  C   UNL     1      -8.325   7.609  71.334  1.00  0.00    -0.111 C  
HETATM    3  C   UNL     1      -9.258   8.739  71.784  1.00  0.00    -0.332 C  
HETATM    4  C   UNL     1     -10.738   8.424  71.530  1.00  0.00    -0.247 C  
HETATM    5  C   UNL     1     -11.126   7.124  72.246  1.00  0.00    -0.289 C  
HETATM    6  C   UNL     1     -10.572   4.715  72.725  1.00  0.00    -0.273 C  
HETATM    7  C   UNL     1     -10.277   5.913  71.797  1.00  0.00    -0.248 C  
HETATM    8  C   UNL     1     -10.661   5.475  70.371  1.00  0.00    -0.350 C  
HETATM    9  C   UNL     1      -8.769   6.252  71.908  1.00  0.00    -0.136 C  
ENDROOT
BRANCH   4  10
HETATM   10  O   UNL     1     -11.564   9.488  72.043  1.00  0.00    -0.311 OA 
BRANCH  10  11
HETATM   11  C   UNL     1     -12.521   9.946  71.181  1.00  0.00    -0.368 C  
HETATM   12  O   UNL     1     -13.667   9.511  71.099  1.00  0.00    -0.307 OA 
BRANCH  11  13
HETATM   13  C   UNL     1     -11.991  11.080  70.297  1.00  0.00    -0.365 C  
HETATM   14  O   UNL     1     -12.441  10.927  68.947  1.00  0.00    -0.745 OA 
HETATM   15  H   UNL     1     -12.113  11.629  68.399  1.00  0.00     0.000 HD 
BRANCH  13  16
HETATM   16  C   UNL     1     -12.431  12.448  70.774  1.00  0.00    -0.356 A  
HETATM   17  C   UNL     1     -13.185  12.573  71.951  1.00  0.00    -0.495 A  
HETATM   18  C   UNL     1     -13.561  13.832  72.424  1.00  0.00    -0.690 A  
HETATM   19  C   UNL     1     -13.187  14.979  71.727  1.00  0.00    -0.457 A  
HETATM   20  C   UNL     1     -12.441  14.871  70.557  1.00  0.00    -0.419 A  
HETATM   21  C   UNL     1     -12.065  13.613  70.081  1.00  0.00    -0.431 A  
ENDBRANCH  13  16
ENDBRANCH  11  13
ENDBRANCH  10  11
ENDBRANCH   4  10
TORSDOF 4
ENDMDL
MODEL       37
REMARK 921   NORMALIZED FREE ENERGY PREDICTED BY IDOCK:   -5.52 KCAL/MOL
REMARK 922        TOTAL FREE ENERGY PREDICTED BY IDOCK:   -7.36 KCAL/MOL
REMARK 923 INTER-LIGAND FREE ENERGY PREDICTED BY IDOCK:   -6.77 KCAL/MOL
REMARK 924 INTRA-LIGAND FREE ENERGY PREDICTED BY IDOCK:   -0.59 KCAL/MOL
REMARK 927      BINDING AFFINITY PREDICTED BY RF-SCORE:    0.00 PKD
ROOT
HETATM    1  C   UNL     1      -8.482  12.692  68.279  1.00  0.00    -0.163 C  
HETATM    2  C   UNL     1      -8.920  14.125  67.966  1.00  0.00    -0.183 C  
HETATM    3  C   UNL     1      -9.558  14.235  66.577  1.00  0.00    -0.313 C  
HETATM    4  C   UNL     1     -10.998  13.710  66.542  1.00  0.00    -0.295 C  
HETATM    5  C   UNL     1     -11.857  14.469  67.560  1.00  0.00    -0.404 C  
HETATM    6  C   UNL     1     -12.101  15.326  69.915  1.00  0.00    -0.375 C  
HETATM    7  C   UNL     1     -11.321  14.352  69.006  1.00  0.00    -0.297 C  
HETATM    8  C   UNL     1     -11.560  12.936  69.563  1.00  0.00    -0.348 C  
HETATM    9  C   UNL     1      -9.823  14.742  69.049  1.00  0.00    -0.206 C  
ENDROOT
BRANCH   4  10
HETATM   10  O   UNL     1     -11.565  13.911  65.230  1.00  0.00    -0.311 OA 
BRANCH  10  11
HETATM   11  C   UNL     1     -12.084  12.791  64.646  1.00  0.00    -0.423 C  
HETATM   12  O   UNL     1     -13.229  12.375  64.803  1.00  0.00    -0.784 OA 
BRANCH  11  13
HETATM   13  C   UNL     1     -11.053  12.085  63.759  1.00  0.00    -0.439 C  
HETATM   14  O   UNL     1     -10.032  12.996  63.337  1.00  0.00    -0.536 OA 
HETATM   15  H   UNL     1      -9.394  12.559  62.788  1.00  0.00     0.000 HD 
BRANCH  13  16
HETATM   16  C   UNL     1     -10.373  10.927  64.459  1.00  0.00    -0.417 A  
HETATM   17  C   UNL     1      -9.417  10.157  63.778  1.00  0.00    -0.330 A  
HETATM   18  C   UNL     1      -8.754   9.114  64.426  1.00  0.00    -0.184 A  
HETATM   19  C   UNL     1      -9.035   8.829  65.761  1.00  0.00    -0.253 A  
HETATM   20  C   UNL     1      -9.981   9.583  66.449  1.00  0.00    -0.339 A  
HETATM   21  C   UNL     1     -10.648  10.626  65.803  1.00  0.00    -0.168 A  
ENDBRANCH  13  16
ENDBRANCH  11  13
ENDBRANCH  10  11
ENDBRANCH   4  10
TORSDOF 4
ENDMDL
MODEL       38
REMARK 921   NORMALIZED FREE ENERGY PREDICTED BY IDOCK:   -5.49 KCAL/MOL
REMARK 922        TOTAL FREE ENERGY PREDICTED BY IDOCK:   -7.33 KCAL/MOL
REMARK 923 INTER-LIGAND FREE ENERGY PREDICTED BY IDOCK:   -6.86 KCAL/MOL
REMARK 924 INTRA-LIGAND FREE ENERGY PREDICTED BY IDOCK:   -0.47 KCAL/MOL
REMARK 927      BINDING AFFINITY PREDICTED BY RF-SCORE:    0.00 PKD
ROOT
HETATM    1  C   UNL     1      -9.468   9.737  67.199  1.00  0.00    -0.189 C  
HETATM    2  C   UNL     1      -9.188  11.241  67.160  1.00  0.00    -0.169 C  
HETATM    3  C   UNL     1      -9.695  11.880  65.862  1.00  0.00    -0.258 C  
HETATM    4  C   UNL     1     -11.214  12.088  65.857  1.00  0.00    -0.337 C  
HETATM    5  C   UNL     1     -11.628  12.958  67.050  1.00  0.00    -0.419 C  
HETATM    6  C   UNL     1     -11.459  13.388  69.525  1.00  0.00    -0.308 C  
HETATM    7  C   UNL     1     -11.216  12.349  68.410  1.00  0.00    -0.316 C  
HETATM    8  C   UNL     1     -12.088  11.124  68.746  1.00  0.00    -0.232 C  
HETATM    9  C   UNL     1      -9.708  11.994  68.397  1.00  0.00    -0.199 C  
ENDROOT
BRANCH   4  10
HETATM   10  O   UNL     1     -11.616  12.760  64.645  1.00  0.00    -0.312 OA 
BRANCH  10  11
HETATM   11  C   UNL     1     -12.169  13.996  64.824  1.00  0.00    -0.433 C  
HETATM   12  O   UNL     1     -13.319  14.210  65.201  1.00  0.00    -0.684 OA 
BRANCH  11  13
HETATM   13  C   UNL     1     -11.179  15.115  64.485  1.00  0.00    -0.272 C  
HETATM   14  O   UNL     1     -11.852  16.226  63.881  1.00  0.00    -1.400 OA 
HETATM   15  H   UNL     1     -11.239  16.919  63.670  1.00  0.00     0.000 HD 
BRANCH  13  16
HETATM   16  C   UNL     1     -10.441  15.633  65.701  1.00  0.00    -0.402 A  
HETATM   17  C   UNL     1      -9.131  15.202  65.964  1.00  0.00    -0.196 A  
HETATM   18  C   UNL     1      -8.425  15.703  67.059  1.00  0.00    -0.257 A  
HETATM   19  C   UNL     1      -9.017  16.642  67.901  1.00  0.00    -0.217 A  
HETATM   20  C   UNL     1     -10.316  17.078  67.654  1.00  0.00    -0.332 A  
HETATM   21  C   UNL     1     -11.026  16.577  66.561  1.00  0.00     0.071 A  
ENDBRANCH  13  16
ENDBRANCH  11  13
ENDBRANCH  10  11
ENDBRANCH   4  10
TORSDOF 4
ENDMDL
MODEL       39
REMARK 921   NORMALIZED FREE ENERGY PREDICTED BY IDOCK:   -5.48 KCAL/MOL
REMARK 922        TOTAL FREE ENERGY PREDICTED BY IDOCK:   -7.31 KCAL/MOL
REMARK 923 INTER-LIGAND FREE ENERGY PREDICTED BY IDOCK:   -6.83 KCAL/MOL
REMARK 924 INTRA-LIGAND FREE ENERGY PREDICTED BY IDOCK:   -0.49 KCAL/MOL
REMARK 927      BINDING AFFINITY PREDICTED BY RF-SCORE:    0.00 PKD
ROOT
HETATM    1  C   UNL     1      -8.868  18.475  68.013  1.00  0.00    -0.317 C  
HETATM    2  C   UNL     1      -9.758  17.264  68.306  1.00  0.00    -0.294 C  
HETATM    3  C   UNL     1     -10.621  16.886  67.097  1.00  0.00    -0.249 C  
HETATM    4  C   UNL     1      -9.832  16.138  66.015  1.00  0.00    -0.347 C  
HETATM    5  C   UNL     1      -9.202  14.872  66.609  1.00  0.00    -0.302 C  
HETATM    6  C   UNL     1      -7.857  13.841  68.471  1.00  0.00    -0.132 C  
HETATM    7  C   UNL     1      -8.257  15.170  67.796  1.00  0.00    -0.159 C  
HETATM    8  C   UNL     1      -6.953  15.827  67.303  1.00  0.00    -0.232 C  
HETATM    9  C   UNL     1      -8.983  16.048  68.844  1.00  0.00    -0.239 C  
ENDROOT
BRANCH   4  10
HETATM   10  O   UNL     1     -10.714  15.746  64.943  1.00  0.00    -0.456 OA 
BRANCH  10  11
HETATM   11  C   UNL     1     -11.022  14.415  64.904  1.00  0.00    -0.406 C  
HETATM   12  O   UNL     1     -10.380  13.557  64.303  1.00  0.00    -0.406 OA 
BRANCH  11  13
HETATM   13  C   UNL     1     -12.293  14.103  65.700  1.00  0.00    -0.456 C  
HETATM   14  O   UNL     1     -13.198  13.309  64.926  1.00  0.00    -0.703 OA 
HETATM   15  H   UNL     1     -13.986  13.116  65.419  1.00  0.00     0.000 HD 
BRANCH  13  16
HETATM   16  C   UNL     1     -12.011  13.355  66.985  1.00  0.00    -0.429 A  
HETATM   17  C   UNL     1     -12.182  13.994  68.223  1.00  0.00    -0.195 A  
HETATM   18  C   UNL     1     -11.964  13.303  69.416  1.00  0.00    -0.356 A  
HETATM   19  C   UNL     1     -11.576  11.965  69.386  1.00  0.00    -0.388 A  
HETATM   20  C   UNL     1     -11.400  11.317  68.166  1.00  0.00    -0.372 A  
HETATM   21  C   UNL     1     -11.615  12.007  66.971  1.00  0.00    -0.387 A  
ENDBRANCH  13  16
ENDBRANCH  11  13
ENDBRANCH  10  11
ENDBRANCH   4  10
TORSDOF 4
ENDMDL
MODEL       40
REMARK 921   NORMALIZED FREE ENERGY PREDICTED BY IDOCK:   -5.46 KCAL/MOL
REMARK 922        TOTAL FREE ENERGY PREDICTED BY IDOCK:   -7.29 KCAL/MOL
REMARK 923 INTER-LIGAND FREE ENERGY PREDICTED BY IDOCK:   -7.01 KCAL/MOL
REMARK 924 INTRA-LIGAND FREE ENERGY PREDICTED BY IDOCK:   -0.28 KCAL/MOL
REMARK 927      BINDING AFFINITY PREDICTED BY RF-SCORE:    0.00 PKD
ROOT
HETATM    1  C   UNL     1      -6.694  18.925  67.934  1.00  0.00    -0.230 C  
HETATM    2  C   UNL     1      -7.294  18.417  66.621  1.00  0.00    -0.250 C  
HETATM    3  C   UNL     1      -7.919  17.027  66.782  1.00  0.00    -0.274 C  
HETATM    4  C   UNL     1      -9.285  17.066  67.477  1.00  0.00    -0.231 C  
HETATM    5  C   UNL     1     -10.245  17.970  66.694  1.00  0.00    -0.375 C  
HETATM    6  C   UNL     1     -10.627  20.184  65.557  1.00  0.00    -0.232 C  
HETATM    7  C   UNL     1      -9.722  19.417  66.545  1.00  0.00    -0.452 C  
HETATM    8  C   UNL     1      -9.798  20.166  67.890  1.00  0.00    -0.525 C  
HETATM    9  C   UNL     1      -8.282  19.405  65.975  1.00  0.00    -0.245 C  
ENDROOT
BRANCH   4  10
HETATM   10  O   UNL     1      -9.851  15.740  67.529  1.00  0.00    -0.226 OA 
BRANCH  10  11
HETATM   11  C   UNL     1     -10.356  15.373  68.744  1.00  0.00    -0.229 C  
HETATM   12  O   UNL     1      -9.693  15.192  69.762  1.00  0.00    -0.187 OA 
BRANCH  11  13
HETATM   13  C   UNL     1     -11.878  15.195  68.695  1.00  0.00    -0.302 C  
HETATM   14  O   UNL     1     -12.249  14.247  67.689  1.00  0.00    -0.573 OA 
HETATM   15  H   UNL     1     -13.191  14.137  67.658  1.00  0.00     0.000 HD 
BRANCH  13  16
HETATM   16  C   UNL     1     -12.453  14.716  70.011  1.00  0.00    -0.333 A  
HETATM   17  C   UNL     1     -13.288  15.558  70.761  1.00  0.00    -0.315 A  
HETATM   18  C   UNL     1     -13.859  15.113  71.955  1.00  0.00    -0.608 A  
HETATM   19  C   UNL     1     -13.604  13.821  72.411  1.00  0.00    -0.690 A  
HETATM   20  C   UNL     1     -12.776  12.974  71.679  1.00  0.00    -0.308 A  
HETATM   21  C   UNL     1     -12.203  13.418  70.486  1.00  0.00    -0.425 A  
ENDBRANCH  13  16
ENDBRANCH  11  13
ENDBRANCH  10  11
ENDBRANCH   4  10
TORSDOF 4
ENDMDL
MODEL       41
REMARK 921   NORMALIZED FREE ENERGY PREDICTED BY IDOCK:   -5.45 KCAL/MOL
REMARK 922        TOTAL FREE ENERGY PREDICTED BY IDOCK:   -7.27 KCAL/MOL
REMARK 923 INTER-LIGAND FREE ENERGY PREDICTED BY IDOCK:   -6.90 KCAL/MOL
REMARK 924 INTRA-LIGAND FREE ENERGY PREDICTED BY IDOCK:   -0.38 KCAL/MOL
REMARK 927      BINDING AFFINITY PREDICTED BY RF-SCORE:    0.00 PKD
ROOT
HETATM    1  C   UNL     1     -10.698   6.761  68.641  1.00  0.00    -0.279 C  
HETATM    2  C   UNL     1      -9.697   7.381  69.618  1.00  0.00    -0.163 C  
HETATM    3  C   UNL     1      -9.897   8.896  69.751  1.00  0.00    -0.186 C  
HETATM    4  C   UNL     1     -11.096   9.261  70.633  1.00  0.00    -0.276 C  
HETATM    5  C   UNL     1     -10.929   8.643  72.027  1.00  0.00    -0.432 C  
HETATM    6  C   UNL     1     -10.397   6.597  73.393  1.00  0.00    -0.296 C  
HETATM    7  C   UNL     1     -10.791   7.104  71.990  1.00  0.00    -0.252 C  
HETATM    8  C   UNL     1     -12.139   6.443  71.641  1.00  0.00    -0.319 C  
HETATM    9  C   UNL     1      -9.677   6.695  70.995  1.00  0.00    -0.185 C  
ENDROOT
BRANCH   4  10
HETATM   10  O   UNL     1     -11.183  10.694  70.779  1.00  0.00    -0.246 OA 
BRANCH  10  11
HETATM   11  C   UNL     1     -12.196  11.287  70.081  1.00  0.00    -0.330 C  
HETATM   12  O   UNL     1     -12.285  11.325  68.856  1.00  0.00    -0.494 OA 
BRANCH  11  13
HETATM   13  C   UNL     1     -13.229  11.927  71.014  1.00  0.00     0.234 C  
HETATM   14  O   UNL     1     -13.382  11.158  72.211  1.00  0.00    -0.633 OA 
HETATM   15  H   UNL     1     -14.022  11.554  72.789  1.00  0.00     0.000 HD 
BRANCH  13  16
HETATM   16  C   UNL     1     -12.857  13.338  71.419  1.00  0.00    -0.411 A  
HETATM   17  C   UNL     1     -13.356  13.880  72.614  1.00  0.00    -0.640 A  
HETATM   18  C   UNL     1     -12.987  15.164  73.019  1.00  0.00    -0.597 A  
HETATM   19  C   UNL     1     -12.115  15.919  72.238  1.00  0.00    -0.597 A  
HETATM   20  C   UNL     1     -11.613  15.396  71.049  1.00  0.00    -0.410 A  
HETATM   21  C   UNL     1     -11.982  14.112  70.640  1.00  0.00    -0.385 A  
ENDBRANCH  13  16
ENDBRANCH  11  13
ENDBRANCH  10  11
ENDBRANCH   4  10
TORSDOF 4
ENDMDL
MODEL       42
REMARK 921   NORMALIZED FREE ENERGY PREDICTED BY IDOCK:   -5.44 KCAL/MOL
REMARK 922        TOTAL FREE ENERGY PREDICTED BY IDOCK:   -7.26 KCAL/MOL
REMARK 923 INTER-LIGAND FREE ENERGY PREDICTED BY IDOCK:   -6.78 KCAL/MOL
REMARK 924 INTRA-LIGAND FREE ENERGY PREDICTED BY IDOCK:   -0.48 KCAL/MOL
REMARK 927      BINDING AFFINITY PREDICTED BY RF-SCORE:    0.00 PKD
ROOT
HETATM    1  C   UNL     1      -9.544   9.261  71.305  1.00  0.00    -0.272 C  
HETATM    2  C   UNL     1     -10.882   9.126  70.575  1.00  0.00    -0.306 C  
HETATM    3  C   UNL     1     -11.416  10.486  70.110  1.00  0.00    -0.405 C  
HETATM    4  C   UNL     1     -10.701  11.008  68.857  1.00  0.00    -0.211 C  
HETATM    5  C   UNL     1     -10.832   9.990  67.717  1.00  0.00    -0.337 C  
HETATM    6  C   UNL     1     -10.634   7.592  66.977  1.00  0.00    -0.409 C  
HETATM    7  C   UNL     1     -10.252   8.603  68.079  1.00  0.00    -0.261 C  
HETATM    8  C   UNL     1      -8.713   8.651  68.124  1.00  0.00    -0.142 C  
HETATM    9  C   UNL     1     -10.852   8.111  69.420  1.00  0.00    -0.096 C  
ENDROOT
BRANCH   4  10
HETATM   10  O   UNL     1     -11.298  12.249  68.429  1.00  0.00    -0.245 OA 
BRANCH  10  11
HETATM   11  C   UNL     1     -10.544  13.364  68.658  1.00  0.00    -0.241 C  
HETATM   12  O   UNL     1      -9.316  13.398  68.679  1.00  0.00    -0.133 OA 
BRANCH  11  13
HETATM   13  C   UNL     1     -11.418  14.599  68.904  1.00  0.00    -0.298 C  
HETATM   14  O   UNL     1     -12.576  14.580  68.062  1.00  0.00    -0.481 OA 
HETATM   15  H   UNL     1     -13.118  15.345  68.215  1.00  0.00     0.000 HD 
BRANCH  13  16
HETATM   16  C   UNL     1     -11.895  14.702  70.337  1.00  0.00    -0.365 A  
HETATM   17  C   UNL     1     -11.604  15.848  71.094  1.00  0.00    -0.481 A  
HETATM   18  C   UNL     1     -12.073  15.973  72.403  1.00  0.00    -0.629 A  
HETATM   19  C   UNL     1     -12.839  14.957  72.970  1.00  0.00    -0.586 A  
HETATM   20  C   UNL     1     -13.134  13.813  72.233  1.00  0.00    -0.500 A  
HETATM   21  C   UNL     1     -12.665  13.684  70.924  1.00  0.00    -0.382 A  
ENDBRANCH  13  16
ENDBRANCH  11  13
ENDBRANCH  10  11
ENDBRANCH   4  10
TORSDOF 4
ENDMDL
MODEL       43
REMARK 921   NORMALIZED FREE ENERGY PREDICTED BY IDOCK:   -5.43 KCAL/MOL
REMARK 922        TOTAL FREE ENERGY PREDICTED BY IDOCK:   -7.26 KCAL/MOL
REMARK 923 INTER-LIGAND FREE ENERGY PREDICTED BY IDOCK:   -6.70 KCAL/MOL
REMARK 924 INTRA-LIGAND FREE ENERGY PREDICTED BY IDOCK:   -0.55 KCAL/MOL
REMARK 927      BINDING AFFINITY PREDICTED BY RF-SCORE:    0.00 PKD
ROOT
HETATM    1  C   UNL     1     -11.089   6.233  68.733  1.00  0.00    -0.424 C  
HETATM    2  C   UNL     1      -9.931   6.812  69.549  1.00  0.00    -0.172 C  
HETATM    3  C   UNL     1      -9.734   8.308  69.274  1.00  0.00    -0.177 C  
HETATM    4  C   UNL     1     -10.771   9.184  69.987  1.00  0.00    -0.232 C  
HETATM    5  C   UNL     1     -10.720   8.931  71.499  1.00  0.00    -0.398 C  
HETATM    6  C   UNL     1     -10.681   7.249  73.371  1.00  0.00    -0.415 C  
HETATM    7  C   UNL     1     -10.980   7.454  71.871  1.00  0.00    -0.267 C  
HETATM    8  C   UNL     1     -12.463   7.090  71.659  1.00  0.00    -0.413 C  
HETATM    9  C   UNL     1     -10.040   6.529  71.058  1.00  0.00    -0.208 C  
ENDROOT
BRANCH   4  10
HETATM   10  O   UNL     1     -10.485  10.578  69.750  1.00  0.00    -0.244 OA 
BRANCH  10  11
HETATM   11  C   UNL     1     -11.452  11.259  69.065  1.00  0.00    -0.302 C  
HETATM   12  O   UNL     1     -12.649  10.984  69.067  1.00  0.00    -0.378 OA 
BRANCH  11  13
HETATM   13  C   UNL     1     -10.863  12.426  68.265  1.00  0.00    -0.237 C  
HETATM   14  O   UNL     1      -9.457  12.550  68.502  1.00  0.00    -0.327 OA 
HETATM   15  H   UNL     1      -9.092  13.273  68.006  1.00  0.00     0.000 HD 
BRANCH  13  16
HETATM   16  C   UNL     1     -11.065  12.273  66.773  1.00  0.00    -0.345 A  
HETATM   17  C   UNL     1     -10.289  11.355  66.049  1.00  0.00    -0.297 A  
HETATM   18  C   UNL     1     -10.494  11.175  64.680  1.00  0.00    -0.400 A  
HETATM   19  C   UNL     1     -11.478  11.908  64.019  1.00  0.00    -0.480 A  
HETATM   20  C   UNL     1     -12.254  12.824  64.723  1.00  0.00    -0.517 A  
HETATM   21  C   UNL     1     -12.050  13.008  66.092  1.00  0.00    -0.473 A  
ENDBRANCH  13  16
ENDBRANCH  11  13
ENDBRANCH  10  11
ENDBRANCH   4  10
TORSDOF 4
ENDMDL
MODEL       44
REMARK 921   NORMALIZED FREE ENERGY PREDICTED BY IDOCK:   -5.41 KCAL/MOL
REMARK 922        TOTAL FREE ENERGY PREDICTED BY IDOCK:   -7.22 KCAL/MOL
REMARK 923 INTER-LIGAND FREE ENERGY PREDICTED BY IDOCK:   -6.74 KCAL/MOL
REMARK 924 INTRA-LIGAND FREE ENERGY PREDICTED BY IDOCK:   -0.48 KCAL/MOL
REMARK 927      BINDING AFFINITY PREDICTED BY RF-SCORE:    0.00 PKD
ROOT
HETATM    1  C   UNL     1     -11.025   6.249  68.743  1.00  0.00    -0.424 C  
HETATM    2  C   UNL     1      -9.870   6.857  69.542  1.00  0.00    -0.163 C  
HETATM    3  C   UNL     1      -9.723   8.360  69.277  1.00  0.00    -0.177 C  
HETATM    4  C   UNL     1     -10.772   9.199  70.016  1.00  0.00    -0.232 C  
HETATM    5  C   UNL     1     -10.686   8.935  71.524  1.00  0.00    -0.398 C  
HETATM    6  C   UNL     1     -10.560   7.240  73.381  1.00  0.00    -0.435 C  
HETATM    7  C   UNL     1     -10.893   7.447  71.888  1.00  0.00    -0.262 C  
HETATM    8  C   UNL     1     -12.368   7.041  71.702  1.00  0.00    -0.407 C  
HETATM    9  C   UNL     1      -9.941   6.558  71.050  1.00  0.00    -0.203 C  
ENDROOT
BRANCH   4  10
HETATM   10  O   UNL     1     -10.533  10.602  69.786  1.00  0.00    -0.222 OA 
BRANCH  10  11
HETATM   11  C   UNL     1     -11.605  11.302  69.308  1.00  0.00    -0.322 C  
HETATM   12  O   UNL     1     -12.769  10.908  69.314  1.00  0.00    -0.282 OA 
BRANCH  11  13
HETATM   13  C   UNL     1     -11.186  12.661  68.738  1.00  0.00    -0.280 C  
HETATM   14  O   UNL     1      -9.781  12.876  68.910  1.00  0.00    -0.413 OA 
HETATM   15  H   UNL     1      -9.522  13.718  68.557  1.00  0.00     0.000 HD 
BRANCH  13  16
HETATM   16  C   UNL     1     -11.494  12.798  67.262  1.00  0.00    -0.393 A  
HETATM   17  C   UNL     1     -12.176  13.929  66.787  1.00  0.00    -0.438 A  
HETATM   18  C   UNL     1     -12.428  14.085  65.424  1.00  0.00    -0.520 A  
HETATM   19  C   UNL     1     -12.002  13.116  64.519  1.00  0.00    -0.442 A  
HETATM   20  C   UNL     1     -11.326  11.987  64.974  1.00  0.00    -0.365 A  
HETATM   21  C   UNL     1     -11.074  11.827  66.338  1.00  0.00    -0.360 A  
ENDBRANCH  13  16
ENDBRANCH  11  13
ENDBRANCH  10  11
ENDBRANCH   4  10
TORSDOF 4
ENDMDL
MODEL       45
REMARK 921   NORMALIZED FREE ENERGY PREDICTED BY IDOCK:   -5.40 KCAL/MOL
REMARK 922        TOTAL FREE ENERGY PREDICTED BY IDOCK:   -7.22 KCAL/MOL
REMARK 923 INTER-LIGAND FREE ENERGY PREDICTED BY IDOCK:   -7.21 KCAL/MOL
REMARK 924 INTRA-LIGAND FREE ENERGY PREDICTED BY IDOCK:   -0.01 KCAL/MOL
REMARK 927      BINDING AFFINITY PREDICTED BY RF-SCORE:    0.00 PKD
ROOT
HETATM    1  C   UNL     1     -10.398  19.471  66.242  1.00  0.00    -0.601 C  
HETATM    2  C   UNL     1     -10.281  19.131  67.730  1.00  0.00    -0.492 C  
HETATM    3  C   UNL     1     -10.667  17.675  68.012  1.00  0.00    -0.333 C  
HETATM    4  C   UNL     1      -9.566  16.681  67.622  1.00  0.00    -0.239 C  
HETATM    5  C   UNL     1      -8.268  17.020  68.367  1.00  0.00    -0.250 C  
HETATM    6  C   UNL     1      -6.604  18.784  69.041  1.00  0.00    -0.306 C  
HETATM    7  C   UNL     1      -7.767  18.454  68.082  1.00  0.00    -0.304 C  
HETATM    8  C   UNL     1      -7.207  18.562  66.651  1.00  0.00    -0.239 C  
HETATM    9  C   UNL     1      -8.907  19.473  68.331  1.00  0.00    -0.389 C  
ENDROOT
BRANCH   4  10
HETATM   10  O   UNL     1      -9.959  15.341  67.983  1.00  0.00    -0.222 OA 
BRANCH  10  11
HETATM   11  C   UNL     1     -10.560  15.223  69.204  1.00  0.00    -0.250 C  
HETATM   12  O   UNL     1     -10.050  15.530  70.278  1.00  0.00    -0.270 OA 
BRANCH  11  13
HETATM   13  C   UNL     1     -11.972  14.638  69.086  1.00  0.00    -0.294 C  
HETATM   14  O   UNL     1     -12.339  14.462  67.713  1.00  0.00    -0.620 OA 
HETATM   15  H   UNL     1     -13.213  14.100  67.640  1.00  0.00     0.000 HD 
BRANCH  13  16
HETATM   16  C   UNL     1     -12.109  13.296  69.773  1.00  0.00    -0.355 A  
HETATM   17  C   UNL     1     -11.581  12.142  69.173  1.00  0.00    -0.374 A  
HETATM   18  C   UNL     1     -11.665  10.906  69.816  1.00  0.00    -0.413 A  
HETATM   19  C   UNL     1     -12.274  10.808  71.066  1.00  0.00    -0.485 A  
HETATM   20  C   UNL     1     -12.804  11.944  71.673  1.00  0.00    -0.417 A  
HETATM   21  C   UNL     1     -12.724  13.181  71.031  1.00  0.00    -0.361 A  
ENDBRANCH  13  16
ENDBRANCH  11  13
ENDBRANCH  10  11
ENDBRANCH   4  10
TORSDOF 4
ENDMDL
MODEL       46
REMARK 921   NORMALIZED FREE ENERGY PREDICTED BY IDOCK:   -5.40 KCAL/MOL
REMARK 922        TOTAL FREE ENERGY PREDICTED BY IDOCK:   -7.22 KCAL/MOL
REMARK 923 INTER-LIGAND FREE ENERGY PREDICTED BY IDOCK:   -6.84 KCAL/MOL
REMARK 924 INTRA-LIGAND FREE ENERGY PREDICTED BY IDOCK:   -0.38 KCAL/MOL
REMARK 927      BINDING AFFINITY PREDICTED BY RF-SCORE:    0.00 PKD
ROOT
HETATM    1  C   UNL     1     -10.590  15.525  67.305  1.00  0.00    -0.299 C  
HETATM    2  C   UNL     1      -9.808  14.892  66.152  1.00  0.00    -0.332 C  
HETATM    3  C   UNL     1      -9.095  13.606  66.587  1.00  0.00    -0.189 C  
HETATM    4  C   UNL     1     -10.046  12.408  66.696  1.00  0.00    -0.221 C  
HETATM    5  C   UNL     1     -10.749  12.174  65.353  1.00  0.00    -0.323 C  
HETATM    6  C   UNL     1     -12.027  13.164  63.423  1.00  0.00    -0.552 C  
HETATM    7  C   UNL     1     -11.553  13.404  64.873  1.00  0.00    -0.354 C  
HETATM    8  C   UNL     1     -12.821  13.596  65.728  1.00  0.00    -0.390 C  
HETATM    9  C   UNL     1     -10.653  14.665  64.887  1.00  0.00    -0.446 C  
ENDROOT
BRANCH   4  10
HETATM   10  O   UNL     1      -9.304  11.218  67.034  1.00  0.00    -0.169 OA 
BRANCH  10  11
HETATM   11  C   UNL     1     -10.037  10.226  67.622  1.00  0.00    -0.191 C  
HETATM   12  O   UNL     1     -10.905   9.560  67.064  1.00  0.00    -0.196 OA 
BRANCH  11  13
HETATM   13  C   UNL     1      -9.656  10.038  69.094  1.00  0.00    -0.210 C  
HETATM   14  O   UNL     1      -8.746  11.057  69.521  1.00  0.00    -0.377 OA 
HETATM   15  H   UNL     1      -8.510  10.941  70.433  1.00  0.00     0.000 HD 
BRANCH  13  16
HETATM   16  C   UNL     1     -10.855  10.078  70.018  1.00  0.00    -0.352 A  
HETATM   17  C   UNL     1     -11.125   8.993  70.867  1.00  0.00    -0.343 A  
HETATM   18  C   UNL     1     -12.203   9.036  71.753  1.00  0.00    -0.434 A  
HETATM   19  C   UNL     1     -13.021  10.163  71.804  1.00  0.00    -0.567 A  
HETATM   20  C   UNL     1     -12.767  11.246  70.967  1.00  0.00    -0.457 A  
HETATM   21  C   UNL     1     -11.691  11.206  70.078  1.00  0.00    -0.438 A  
ENDBRANCH  13  16
ENDBRANCH  11  13
ENDBRANCH  10  11
ENDBRANCH   4  10
TORSDOF 4
ENDMDL
MODEL       47
REMARK 921   NORMALIZED FREE ENERGY PREDICTED BY IDOCK:   -5.40 KCAL/MOL
REMARK 922        TOTAL FREE ENERGY PREDICTED BY IDOCK:   -7.21 KCAL/MOL
REMARK 923 INTER-LIGAND FREE ENERGY PREDICTED BY IDOCK:   -6.30 KCAL/MOL
REMARK 924 INTRA-LIGAND FREE ENERGY PREDICTED BY IDOCK:   -0.91 KCAL/MOL
REMARK 927      BINDING AFFINITY PREDICTED BY RF-SCORE:    0.00 PKD
ROOT
HETATM    1  C   UNL     1      -8.461  10.267  69.340  1.00  0.00    -0.170 C  
HETATM    2  C   UNL     1      -9.944  10.082  69.013  1.00  0.00    -0.203 C  
HETATM    3  C   UNL     1     -10.254  10.444  67.556  1.00  0.00    -0.251 C  
HETATM    4  C   UNL     1      -9.825   9.352  66.568  1.00  0.00    -0.258 C  
HETATM    5  C   UNL     1     -10.510   8.027  66.923  1.00  0.00    -0.387 C  
HETATM    6  C   UNL     1     -11.098   6.350  68.706  1.00  0.00    -0.404 C  
HETATM    7  C   UNL     1     -10.192   7.550  68.359  1.00  0.00    -0.211 C  
HETATM    8  C   UNL     1      -8.737   7.053  68.460  1.00  0.00    -0.122 C  
HETATM    9  C   UNL     1     -10.483   8.687  69.371  1.00  0.00    -0.224 C  
ENDROOT
BRANCH   4  10
HETATM   10  O   UNL     1     -10.212   9.719  65.228  1.00  0.00    -0.216 OA 
BRANCH  10  11
HETATM   11  C   UNL     1      -9.313  10.500  64.558  1.00  0.00    -0.253 C  
HETATM   12  O   UNL     1      -8.094  10.356  64.581  1.00  0.00    -0.165 OA 
BRANCH  11  13
HETATM   13  C   UNL     1     -10.009  11.612  63.766  1.00  0.00    -0.349 C  
HETATM   14  O   UNL     1     -11.005  11.069  62.892  1.00  0.00    -0.793 OA 
HETATM   15  H   UNL     1     -11.436  11.758  62.401  1.00  0.00     0.000 HD 
BRANCH  13  16
HETATM   16  C   UNL     1     -10.686  12.630  64.657  1.00  0.00    -0.353 A  
HETATM   17  C   UNL     1     -12.087  12.691  64.718  1.00  0.00    -0.495 A  
HETATM   18  C   UNL     1     -12.723  13.598  65.567  1.00  0.00    -0.514 A  
HETATM   19  C   UNL     1     -11.968  14.452  66.367  1.00  0.00    -0.402 A  
HETATM   20  C   UNL     1     -10.577  14.406  66.318  1.00  0.00    -0.292 A  
HETATM   21  C   UNL     1      -9.938  13.501  65.467  1.00  0.00    -0.238 A  
ENDBRANCH  13  16
ENDBRANCH  11  13
ENDBRANCH  10  11
ENDBRANCH   4  10
TORSDOF 4
ENDMDL
MODEL       48
REMARK 921   NORMALIZED FREE ENERGY PREDICTED BY IDOCK:   -5.38 KCAL/MOL
REMARK 922        TOTAL FREE ENERGY PREDICTED BY IDOCK:   -7.19 KCAL/MOL
REMARK 923 INTER-LIGAND FREE ENERGY PREDICTED BY IDOCK:   -6.60 KCAL/MOL
REMARK 924 INTRA-LIGAND FREE ENERGY PREDICTED BY IDOCK:   -0.59 KCAL/MOL
REMARK 927      BINDING AFFINITY PREDICTED BY RF-SCORE:    0.00 PKD
ROOT
HETATM    1  C   UNL     1     -10.527   7.264  73.378  1.00  0.00    -0.423 C  
HETATM    2  C   UNL     1     -11.378   6.734  72.222  1.00  0.00    -0.310 C  
HETATM    3  C   UNL     1     -11.610   7.805  71.149  1.00  0.00    -0.301 C  
HETATM    4  C   UNL     1     -10.387   8.017  70.249  1.00  0.00    -0.212 C  
HETATM    5  C   UNL     1      -9.997   6.696  69.576  1.00  0.00    -0.178 C  
HETATM    6  C   UNL     1      -9.525   4.237  69.838  1.00  0.00    -0.260 C  
HETATM    7  C   UNL     1      -9.676   5.575  70.591  1.00  0.00    -0.233 C  
HETATM    8  C   UNL     1      -8.331   5.843  71.294  1.00  0.00    -0.124 C  
HETATM    9  C   UNL     1     -10.837   5.432  71.607  1.00  0.00    -0.232 C  
ENDROOT
BRANCH   4  10
HETATM   10  O   UNL     1     -10.695   8.978  69.218  1.00  0.00    -0.227 OA 
BRANCH  10  11
HETATM   11  C   UNL     1     -10.170  10.224  69.412  1.00  0.00    -0.235 C  
HETATM   12  O   UNL     1      -9.093  10.464  69.952  1.00  0.00    -0.075 OA 
BRANCH  11  13
HETATM   13  C   UNL     1     -11.100  11.320  68.880  1.00  0.00    -0.238 C  
HETATM   14  O   UNL     1     -12.015  10.789  67.915  1.00  0.00    -0.753 OA 
HETATM   15  H   UNL     1     -12.591  11.468  67.585  1.00  0.00     0.000 HD 
BRANCH  13  16
HETATM   16  C   UNL     1     -11.916  11.976  69.973  1.00  0.00    -0.400 A  
HETATM   17  C   UNL     1     -12.529  11.190  70.961  1.00  0.00    -0.506 A  
HETATM   18  C   UNL     1     -13.250  11.786  71.997  1.00  0.00    -0.460 A  
HETATM   19  C   UNL     1     -13.364  13.173  72.060  1.00  0.00    -0.587 A  
HETATM   20  C   UNL     1     -12.764  13.967  71.087  1.00  0.00    -0.441 A  
HETATM   21  C   UNL     1     -12.044  13.373  70.048  1.00  0.00    -0.404 A  
ENDBRANCH  13  16
ENDBRANCH  11  13
ENDBRANCH  10  11
ENDBRANCH   4  10
TORSDOF 4
ENDMDL
MODEL       49
REMARK 921   NORMALIZED FREE ENERGY PREDICTED BY IDOCK:   -5.38 KCAL/MOL
REMARK 922        TOTAL FREE ENERGY PREDICTED BY IDOCK:   -7.19 KCAL/MOL
REMARK 923 INTER-LIGAND FREE ENERGY PREDICTED BY IDOCK:   -6.37 KCAL/MOL
REMARK 924 INTRA-LIGAND FREE ENERGY PREDICTED BY IDOCK:   -0.82 KCAL/MOL
REMARK 927      BINDING AFFINITY PREDICTED BY RF-SCORE:    0.00 PKD
ROOT
HETATM    1  C   UNL     1     -10.232  12.625  67.642  1.00  0.00    -0.217 C  
HETATM    2  C   UNL     1     -11.536  13.244  67.134  1.00  0.00    -0.402 C  
HETATM    3  C   UNL     1     -11.378  14.739  66.833  1.00  0.00    -0.358 C  
HETATM    4  C   UNL     1     -10.651  15.004  65.509  1.00  0.00    -0.363 C  
HETATM    5  C   UNL     1     -11.401  14.327  64.355  1.00  0.00    -0.284 C  
HETATM    6  C   UNL     1     -12.502  12.244  63.470  1.00  0.00    -0.642 C  
HETATM    7  C   UNL     1     -11.545  12.800  64.545  1.00  0.00    -0.397 C  
HETATM    8  C   UNL     1     -10.190  12.095  64.340  1.00  0.00    -0.333 C  
HETATM    9  C   UNL     1     -12.148  12.493  65.938  1.00  0.00    -0.420 C  
ENDROOT
BRANCH   4  10
HETATM   10  O   UNL     1     -10.602  16.422  65.249  1.00  0.00    -0.548 OA 
BRANCH  10  11
HETATM   11  C   UNL     1      -9.890  17.154  66.156  1.00  0.00    -0.262 C  
HETATM   12  O   UNL     1     -10.377  17.880  67.019  1.00  0.00    -0.344 OA 
BRANCH  11  13
HETATM   13  C   UNL     1      -8.380  16.975  65.969  1.00  0.00    -0.145 C  
HETATM   14  O   UNL     1      -7.762  18.212  65.598  1.00  0.00    -0.532 OA 
HETATM   15  H   UNL     1      -6.826  18.101  65.481  1.00  0.00     0.000 HD 
BRANCH  13  16
HETATM   16  C   UNL     1      -7.690  16.475  67.220  1.00  0.00    -0.193 A  
HETATM   17  C   UNL     1      -7.157  17.389  68.142  1.00  0.00    -0.196 A  
HETATM   18  C   UNL     1      -6.555  16.941  69.319  1.00  0.00    -0.232 A  
HETATM   19  C   UNL     1      -6.481  15.576  69.590  1.00  0.00    -0.173 A  
HETATM   20  C   UNL     1      -7.003  14.657  68.684  1.00  0.00    -0.111 A  
HETATM   21  C   UNL     1      -7.604  15.102  67.505  1.00  0.00    -0.216 A  
ENDBRANCH  13  16
ENDBRANCH  11  13
ENDBRANCH  10  11
ENDBRANCH   4  10
TORSDOF 4
ENDMDL
MODEL       50
REMARK 921   NORMALIZED FREE ENERGY PREDICTED BY IDOCK:   -5.36 KCAL/MOL
REMARK 922        TOTAL FREE ENERGY PREDICTED BY IDOCK:   -7.16 KCAL/MOL
REMARK 923 INTER-LIGAND FREE ENERGY PREDICTED BY IDOCK:   -6.79 KCAL/MOL
REMARK 924 INTRA-LIGAND FREE ENERGY PREDICTED BY IDOCK:   -0.37 KCAL/MOL
REMARK 927      BINDING AFFINITY PREDICTED BY RF-SCORE:    0.00 PKD
ROOT
HETATM    1  C   UNL     1      -7.537   6.481  71.988  1.00  0.00    -0.093 C  
HETATM    2  C   UNL     1      -8.255   6.564  73.337  1.00  0.00    -0.118 C  
HETATM    3  C   UNL     1      -9.423   7.557  73.300  1.00  0.00    -0.293 C  
HETATM    4  C   UNL     1     -10.661   6.990  72.593  1.00  0.00    -0.245 C  
HETATM    5  C   UNL     1     -11.111   5.696  73.283  1.00  0.00    -0.288 C  
HETATM    6  C   UNL     1     -10.463   3.447  74.209  1.00  0.00    -0.258 C  
HETATM    7  C   UNL     1     -10.010   4.610  73.303  1.00  0.00    -0.184 C  
HETATM    8  C   UNL     1      -9.800   4.021  71.895  1.00  0.00    -0.247 C  
HETATM    9  C   UNL     1      -8.698   5.196  73.883  1.00  0.00    -0.118 C  
ENDROOT
BRANCH   4  10
HETATM   10  O   UNL     1     -11.744   7.940  72.659  1.00  0.00    -0.370 OA 
BRANCH  10  11
HETATM   11  C   UNL     1     -12.653   7.853  71.643  1.00  0.00    -0.321 C  
HETATM   12  O   UNL     1     -12.646   7.002  70.756  1.00  0.00    -0.314 OA 
BRANCH  11  13
HETATM   13  C   UNL     1     -13.702   8.967  71.723  1.00  0.00    -0.422 C  
HETATM   14  O   UNL     1     -14.229   9.076  73.050  1.00  0.00    -1.107 OA 
HETATM   15  H   UNL     1     -14.879   9.766  73.100  1.00  0.00     0.000 HD 
BRANCH  13  16
HETATM   16  C   UNL     1     -13.148  10.321  71.336  1.00  0.00    -0.512 A  
HETATM   17  C   UNL     1     -12.271  10.437  70.246  1.00  0.00    -0.349 A  
HETATM   18  C   UNL     1     -11.787  11.686  69.855  1.00  0.00    -0.434 A  
HETATM   19  C   UNL     1     -12.174  12.833  70.545  1.00  0.00    -0.389 A  
HETATM   20  C   UNL     1     -13.041  12.735  71.629  1.00  0.00    -0.428 A  
HETATM   21  C   UNL     1     -13.526  11.486  72.025  1.00  0.00    -0.298 A  
ENDBRANCH  13  16
ENDBRANCH  11  13
ENDBRANCH  10  11
ENDBRANCH   4  10
TORSDOF 4
ENDMDL
MODEL       51
REMARK 921   NORMALIZED FREE ENERGY PREDICTED BY IDOCK:   -5.34 KCAL/MOL
REMARK 922        TOTAL FREE ENERGY PREDICTED BY IDOCK:   -7.14 KCAL/MOL
REMARK 923 INTER-LIGAND FREE ENERGY PREDICTED BY IDOCK:   -6.52 KCAL/MOL
REMARK 924 INTRA-LIGAND FREE ENERGY PREDICTED BY IDOCK:   -0.62 KCAL/MOL
REMARK 927      BINDING AFFINITY PREDICTED BY RF-SCORE:    0.00 PKD
ROOT
HETATM    1  C   UNL     1     -10.725  12.355  66.679  1.00  0.00    -0.263 C  
HETATM    2  C   UNL     1     -11.153  13.690  66.066  1.00  0.00    -0.297 C  
HETATM    3  C   UNL     1     -12.134  14.444  66.972  1.00  0.00    -0.374 C  
HETATM    4  C   UNL     1     -11.441  15.126  68.159  1.00  0.00    -0.342 C  
HETATM    5  C   UNL     1     -10.366  16.095  67.651  1.00  0.00    -0.288 C  
HETATM    6  C   UNL     1      -8.397  16.476  66.130  1.00  0.00    -0.305 C  
HETATM    7  C   UNL     1      -9.293  15.401  66.782  1.00  0.00    -0.267 C  
HETATM    8  C   UNL     1      -8.372  14.522  67.650  1.00  0.00    -0.188 C  
HETATM    9  C   UNL     1      -9.970  14.584  65.654  1.00  0.00    -0.376 C  
ENDROOT
BRANCH   4  10
HETATM   10  O   UNL     1     -12.404  15.877  68.926  1.00  0.00    -0.097 OA 
BRANCH  10  11
HETATM   11  C   UNL     1     -12.730  15.335  70.137  1.00  0.00    -0.242 C  
HETATM   12  O   UNL     1     -13.751  15.583  70.773  1.00  0.00    -0.475 OA 
BRANCH  11  13
HETATM   13  C   UNL     1     -11.650  14.369  70.634  1.00  0.00    -0.184 C  
HETATM   14  O   UNL     1     -11.124  14.796  71.896  1.00  0.00    -0.415 OA 
HETATM   15  H   UNL     1     -10.455  14.198  72.204  1.00  0.00     0.000 HD 
BRANCH  13  16
HETATM   16  C   UNL     1     -12.164  12.955  70.807  1.00  0.00    -0.348 A  
HETATM   17  C   UNL     1     -11.720  11.936  69.950  1.00  0.00    -0.383 A  
HETATM   18  C   UNL     1     -12.154  10.621  70.126  1.00  0.00    -0.414 A  
HETATM   19  C   UNL     1     -13.035  10.309  71.159  1.00  0.00    -0.503 A  
HETATM   20  C   UNL     1     -13.486  11.309  72.016  1.00  0.00    -0.289 A  
HETATM   21  C   UNL     1     -13.054  12.626  71.842  1.00  0.00    -0.470 A  
ENDBRANCH  13  16
ENDBRANCH  11  13
ENDBRANCH  10  11
ENDBRANCH   4  10
TORSDOF 4
ENDMDL
MODEL       52
REMARK 921   NORMALIZED FREE ENERGY PREDICTED BY IDOCK:   -5.33 KCAL/MOL
REMARK 922        TOTAL FREE ENERGY PREDICTED BY IDOCK:   -7.13 KCAL/MOL
REMARK 923 INTER-LIGAND FREE ENERGY PREDICTED BY IDOCK:   -6.78 KCAL/MOL
REMARK 924 INTRA-LIGAND FREE ENERGY PREDICTED BY IDOCK:   -0.35 KCAL/MOL
REMARK 927      BINDING AFFINITY PREDICTED BY RF-SCORE:    0.00 PKD
ROOT
HETATM    1  C   UNL     1      -9.005   7.690  68.737  1.00  0.00    -0.133 C  
HETATM    2  C   UNL     1      -8.763   8.528  69.995  1.00  0.00    -0.136 C  
HETATM    3  C   UNL     1      -9.399   9.918  69.884  1.00  0.00    -0.250 C  
HETATM    4  C   UNL     1     -10.917   9.895  70.102  1.00  0.00    -0.301 C  
HETATM    5  C   UNL     1     -11.239   9.293  71.476  1.00  0.00    -0.457 C  
HETATM    6  C   UNL     1     -10.855   7.426  73.120  1.00  0.00    -0.435 C  
HETATM    7  C   UNL     1     -10.692   7.858  71.648  1.00  0.00    -0.268 C  
HETATM    8  C   UNL     1     -11.502   6.859  70.800  1.00  0.00    -0.381 C  
HETATM    9  C   UNL     1      -9.184   7.820  71.295  1.00  0.00    -0.158 C  
ENDROOT
BRANCH   4  10
HETATM   10  O   UNL     1     -11.442  11.238  70.061  1.00  0.00    -0.293 OA 
BRANCH  10  11
HETATM   11  C   UNL     1     -11.782  11.689  68.817  1.00  0.00    -0.330 C  
HETATM   12  O   UNL     1     -12.020  10.976  67.845  1.00  0.00    -0.620 OA 
BRANCH  11  13
HETATM   13  C   UNL     1     -11.824  13.219  68.761  1.00  0.00    -0.334 C  
HETATM   14  O   UNL     1     -10.896  13.790  69.690  1.00  0.00    -0.448 OA 
HETATM   15  H   UNL     1     -10.922  14.738  69.655  1.00  0.00     0.000 HD 
BRANCH  13  16
HETATM   16  C   UNL     1     -11.492  13.764  67.388  1.00  0.00    -0.372 A  
HETATM   17  C   UNL     1     -12.492  13.859  66.408  1.00  0.00    -0.414 A  
HETATM   18  C   UNL     1     -12.207  14.397  65.152  1.00  0.00    -0.393 A  
HETATM   19  C   UNL     1     -10.922  14.850  64.861  1.00  0.00    -0.422 A  
HETATM   20  C   UNL     1      -9.918  14.761  65.822  1.00  0.00    -0.375 A  
HETATM   21  C   UNL     1     -10.200  14.220  67.079  1.00  0.00    -0.260 A  
ENDBRANCH  13  16
ENDBRANCH  11  13
ENDBRANCH  10  11
ENDBRANCH   4  10
TORSDOF 4
ENDMDL
MODEL       53
REMARK 921   NORMALIZED FREE ENERGY PREDICTED BY IDOCK:   -5.32 KCAL/MOL
REMARK 922        TOTAL FREE ENERGY PREDICTED BY IDOCK:   -7.12 KCAL/MOL
REMARK 923 INTER-LIGAND FREE ENERGY PREDICTED BY IDOCK:   -6.09 KCAL/MOL
REMARK 924 INTRA-LIGAND FREE ENERGY PREDICTED BY IDOCK:   -1.03 KCAL/MOL
REMARK 927      BINDING AFFINITY PREDICTED BY RF-SCORE:    0.00 PKD
ROOT
HETATM    1  C   UNL     1      -9.548  10.068  69.373  1.00  0.00    -0.237 C  
HETATM    2  C   UNL     1     -10.851  10.011  68.573  1.00  0.00    -0.270 C  
HETATM    3  C   UNL     1     -11.815  11.133  68.976  1.00  0.00    -0.418 C  
HETATM    4  C   UNL     1     -11.424  12.492  68.383  1.00  0.00    -0.312 C  
HETATM    5  C   UNL     1     -11.360  12.397  66.853  1.00  0.00    -0.392 C  
HETATM    6  C   UNL     1     -10.526  11.144  64.836  1.00  0.00    -0.372 C  
HETATM    7  C   UNL     1     -10.355  11.333  66.358  1.00  0.00    -0.291 C  
HETATM    8  C   UNL     1      -8.905  11.802  66.587  1.00  0.00    -0.189 C  
HETATM    9  C   UNL     1     -10.636   9.975  67.050  1.00  0.00    -0.279 C  
ENDROOT
BRANCH   4  10
HETATM   10  O   UNL     1     -12.409  13.486  68.735  1.00  0.00    -0.235 OA 
BRANCH  10  11
HETATM   11  C   UNL     1     -12.054  14.316  69.760  1.00  0.00    -0.347 C  
HETATM   12  O   UNL     1     -12.060  14.014  70.951  1.00  0.00    -0.333 OA 
BRANCH  11  13
HETATM   13  C   UNL     1     -11.648  15.703  69.252  1.00  0.00    -0.366 C  
HETATM   14  O   UNL     1     -11.288  16.560  70.341  1.00  0.00    -0.496 OA 
HETATM   15  H   UNL     1     -11.036  17.420  70.026  1.00  0.00     0.000 HD 
BRANCH  13  16
HETATM   16  C   UNL     1     -10.474  15.657  68.297  1.00  0.00    -0.252 A  
HETATM   17  C   UNL     1     -10.678  15.850  66.922  1.00  0.00    -0.289 A  
HETATM   18  C   UNL     1      -9.599  15.851  66.037  1.00  0.00    -0.385 A  
HETATM   19  C   UNL     1      -8.304  15.661  66.515  1.00  0.00    -0.276 A  
HETATM   20  C   UNL     1      -8.085  15.466  67.876  1.00  0.00    -0.148 A  
HETATM   21  C   UNL     1      -9.163  15.463  68.764  1.00  0.00    -0.206 A  
ENDBRANCH  13  16
ENDBRANCH  11  13
ENDBRANCH  10  11
ENDBRANCH   4  10
TORSDOF 4
ENDMDL
MODEL       54
REMARK 921   NORMALIZED FREE ENERGY PREDICTED BY IDOCK:   -5.32 KCAL/MOL
REMARK 922        TOTAL FREE ENERGY PREDICTED BY IDOCK:   -7.12 KCAL/MOL
REMARK 923 INTER-LIGAND FREE ENERGY PREDICTED BY IDOCK:   -5.95 KCAL/MOL
REMARK 924 INTRA-LIGAND FREE ENERGY PREDICTED BY IDOCK:   -1.17 KCAL/MOL
REMARK 927      BINDING AFFINITY PREDICTED BY RF-SCORE:    0.00 PKD
ROOT
HETATM    1  C   UNL     1      -9.217  11.722  68.278  1.00  0.00    -0.188 C  
HETATM    2  C   UNL     1      -9.661  10.311  67.886  1.00  0.00    -0.161 C  
HETATM    3  C   UNL     1     -10.403  10.301  66.544  1.00  0.00    -0.276 C  
HETATM    4  C   UNL     1      -9.457  10.417  65.342  1.00  0.00    -0.232 C  
HETATM    5  C   UNL     1      -8.433   9.276  65.369  1.00  0.00    -0.157 C  
HETATM    6  C   UNL     1      -6.760   7.954  66.708  1.00  0.00    -0.063 C  
HETATM    7  C   UNL     1      -7.589   9.255  66.664  1.00  0.00    -0.093 C  
HETATM    8  C   UNL     1      -6.584  10.423  66.679  1.00  0.00    -0.082 C  
HETATM    9  C   UNL     1      -8.518   9.281  67.903  1.00  0.00    -0.117 C  
ENDROOT
BRANCH   4  10
HETATM   10  O   UNL     1     -10.208  10.325  64.114  1.00  0.00    -0.233 OA 
BRANCH  10  11
HETATM   11  C   UNL     1     -10.007  11.351  63.234  1.00  0.00    -0.401 C  
HETATM   12  O   UNL     1      -9.002  11.509  62.546  1.00  0.00    -0.328 OA 
BRANCH  11  13
HETATM   13  C   UNL     1     -11.198  12.315  63.207  1.00  0.00    -0.324 C  
HETATM   14  O   UNL     1     -12.427  11.603  63.029  1.00  0.00    -0.972 OA 
HETATM   15  H   UNL     1     -13.165  12.200  63.012  1.00  0.00     0.000 HD 
BRANCH  13  16
HETATM   16  C   UNL     1     -11.321  13.130  64.478  1.00  0.00    -0.383 A  
HETATM   17  C   UNL     1     -12.524  13.129  65.200  1.00  0.00    -0.539 A  
HETATM   18  C   UNL     1     -12.636  13.843  66.395  1.00  0.00    -0.314 A  
HETATM   19  C   UNL     1     -11.547  14.563  66.882  1.00  0.00    -0.399 A  
HETATM   20  C   UNL     1     -10.347  14.576  66.175  1.00  0.00    -0.305 A  
HETATM   21  C   UNL     1     -10.233  13.864  64.979  1.00  0.00    -0.383 A  
ENDBRANCH  13  16
ENDBRANCH  11  13
ENDBRANCH  10  11
ENDBRANCH   4  10
TORSDOF 4
ENDMDL
MODEL       55
REMARK 921   NORMALIZED FREE ENERGY PREDICTED BY IDOCK:   -5.29 KCAL/MOL
REMARK 922        TOTAL FREE ENERGY PREDICTED BY IDOCK:   -7.08 KCAL/MOL
REMARK 923 INTER-LIGAND FREE ENERGY PREDICTED BY IDOCK:   -6.59 KCAL/MOL
REMARK 924 INTRA-LIGAND FREE ENERGY PREDICTED BY IDOCK:   -0.49 KCAL/MOL
REMARK 927      BINDING AFFINITY PREDICTED BY RF-SCORE:    0.00 PKD
ROOT
HETATM    1  C   UNL     1      -9.309  12.520  66.212  1.00  0.00    -0.177 C  
HETATM    2  C   UNL     1      -8.917  13.461  67.353  1.00  0.00    -0.215 C  
HETATM    3  C   UNL     1      -8.494  14.840  66.833  1.00  0.00    -0.230 C  
HETATM    4  C   UNL     1      -9.687  15.712  66.425  1.00  0.00    -0.279 C  
HETATM    5  C   UNL     1     -10.641  15.884  67.614  1.00  0.00    -0.307 C  
HETATM    6  C   UNL     1     -11.928  14.791  69.481  1.00  0.00    -0.351 C  
HETATM    7  C   UNL     1     -11.173  14.539  68.158  1.00  0.00    -0.301 C  
HETATM    8  C   UNL     1     -12.188  13.917  67.179  1.00  0.00    -0.353 C  
HETATM    9  C   UNL     1      -9.992  13.580  68.448  1.00  0.00    -0.232 C  
ENDROOT
BRANCH   4  10
HETATM   10  O   UNL     1      -9.228  17.018  66.019  1.00  0.00    -0.457 OA 
BRANCH  10  11
HETATM   11  C   UNL     1     -10.214  17.892  65.657  1.00  0.00     0.016 C  
HETATM   12  O   UNL     1     -11.120  17.650  64.864  1.00  0.00    -0.854 OA 
BRANCH  11  13
HETATM   13  C   UNL     1     -10.055  19.246  66.357  1.00  0.00    -0.429 C  
HETATM   14  O   UNL     1     -11.031  19.403  67.393  1.00  0.00    -0.490 OA 
HETATM   15  H   UNL     1     -10.933  20.242  67.826  1.00  0.00     0.000 HD 
BRANCH  13  16
HETATM   16  C   UNL     1      -8.688  19.425  66.984  1.00  0.00    -0.328 A  
HETATM   17  C   UNL     1      -7.665  20.064  66.268  1.00  0.00    -0.323 A  
HETATM   18  C   UNL     1      -6.413  20.272  66.851  1.00  0.00    -0.254 A  
HETATM   19  C   UNL     1      -6.171  19.845  68.155  1.00  0.00    -0.280 A  
HETATM   20  C   UNL     1      -7.176  19.207  68.877  1.00  0.00    -0.376 A  
HETATM   21  C   UNL     1      -8.428  18.997  68.296  1.00  0.00    -0.366 A  
ENDBRANCH  13  16
ENDBRANCH  11  13
ENDBRANCH  10  11
ENDBRANCH   4  10
TORSDOF 4
ENDMDL
MODEL       56
REMARK 921   NORMALIZED FREE ENERGY PREDICTED BY IDOCK:   -5.28 KCAL/MOL
REMARK 922        TOTAL FREE ENERGY PREDICTED BY IDOCK:   -7.07 KCAL/MOL
REMARK 923 INTER-LIGAND FREE ENERGY PREDICTED BY IDOCK:   -6.72 KCAL/MOL
REMARK 924 INTRA-LIGAND FREE ENERGY PREDICTED BY IDOCK:   -0.35 KCAL/MOL
REMARK 927      BINDING AFFINITY PREDICTED BY RF-SCORE:    0.00 PKD
ROOT
HETATM    1  C   UNL     1      -9.579   5.094  70.837  1.00  0.00    -0.235 C  
HETATM    2  C   UNL     1     -10.603   5.364  69.731  1.00  0.00    -0.347 C  
HETATM    3  C   UNL     1     -11.384   6.659  69.984  1.00  0.00    -0.440 C  
HETATM    4  C   UNL     1     -10.575   7.917  69.645  1.00  0.00    -0.234 C  
HETATM    5  C   UNL     1     -10.124   7.870  68.179  1.00  0.00    -0.228 C  
HETATM    6  C   UNL     1      -9.059   6.540  66.327  1.00  0.00    -0.168 C  
HETATM    7  C   UNL     1      -9.267   6.625  67.853  1.00  0.00    -0.111 C  
HETATM    8  C   UNL     1      -7.867   6.745  68.487  1.00  0.00    -0.118 C  
HETATM    9  C   UNL     1      -9.999   5.341  68.316  1.00  0.00    -0.214 C  
ENDROOT
BRANCH   4  10
HETATM   10  O   UNL     1     -11.389   9.093  69.831  1.00  0.00    -0.166 OA 
BRANCH  10  11
HETATM   11  C   UNL     1     -11.569   9.473  71.131  1.00  0.00    -0.367 C  
HETATM   12  O   UNL     1     -10.758   9.301  72.038  1.00  0.00    -0.295 OA 
BRANCH  11  13
HETATM   13  C   UNL     1     -12.930  10.143  71.343  1.00  0.00    -0.429 C  
HETATM   14  O   UNL     1     -13.509   9.740  72.589  1.00  0.00    -0.626 OA 
HETATM   15  H   UNL     1     -14.352  10.155  72.721  1.00  0.00     0.000 HD 
BRANCH  13  16
HETATM   16  C   UNL     1     -12.845  11.654  71.344  1.00  0.00    -0.461 A  
HETATM   17  C   UNL     1     -12.147  12.320  70.324  1.00  0.00    -0.376 A  
HETATM   18  C   UNL     1     -12.097  13.714  70.291  1.00  0.00    -0.427 A  
HETATM   19  C   UNL     1     -12.745  14.460  71.274  1.00  0.00    -0.414 A  
HETATM   20  C   UNL     1     -13.440  13.815  72.293  1.00  0.00    -0.638 A  
HETATM   21  C   UNL     1     -13.490  12.419  72.330  1.00  0.00    -0.428 A  
ENDBRANCH  13  16
ENDBRANCH  11  13
ENDBRANCH  10  11
ENDBRANCH   4  10
TORSDOF 4
ENDMDL
MODEL       57
REMARK 921   NORMALIZED FREE ENERGY PREDICTED BY IDOCK:   -5.27 KCAL/MOL
REMARK 922        TOTAL FREE ENERGY PREDICTED BY IDOCK:   -7.05 KCAL/MOL
REMARK 923 INTER-LIGAND FREE ENERGY PREDICTED BY IDOCK:   -6.58 KCAL/MOL
REMARK 924 INTRA-LIGAND FREE ENERGY PREDICTED BY IDOCK:   -0.47 KCAL/MOL
REMARK 927      BINDING AFFINITY PREDICTED BY RF-SCORE:    0.00 PKD
ROOT
HETATM    1  C   UNL     1      -7.725  16.263  68.534  1.00  0.00    -0.189 C  
HETATM    2  C   UNL     1      -7.907  15.250  67.400  1.00  0.00    -0.220 C  
HETATM    3  C   UNL     1      -8.389  13.892  67.924  1.00  0.00    -0.167 C  
HETATM    4  C   UNL     1      -9.883  13.885  68.269  1.00  0.00    -0.231 C  
HETATM    5  C   UNL     1     -10.707  14.281  67.037  1.00  0.00    -0.290 C  
HETATM    6  C   UNL     1     -11.035  15.887  65.127  1.00  0.00    -0.389 C  
HETATM    7  C   UNL     1     -10.332  15.675  66.484  1.00  0.00    -0.296 C  
HETATM    8  C   UNL     1     -10.835  16.788  67.424  1.00  0.00    -0.176 C  
HETATM    9  C   UNL     1      -8.802  15.761  66.258  1.00  0.00    -0.378 C  
ENDROOT
BRANCH   4  10
HETATM   10  O   UNL     1     -10.289  12.564  68.681  1.00  0.00    -0.225 OA 
BRANCH  10  11
HETATM   11  C   UNL     1     -11.416  12.517  69.451  1.00  0.00    -0.263 C  
HETATM   12  O   UNL     1     -11.772  13.389  70.240  1.00  0.00    -0.263 OA 
BRANCH  11  13
HETATM   13  C   UNL     1     -12.202  11.221  69.228  1.00  0.00    -0.222 C  
HETATM   14  O   UNL     1     -11.801  10.584  68.010  1.00  0.00    -0.765 OA 
HETATM   15  H   UNL     1     -12.288   9.781  67.871  1.00  0.00     0.000 HD 
BRANCH  13  16
HETATM   16  C   UNL     1     -12.016  10.222  70.350  1.00  0.00    -0.391 A  
HETATM   17  C   UNL     1     -10.744   9.693  70.616  1.00  0.00    -0.388 A  
HETATM   18  C   UNL     1     -10.552   8.803  71.675  1.00  0.00    -0.401 A  
HETATM   19  C   UNL     1     -11.627   8.434  72.481  1.00  0.00    -0.426 A  
HETATM   20  C   UNL     1     -12.895   8.950  72.228  1.00  0.00    -0.475 A  
HETATM   21  C   UNL     1     -13.091   9.838  71.169  1.00  0.00    -0.424 A  
ENDBRANCH  13  16
ENDBRANCH  11  13
ENDBRANCH  10  11
ENDBRANCH   4  10
TORSDOF 4
ENDMDL
MODEL       58
REMARK 921   NORMALIZED FREE ENERGY PREDICTED BY IDOCK:   -5.27 KCAL/MOL
REMARK 922        TOTAL FREE ENERGY PREDICTED BY IDOCK:   -7.05 KCAL/MOL
REMARK 923 INTER-LIGAND FREE ENERGY PREDICTED BY IDOCK:   -6.69 KCAL/MOL
REMARK 924 INTRA-LIGAND FREE ENERGY PREDICTED BY IDOCK:   -0.36 KCAL/MOL
REMARK 927      BINDING AFFINITY PREDICTED BY RF-SCORE:    0.00 PKD
ROOT
HETATM    1  C   UNL     1     -10.064  13.556  65.690  1.00  0.00    -0.292 C  
HETATM    2  C   UNL     1     -11.505  13.560  66.205  1.00  0.00    -0.350 C  
HETATM    3  C   UNL     1     -11.898  12.205  66.806  1.00  0.00    -0.304 C  
HETATM    4  C   UNL     1     -11.319  11.987  68.209  1.00  0.00    -0.286 C  
HETATM    5  C   UNL     1     -11.777  13.114  69.144  1.00  0.00    -0.376 C  
HETATM    6  C   UNL     1     -12.053  15.589  69.513  1.00  0.00    -0.326 C  
HETATM    7  C   UNL     1     -11.358  14.516  68.647  1.00  0.00    -0.300 C  
HETATM    8  C   UNL     1      -9.841  14.725  68.815  1.00  0.00    -0.227 C  
HETATM    9  C   UNL     1     -11.807  14.713  67.177  1.00  0.00    -0.367 C  
ENDROOT
BRANCH   4  10
HETATM   10  O   UNL     1     -11.786  10.733  68.746  1.00  0.00    -0.359 OA 
BRANCH  10  11
HETATM   11  C   UNL     1     -11.056  10.243  69.792  1.00  0.00    -0.287 C  
HETATM   12  O   UNL     1      -9.842  10.059  69.784  1.00  0.00    -0.227 OA 
BRANCH  11  13
HETATM   13  C   UNL     1     -11.941   9.927  71.003  1.00  0.00    -0.365 C  
HETATM   14  O   UNL     1     -13.326   9.954  70.643  1.00  0.00    -0.617 OA 
HETATM   15  H   UNL     1     -13.875   9.758  71.393  1.00  0.00     0.000 HD 
BRANCH  13  16
HETATM   16  C   UNL     1     -11.649   8.569  71.603  1.00  0.00    -0.364 A  
HETATM   17  C   UNL     1     -10.576   8.410  72.495  1.00  0.00    -0.368 A  
HETATM   18  C   UNL     1     -10.322   7.172  73.087  1.00  0.00    -0.336 A  
HETATM   19  C   UNL     1     -11.137   6.079  72.797  1.00  0.00    -0.305 A  
HETATM   20  C   UNL     1     -12.204   6.220  71.913  1.00  0.00    -0.256 A  
HETATM   21  C   UNL     1     -12.459   7.457  71.318  1.00  0.00    -0.381 A  
ENDBRANCH  13  16
ENDBRANCH  11  13
ENDBRANCH  10  11
ENDBRANCH   4  10
TORSDOF 4
ENDMDL
MODEL       59
REMARK 921   NORMALIZED FREE ENERGY PREDICTED BY IDOCK:   -5.26 KCAL/MOL
REMARK 922        TOTAL FREE ENERGY PREDICTED BY IDOCK:   -7.05 KCAL/MOL
REMARK 923 INTER-LIGAND FREE ENERGY PREDICTED BY IDOCK:   -6.62 KCAL/MOL
REMARK 924 INTRA-LIGAND FREE ENERGY PREDICTED BY IDOCK:   -0.42 KCAL/MOL
REMARK 927      BINDING AFFINITY PREDICTED BY RF-SCORE:    0.00 PKD
ROOT
HETATM    1  C   UNL     1      -9.206   6.665  71.456  1.00  0.00    -0.146 C  
HETATM    2  C   UNL     1      -9.486   8.055  72.031  1.00  0.00    -0.257 C  
HETATM    3  C   UNL     1      -9.229   9.160  70.999  1.00  0.00    -0.321 C  
HETATM    4  C   UNL     1     -10.355   9.280  69.966  1.00  0.00    -0.217 C  
HETATM    5  C   UNL     1     -11.690   9.542  70.674  1.00  0.00    -0.330 C  
HETATM    6  C   UNL     1     -13.284   8.891  72.511  1.00  0.00    -0.438 C  
HETATM    7  C   UNL     1     -12.062   8.434  71.686  1.00  0.00    -0.359 C  
HETATM    8  C   UNL     1     -12.477   7.143  70.955  1.00  0.00    -0.359 C  
HETATM    9  C   UNL     1     -10.883   8.190  72.661  1.00  0.00    -0.429 C  
ENDROOT
BRANCH   4  10
HETATM   10  O   UNL     1     -10.091  10.382  69.073  1.00  0.00    -0.192 OA 
BRANCH  10  11
HETATM   11  C   UNL     1     -10.236  10.099  67.745  1.00  0.00    -0.191 C  
HETATM   12  O   UNL     1     -10.758   9.085  67.289  1.00  0.00    -0.269 OA 
BRANCH  11  13
HETATM   13  C   UNL     1      -9.651  11.207  66.862  1.00  0.00    -0.186 C  
HETATM   14  O   UNL     1      -8.406  10.798  66.287  1.00  0.00    -0.149 OA 
HETATM   15  H   UNL     1      -8.043  11.484  65.741  1.00  0.00     0.000 HD 
BRANCH  13  16
HETATM   16  C   UNL     1     -10.573  11.599  65.727  1.00  0.00    -0.320 A  
HETATM   17  C   UNL     1     -11.727  12.355  65.988  1.00  0.00    -0.469 A  
HETATM   18  C   UNL     1     -12.563  12.758  64.945  1.00  0.00    -0.541 A  
HETATM   19  C   UNL     1     -12.255  12.414  63.631  1.00  0.00    -0.653 A  
HETATM   20  C   UNL     1     -11.115  11.663  63.356  1.00  0.00    -0.422 A  
HETATM   21  C   UNL     1     -10.278  11.256  64.398  1.00  0.00    -0.377 A  
ENDBRANCH  13  16
ENDBRANCH  11  13
ENDBRANCH  10  11
ENDBRANCH   4  10
TORSDOF 4
ENDMDL
MODEL       60
REMARK 921   NORMALIZED FREE ENERGY PREDICTED BY IDOCK:   -5.21 KCAL/MOL
REMARK 922        TOTAL FREE ENERGY PREDICTED BY IDOCK:   -6.98 KCAL/MOL
REMARK 923 INTER-LIGAND FREE ENERGY PREDICTED BY IDOCK:   -6.95 KCAL/MOL
REMARK 924 INTRA-LIGAND FREE ENERGY PREDICTED BY IDOCK:   -0.03 KCAL/MOL
REMARK 927      BINDING AFFINITY PREDICTED BY RF-SCORE:    0.00 PKD
ROOT
HETATM    1  C   UNL     1     -12.097  13.201  63.836  1.00  0.00    -0.536 C  
HETATM    2  C   UNL     1     -12.425  13.019  65.320  1.00  0.00    -0.555 C  
HETATM    3  C   UNL     1     -11.634  11.861  65.939  1.00  0.00    -0.291 C  
HETATM    4  C   UNL     1     -10.174  12.227  66.231  1.00  0.00    -0.229 C  
HETATM    5  C   UNL     1     -10.116  13.443  67.165  1.00  0.00    -0.240 C  
HETATM    6  C   UNL     1     -10.928  15.771  67.675  1.00  0.00    -0.302 C  
HETATM    7  C   UNL     1     -10.833  14.683  66.584  1.00  0.00    -0.312 C  
HETATM    8  C   UNL     1     -10.021  15.288  65.422  1.00  0.00    -0.364 C  
HETATM    9  C   UNL     1     -12.271  14.308  66.146  1.00  0.00    -0.430 C  
ENDROOT
BRANCH   4  10
HETATM   10  O   UNL     1      -9.508  11.124  66.879  1.00  0.00    -0.181 OA 
BRANCH  10  11
HETATM   11  C   UNL     1      -9.763  10.999  68.216  1.00  0.00    -0.177 C  
HETATM   12  O   UNL     1      -8.975  11.275  69.117  1.00  0.00    -0.033 OA 
BRANCH  11  13
HETATM   13  C   UNL     1     -11.171  10.452  68.476  1.00  0.00    -0.251 C  
HETATM   14  O   UNL     1     -11.136   9.038  68.694  1.00  0.00    -0.445 OA 
HETATM   15  H   UNL     1     -12.008   8.698  68.855  1.00  0.00     0.000 HD 
BRANCH  13  16
HETATM   16  C   UNL     1     -11.832  11.086  69.681  1.00  0.00    -0.414 A  
HETATM   17  C   UNL     1     -11.966  12.481  69.756  1.00  0.00    -0.359 A  
HETATM   18  C   UNL     1     -12.611  13.075  70.843  1.00  0.00    -0.364 A  
HETATM   19  C   UNL     1     -13.131  12.283  71.864  1.00  0.00    -0.469 A  
HETATM   20  C   UNL     1     -13.004  10.898  71.805  1.00  0.00    -0.557 A  
HETATM   21  C   UNL     1     -12.358  10.301  70.720  1.00  0.00    -0.445 A  
ENDBRANCH  13  16
ENDBRANCH  11  13
ENDBRANCH  10  11
ENDBRANCH   4  10
TORSDOF 4
ENDMDL
MODEL       61
REMARK 921   NORMALIZED FREE ENERGY PREDICTED BY IDOCK:   -5.20 KCAL/MOL
REMARK 922        TOTAL FREE ENERGY PREDICTED BY IDOCK:   -6.97 KCAL/MOL
REMARK 923 INTER-LIGAND FREE ENERGY PREDICTED BY IDOCK:   -6.51 KCAL/MOL
REMARK 924 INTRA-LIGAND FREE ENERGY PREDICTED BY IDOCK:   -0.46 KCAL/MOL
REMARK 927      BINDING AFFINITY PREDICTED BY RF-SCORE:    0.00 PKD
ROOT
HETATM    1  C   UNL     1     -10.322  14.997  67.309  1.00  0.00    -0.249 C  
HETATM    2  C   UNL     1      -9.755  13.970  66.326  1.00  0.00    -0.311 C  
HETATM    3  C   UNL     1      -9.758  12.555  66.916  1.00  0.00    -0.232 C  
HETATM    4  C   UNL     1     -11.149  11.910  66.902  1.00  0.00    -0.305 C  
HETATM    5  C   UNL     1     -11.692  11.867  65.468  1.00  0.00    -0.224 C  
HETATM    6  C   UNL     1     -12.116  13.108  63.319  1.00  0.00    -0.460 C  
HETATM    7  C   UNL     1     -11.788  13.267  64.819  1.00  0.00    -0.411 C  
HETATM    8  C   UNL     1     -12.940  14.080  65.442  1.00  0.00    -0.346 C  
HETATM    9  C   UNL     1     -10.431  14.004  64.944  1.00  0.00    -0.453 C  
ENDROOT
BRANCH   4  10
HETATM   10  O   UNL     1     -11.071  10.558  67.398  1.00  0.00    -0.303 OA 
BRANCH  10  11
HETATM   11  C   UNL     1     -11.155  10.433  68.756  1.00  0.00    -0.250 C  
HETATM   12  O   UNL     1     -12.037  10.920  69.459  1.00  0.00    -0.322 OA 
BRANCH  11  13
HETATM   13  C   UNL     1      -9.994   9.609  69.322  1.00  0.00    -0.191 C  
HETATM   14  O   UNL     1      -9.016  10.457  69.932  1.00  0.00    -0.394 OA 
HETATM   15  H   UNL     1      -8.296   9.947  70.283  1.00  0.00     0.000 HD 
BRANCH  13  16
HETATM   16  C   UNL     1     -10.442   8.604  70.362  1.00  0.00    -0.233 A  
HETATM   17  C   UNL     1     -10.352   8.918  71.728  1.00  0.00    -0.426 A  
HETATM   18  C   UNL     1     -10.800   8.016  72.694  1.00  0.00    -0.436 A  
HETATM   19  C   UNL     1     -11.346   6.793  72.310  1.00  0.00    -0.310 A  
HETATM   20  C   UNL     1     -11.440   6.467  70.959  1.00  0.00    -0.394 A  
HETATM   21  C   UNL     1     -10.991   7.366  69.990  1.00  0.00    -0.264 A  
ENDBRANCH  13  16
ENDBRANCH  11  13
ENDBRANCH  10  11
ENDBRANCH   4  10
TORSDOF 4
ENDMDL
MODEL       62
REMARK 921   NORMALIZED FREE ENERGY PREDICTED BY IDOCK:   -5.18 KCAL/MOL
REMARK 922        TOTAL FREE ENERGY PREDICTED BY IDOCK:   -6.95 KCAL/MOL
REMARK 923 INTER-LIGAND FREE ENERGY PREDICTED BY IDOCK:   -6.45 KCAL/MOL
REMARK 924 INTRA-LIGAND FREE ENERGY PREDICTED BY IDOCK:   -0.50 KCAL/MOL
REMARK 927      BINDING AFFINITY PREDICTED BY RF-SCORE:    0.00 PKD
ROOT
HETATM    1  C   UNL     1      -6.716  17.068  67.754  1.00  0.00    -0.163 C  
HETATM    2  C   UNL     1      -7.499  17.363  66.472  1.00  0.00    -0.315 C  
HETATM    3  C   UNL     1      -8.603  16.329  66.228  1.00  0.00    -0.374 C  
HETATM    4  C   UNL     1      -9.833  16.553  67.117  1.00  0.00    -0.255 C  
HETATM    5  C   UNL     1     -10.393  17.963  66.890  1.00  0.00    -0.358 C  
HETATM    6  C   UNL     1      -9.927  20.430  66.708  1.00  0.00    -0.525 C  
HETATM    7  C   UNL     1      -9.360  19.075  67.182  1.00  0.00    -0.345 C  
HETATM    8  C   UNL     1      -9.110  19.204  68.697  1.00  0.00    -0.414 C  
HETATM    9  C   UNL     1      -8.049  18.799  66.405  1.00  0.00    -0.296 C  
ENDROOT
BRANCH   4  10
HETATM   10  O   UNL     1     -10.861  15.597  66.787  1.00  0.00    -0.317 OA 
BRANCH  10  11
HETATM   11  C   UNL     1     -11.508  15.049  67.858  1.00  0.00    -0.340 C  
HETATM   12  O   UNL     1     -11.594  15.559  68.972  1.00  0.00    -0.322 OA 
BRANCH  11  13
HETATM   13  C   UNL     1     -12.119  13.686  67.514  1.00  0.00    -0.316 C  
HETATM   14  O   UNL     1     -12.196  13.504  66.096  1.00  0.00    -0.419 OA 
HETATM   15  H   UNL     1     -12.575  12.660  65.883  1.00  0.00     0.000 HD 
BRANCH  13  16
HETATM   16  C   UNL     1     -11.326  12.528  68.082  1.00  0.00    -0.343 A  
HETATM   17  C   UNL     1     -10.044  12.244  67.586  1.00  0.00    -0.204 A  
HETATM   18  C   UNL     1      -9.287  11.205  68.130  1.00  0.00    -0.176 A  
HETATM   19  C   UNL     1      -9.799  10.441  69.176  1.00  0.00    -0.237 A  
HETATM   20  C   UNL     1     -11.069  10.710  69.678  1.00  0.00    -0.342 A  
HETATM   21  C   UNL     1     -11.830  11.747  69.135  1.00  0.00    -0.389 A  
ENDBRANCH  13  16
ENDBRANCH  11  13
ENDBRANCH  10  11
ENDBRANCH   4  10
TORSDOF 4
ENDMDL
MODEL       63
REMARK 921   NORMALIZED FREE ENERGY PREDICTED BY IDOCK:   -5.16 KCAL/MOL
REMARK 922        TOTAL FREE ENERGY PREDICTED BY IDOCK:   -6.92 KCAL/MOL
REMARK 923 INTER-LIGAND FREE ENERGY PREDICTED BY IDOCK:   -6.51 KCAL/MOL
REMARK 924 INTRA-LIGAND FREE ENERGY PREDICTED BY IDOCK:   -0.41 KCAL/MOL
REMARK 927      BINDING AFFINITY PREDICTED BY RF-SCORE:    0.00 PKD
ROOT
HETATM    1  C   UNL     1      -8.412  10.668  65.573  1.00  0.00    -0.177 C  
HETATM    2  C   UNL     1      -9.862  10.248  65.321  1.00  0.00    -0.372 C  
HETATM    3  C   UNL     1     -10.621  10.010  66.632  1.00  0.00    -0.196 C  
HETATM    4  C   UNL     1     -11.042  11.314  67.319  1.00  0.00    -0.305 C  
HETATM    5  C   UNL     1     -11.910  12.150  66.370  1.00  0.00    -0.321 C  
HETATM    6  C   UNL     1     -12.206  13.128  64.069  1.00  0.00    -0.482 C  
HETATM    7  C   UNL     1     -11.191  12.497  65.046  1.00  0.00    -0.344 C  
HETATM    8  C   UNL     1     -10.088  13.547  65.281  1.00  0.00    -0.277 C  
HETATM    9  C   UNL     1     -10.628  11.208  64.395  1.00  0.00    -0.411 C  
ENDROOT
BRANCH   4  10
HETATM   10  O   UNL     1     -11.815  11.022  68.501  1.00  0.00    -0.460 OA 
BRANCH  10  11
HETATM   11  C   UNL     1     -11.088  10.611  69.582  1.00  0.00    -0.284 C  
HETATM   12  O   UNL     1      -9.868  10.703  69.692  1.00  0.00    -0.158 OA 
BRANCH  11  13
HETATM   13  C   UNL     1     -11.980   9.995  70.665  1.00  0.00    -0.313 C  
HETATM   14  O   UNL     1     -13.351   9.985  70.252  1.00  0.00    -0.573 OA 
HETATM   15  H   UNL     1     -13.904   9.603  70.923  1.00  0.00     0.000 HD 
BRANCH  13  16
HETATM   16  C   UNL     1     -11.592   8.572  71.004  1.00  0.00    -0.317 A  
HETATM   17  C   UNL     1     -11.418   8.190  72.343  1.00  0.00    -0.462 A  
HETATM   18  C   UNL     1     -11.101   6.870  72.670  1.00  0.00    -0.306 A  
HETATM   19  C   UNL     1     -10.957   5.917  71.664  1.00  0.00    -0.327 A  
HETATM   20  C   UNL     1     -11.124   6.281  70.331  1.00  0.00    -0.416 A  
HETATM   21  C   UNL     1     -11.439   7.600  70.000  1.00  0.00    -0.012 A  
ENDBRANCH  13  16
ENDBRANCH  11  13
ENDBRANCH  10  11
ENDBRANCH   4  10
TORSDOF 4
ENDMDL
MODEL       64
REMARK 921   NORMALIZED FREE ENERGY PREDICTED BY IDOCK:   -5.16 KCAL/MOL
REMARK 922        TOTAL FREE ENERGY PREDICTED BY IDOCK:   -6.92 KCAL/MOL
REMARK 923 INTER-LIGAND FREE ENERGY PREDICTED BY IDOCK:   -6.40 KCAL/MOL
REMARK 924 INTRA-LIGAND FREE ENERGY PREDICTED BY IDOCK:   -0.52 KCAL/MOL
REMARK 927      BINDING AFFINITY PREDICTED BY RF-SCORE:    0.00 PKD
ROOT
HETATM    1  C   UNL     1     -11.295   6.316  69.412  1.00  0.00    -0.448 C  
HETATM    2  C   UNL     1      -9.824   6.546  69.764  1.00  0.00    -0.182 C  
HETATM    3  C   UNL     1      -9.220   7.701  68.958  1.00  0.00    -0.140 C  
HETATM    4  C   UNL     1      -9.637   9.078  69.489  1.00  0.00    -0.165 C  
HETATM    5  C   UNL     1      -9.233   9.216  70.962  1.00  0.00    -0.321 C  
HETATM    6  C   UNL     1      -9.219   8.199  73.265  1.00  0.00    -0.316 C  
HETATM    7  C   UNL     1      -9.858   8.126  71.862  1.00  0.00    -0.276 C  
HETATM    8  C   UNL     1     -11.368   8.372  72.049  1.00  0.00    -0.411 C  
HETATM    9  C   UNL     1      -9.573   6.722  71.272  1.00  0.00    -0.172 C  
ENDROOT
BRANCH   4  10
HETATM   10  O   UNL     1      -8.978  10.117  68.738  1.00  0.00    -0.132 OA 
BRANCH  10  11
HETATM   11  C   UNL     1      -9.789  11.135  68.321  1.00  0.00    -0.189 C  
HETATM   12  O   UNL     1      -9.604  12.327  68.549  1.00  0.00    -0.197 OA 
BRANCH  11  13
HETATM   13  C   UNL     1     -10.991  10.612  67.528  1.00  0.00    -0.310 C  
HETATM   14  O   UNL     1     -12.221  11.001  68.150  1.00  0.00    -0.765 OA 
HETATM   15  H   UNL     1     -12.966  10.677  67.659  1.00  0.00     0.000 HD 
BRANCH  13  16
HETATM   16  C   UNL     1     -11.018  11.120  66.102  1.00  0.00    -0.203 A  
HETATM   17  C   UNL     1     -11.761  12.265  65.777  1.00  0.00    -0.445 A  
HETATM   18  C   UNL     1     -11.760  12.767  64.475  1.00  0.00    -0.420 A  
HETATM   19  C   UNL     1     -11.016  12.133  63.483  1.00  0.00    -0.521 A  
HETATM   20  C   UNL     1     -10.275  10.994  63.788  1.00  0.00    -0.425 A  
HETATM   21  C   UNL     1     -10.275  10.489  65.090  1.00  0.00    -0.358 A  
ENDBRANCH  13  16
ENDBRANCH  11  13
ENDBRANCH  10  11
ENDBRANCH   4  10
TORSDOF 4
ENDMDL
MODEL       65
REMARK 921   NORMALIZED FREE ENERGY PREDICTED BY IDOCK:   -5.15 KCAL/MOL
REMARK 922        TOTAL FREE ENERGY PREDICTED BY IDOCK:   -6.91 KCAL/MOL
REMARK 923 INTER-LIGAND FREE ENERGY PREDICTED BY IDOCK:   -6.24 KCAL/MOL
REMARK 924 INTRA-LIGAND FREE ENERGY PREDICTED BY IDOCK:   -0.67 KCAL/MOL
REMARK 927      BINDING AFFINITY PREDICTED BY RF-SCORE:    0.00 PKD
ROOT
HETATM    1  C   UNL     1      -8.416   9.503  64.749  1.00  0.00    -0.170 C  
HETATM    2  C   UNL     1      -8.479  10.407  65.982  1.00  0.00    -0.149 C  
HETATM    3  C   UNL     1      -9.599  11.447  65.868  1.00  0.00    -0.254 C  
HETATM    4  C   UNL     1     -10.988  10.855  66.140  1.00  0.00    -0.029 C  
HETATM    5  C   UNL     1     -11.022  10.218  67.535  1.00  0.00    -0.344 C  
HETATM    6  C   UNL     1      -9.914   8.687  69.198  1.00  0.00    -0.193 C  
HETATM    7  C   UNL     1      -9.965   9.104  67.713  1.00  0.00    -0.236 C  
HETATM    8  C   UNL     1     -10.356   7.847  66.912  1.00  0.00    -0.400 C  
HETATM    9  C   UNL     1      -8.566   9.631  67.309  1.00  0.00    -0.132 C  
ENDROOT
BRANCH   4  10
HETATM   10  O   UNL     1     -11.986  11.896  66.092  1.00  0.00    -0.537 OA 
BRANCH  10  11
HETATM   11  C   UNL     1     -12.156  12.481  64.869  1.00  0.00    -0.440 C  
HETATM   12  O   UNL     1     -12.107  11.894  63.791  1.00  0.00    -0.450 OA 
BRANCH  11  13
HETATM   13  C   UNL     1     -12.408  13.987  64.991  1.00  0.00    -0.441 C  
HETATM   14  O   UNL     1     -13.699  14.244  65.553  1.00  0.00    -0.543 OA 
HETATM   15  H   UNL     1     -13.856  15.178  65.628  1.00  0.00     0.000 HD 
BRANCH  13  16
HETATM   16  C   UNL     1     -11.382  14.684  65.859  1.00  0.00    -0.338 A  
HETATM   17  C   UNL     1     -11.626  14.863  67.230  1.00  0.00    -0.337 A  
HETATM   18  C   UNL     1     -10.671  15.467  68.048  1.00  0.00    -0.283 A  
HETATM   19  C   UNL     1      -9.461  15.898  67.508  1.00  0.00    -0.219 A  
HETATM   20  C   UNL     1      -9.205  15.730  66.150  1.00  0.00    -0.385 A  
HETATM   21  C   UNL     1     -10.160  15.127  65.328  1.00  0.00    -0.365 A  
ENDBRANCH  13  16
ENDBRANCH  11  13
ENDBRANCH  10  11
ENDBRANCH   4  10
TORSDOF 4
ENDMDL
MODEL       66
REMARK 921   NORMALIZED FREE ENERGY PREDICTED BY IDOCK:   -5.13 KCAL/MOL
REMARK 922        TOTAL FREE ENERGY PREDICTED BY IDOCK:   -6.89 KCAL/MOL
REMARK 923 INTER-LIGAND FREE ENERGY PREDICTED BY IDOCK:   -6.14 KCAL/MOL
REMARK 924 INTRA-LIGAND FREE ENERGY PREDICTED BY IDOCK:   -0.75 KCAL/MOL
REMARK 927      BINDING AFFINITY PREDICTED BY RF-SCORE:    0.00 PKD
ROOT
HETATM    1  C   UNL     1      -7.287  11.606  67.771  1.00  0.00    -0.106 C  
HETATM    2  C   UNL     1      -8.059  10.570  66.950  1.00  0.00    -0.120 C  
HETATM    3  C   UNL     1      -8.870   9.626  67.845  1.00  0.00    -0.119 C  
HETATM    4  C   UNL     1     -10.156  10.271  68.377  1.00  0.00    -0.159 C  
HETATM    5  C   UNL     1     -11.028  10.743  67.206  1.00  0.00    -0.359 C  
HETATM    6  C   UNL     1     -11.162  11.993  65.026  1.00  0.00    -0.374 C  
HETATM    7  C   UNL     1     -10.307  11.756  66.289  1.00  0.00    -0.259 C  
HETATM    8  C   UNL     1     -10.163  13.121  66.990  1.00  0.00    -0.250 C  
HETATM    9  C   UNL     1      -8.935  11.190  65.847  1.00  0.00    -0.210 C  
ENDROOT
BRANCH   4  10
HETATM   10  O   UNL     1     -10.909   9.310  69.145  1.00  0.00    -0.213 OA 
BRANCH  10  11
HETATM   11  C   UNL     1     -11.045   9.608  70.471  1.00  0.00    -0.308 C  
HETATM   12  O   UNL     1     -10.144   9.557  71.305  1.00  0.00    -0.273 OA 
BRANCH  11  13
HETATM   13  C   UNL     1     -12.482  10.011  70.818  1.00  0.00    -0.295 C  
HETATM   14  O   UNL     1     -12.944   9.309  71.977  1.00  0.00    -0.363 OA 
HETATM   15  H   UNL     1     -13.834   9.559  72.191  1.00  0.00     0.000 HD 
BRANCH  13  16
HETATM   16  C   UNL     1     -12.624  11.493  71.092  1.00  0.00    -0.463 A  
HETATM   17  C   UNL     1     -12.032  12.428  70.228  1.00  0.00    -0.371 A  
HETATM   18  C   UNL     1     -12.191  13.797  70.447  1.00  0.00    -0.433 A  
HETATM   19  C   UNL     1     -12.945  14.248  71.529  1.00  0.00    -0.411 A  
HETATM   20  C   UNL     1     -13.537  13.334  72.396  1.00  0.00    -0.694 A  
HETATM   21  C   UNL     1     -13.378  11.963  72.180  1.00  0.00    -0.361 A  
ENDBRANCH  13  16
ENDBRANCH  11  13
ENDBRANCH  10  11
ENDBRANCH   4  10
TORSDOF 4
ENDMDL
MODEL       67
REMARK 921   NORMALIZED FREE ENERGY PREDICTED BY IDOCK:   -5.12 KCAL/MOL
REMARK 922        TOTAL FREE ENERGY PREDICTED BY IDOCK:   -6.87 KCAL/MOL
REMARK 923 INTER-LIGAND FREE ENERGY PREDICTED BY IDOCK:   -6.99 KCAL/MOL
REMARK 924 INTRA-LIGAND FREE ENERGY PREDICTED BY IDOCK:    0.12 KCAL/MOL
REMARK 927      BINDING AFFINITY PREDICTED BY RF-SCORE:    0.00 PKD
ROOT
HETATM    1  C   UNL     1     -11.954  15.403  63.980  1.00  0.00     0.007 C  
HETATM    2  C   UNL     1     -10.784  14.728  64.700  1.00  0.00    -0.279 C  
HETATM    3  C   UNL     1     -11.028  14.627  66.211  1.00  0.00    -0.327 C  
HETATM    4  C   UNL     1     -12.002  13.501  66.581  1.00  0.00    -0.404 C  
HETATM    5  C   UNL     1     -11.474  12.160  66.057  1.00  0.00    -0.427 C  
HETATM    6  C   UNL     1     -10.522  10.861  64.122  1.00  0.00    -0.397 C  
HETATM    7  C   UNL     1     -11.266  12.152  64.525  1.00  0.00    -0.385 C  
HETATM    8  C   UNL     1     -12.620  12.132  63.790  1.00  0.00    -0.585 C  
HETATM    9  C   UNL     1     -10.400  13.364  64.102  1.00  0.00    -0.104 C  
ENDROOT
BRANCH   4  10
HETATM   10  O   UNL     1     -12.128  13.410  68.015  1.00  0.00    -0.342 OA 
BRANCH  10  11
HETATM   11  C   UNL     1     -10.959  13.541  68.709  1.00  0.00    -0.261 C  
HETATM   12  O   UNL     1      -9.933  12.900  68.496  1.00  0.00    -0.223 OA 
BRANCH  11  13
HETATM   13  C   UNL     1     -11.073  14.592  69.819  1.00  0.00    -0.200 C  
HETATM   14  O   UNL     1     -11.207  15.905  69.266  1.00  0.00    -0.288 OA 
HETATM   15  H   UNL     1     -11.277  16.556  69.953  1.00  0.00     0.000 HD 
BRANCH  13  16
HETATM   16  C   UNL     1     -12.259  14.355  70.730  1.00  0.00    -0.413 A  
HETATM   17  C   UNL     1     -12.422  13.112  71.362  1.00  0.00    -0.270 A  
HETATM   18  C   UNL     1     -13.488  12.895  72.237  1.00  0.00    -0.631 A  
HETATM   19  C   UNL     1     -14.401  13.916  72.492  1.00  0.00    -0.226 A  
HETATM   20  C   UNL     1     -14.254  15.154  71.871  1.00  0.00    -0.676 A  
HETATM   21  C   UNL     1     -13.189  15.373  70.994  1.00  0.00    -0.560 A  
ENDBRANCH  13  16
ENDBRANCH  11  13
ENDBRANCH  10  11
ENDBRANCH   4  10
TORSDOF 4
ENDMDL
MODEL       68
REMARK 921   NORMALIZED FREE ENERGY PREDICTED BY IDOCK:   -5.11 KCAL/MOL
REMARK 922        TOTAL FREE ENERGY PREDICTED BY IDOCK:   -6.86 KCAL/MOL
REMARK 923 INTER-LIGAND FREE ENERGY PREDICTED BY IDOCK:   -6.28 KCAL/MOL
REMARK 924 INTRA-LIGAND FREE ENERGY PREDICTED BY IDOCK:   -0.59 KCAL/MOL
REMARK 927      BINDING AFFINITY PREDICTED BY RF-SCORE:    0.00 PKD
ROOT
HETATM    1  C   UNL     1      -9.920   8.586  72.154  1.00  0.00    -0.387 C  
HETATM    2  C   UNL     1     -11.157   8.606  71.253  1.00  0.00    -0.336 C  
HETATM    3  C   UNL     1     -11.250   9.905  70.444  1.00  0.00    -0.379 C  
HETATM    4  C   UNL     1     -10.289   9.929  69.249  1.00  0.00    -0.219 C  
HETATM    5  C   UNL     1     -10.565   8.732  68.330  1.00  0.00    -0.194 C  
HETATM    6  C   UNL     1     -10.941   6.252  68.128  1.00  0.00    -0.412 C  
HETATM    7  C   UNL     1     -10.423   7.373  69.053  1.00  0.00    -0.217 C  
HETATM    8  C   UNL     1      -8.943   7.062  69.343  1.00  0.00    -0.139 C  
HETATM    9  C   UNL     1     -11.276   7.369  70.346  1.00  0.00    -0.284 C  
ENDROOT
BRANCH   4  10
HETATM   10  O   UNL     1     -10.479  11.139  68.487  1.00  0.00    -0.175 OA 
BRANCH  10  11
HETATM   11  C   UNL     1      -9.334  11.708  68.008  1.00  0.00    -0.178 C  
HETATM   12  O   UNL     1      -8.195  11.307  68.233  1.00  0.00    -0.128 OA 
BRANCH  11  13
HETATM   13  C   UNL     1      -9.630  12.941  67.147  1.00  0.00    -0.225 C  
HETATM   14  O   UNL     1      -8.419  13.512  66.639  1.00  0.00    -0.433 OA 
HETATM   15  H   UNL     1      -8.603  14.276  66.106  1.00  0.00     0.000 HD 
BRANCH  13  16
HETATM   16  C   UNL     1     -10.521  12.628  65.963  1.00  0.00    -0.288 A  
HETATM   17  C   UNL     1     -10.059  11.786  64.940  1.00  0.00    -0.298 A  
HETATM   18  C   UNL     1     -10.886  11.456  63.864  1.00  0.00    -0.463 A  
HETATM   19  C   UNL     1     -12.183  11.962  63.800  1.00  0.00    -0.549 A  
HETATM   20  C   UNL     1     -12.654  12.800  64.807  1.00  0.00    -0.518 A  
HETATM   21  C   UNL     1     -11.829  13.133  65.883  1.00  0.00    -0.453 A  
ENDBRANCH  13  16
ENDBRANCH  11  13
ENDBRANCH  10  11
ENDBRANCH   4  10
TORSDOF 4
ENDMDL
MODEL       69
REMARK 921   NORMALIZED FREE ENERGY PREDICTED BY IDOCK:   -5.10 KCAL/MOL
REMARK 922        TOTAL FREE ENERGY PREDICTED BY IDOCK:   -6.85 KCAL/MOL
REMARK 923 INTER-LIGAND FREE ENERGY PREDICTED BY IDOCK:   -5.70 KCAL/MOL
REMARK 924 INTRA-LIGAND FREE ENERGY PREDICTED BY IDOCK:   -1.15 KCAL/MOL
REMARK 927      BINDING AFFINITY PREDICTED BY RF-SCORE:    0.00 PKD
ROOT
HETATM    1  C   UNL     1     -10.629  15.589  65.205  1.00  0.00    -0.446 C  
HETATM    2  C   UNL     1     -11.847  14.682  65.395  1.00  0.00    -0.304 C  
HETATM    3  C   UNL     1     -11.790  13.454  64.479  1.00  0.00    -0.440 C  
HETATM    4  C   UNL     1     -10.819  12.380  64.986  1.00  0.00    -0.295 C  
HETATM    5  C   UNL     1     -11.214  11.944  66.402  1.00  0.00    -0.387 C  
HETATM    6  C   UNL     1     -11.855  12.634  68.736  1.00  0.00    -0.341 C  
HETATM    7  C   UNL     1     -11.228  13.115  67.411  1.00  0.00    -0.319 C  
HETATM    8  C   UNL     1      -9.793  13.571  67.738  1.00  0.00    -0.233 C  
HETATM    9  C   UNL     1     -12.090  14.279  66.860  1.00  0.00    -0.440 C  
ENDROOT
BRANCH   4  10
HETATM   10  O   UNL     1     -10.869  11.224  64.124  1.00  0.00    -0.357 OA 
BRANCH  10  11
HETATM   11  C   UNL     1      -9.704  10.938  63.471  1.00  0.00    -0.342 C  
HETATM   12  O   UNL     1      -9.186  11.640  62.606  1.00  0.00    -0.349 OA 
BRANCH  11  13
HETATM   13  C   UNL     1      -9.105   9.607  63.936  1.00  0.00    -0.185 C  
HETATM   14  O   UNL     1      -7.828   9.382  63.329  1.00  0.00    -0.120 OA 
HETATM   15  H   UNL     1      -7.457   8.557  63.617  1.00  0.00     0.000 HD 
BRANCH  13  16
HETATM   16  C   UNL     1      -8.917   9.543  65.437  1.00  0.00    -0.244 A  
HETATM   17  C   UNL     1      -7.950  10.349  66.059  1.00  0.00    -0.144 A  
HETATM   18  C   UNL     1      -7.795  10.329  67.446  1.00  0.00    -0.102 A  
HETATM   19  C   UNL     1      -8.605   9.508  68.228  1.00  0.00    -0.120 A  
HETATM   20  C   UNL     1      -9.567   8.701  67.625  1.00  0.00    -0.190 A  
HETATM   21  C   UNL     1      -9.723   8.717  66.238  1.00  0.00    -0.342 A  
ENDBRANCH  13  16
ENDBRANCH  11  13
ENDBRANCH  10  11
ENDBRANCH   4  10
TORSDOF 4
ENDMDL
MODEL       70
REMARK 921   NORMALIZED FREE ENERGY PREDICTED BY IDOCK:   -5.07 KCAL/MOL
REMARK 922        TOTAL FREE ENERGY PREDICTED BY IDOCK:   -6.81 KCAL/MOL
REMARK 923 INTER-LIGAND FREE ENERGY PREDICTED BY IDOCK:   -6.50 KCAL/MOL
REMARK 924 INTRA-LIGAND FREE ENERGY PREDICTED BY IDOCK:   -0.31 KCAL/MOL
REMARK 927      BINDING AFFINITY PREDICTED BY RF-SCORE:    0.00 PKD
ROOT
HETATM    1  C   UNL     1      -7.447  17.340  68.488  1.00  0.00    -0.241 C  
HETATM    2  C   UNL     1      -7.630  17.526  66.980  1.00  0.00    -0.235 C  
HETATM    3  C   UNL     1      -8.317  16.316  66.337  1.00  0.00    -0.365 C  
HETATM    4  C   UNL     1      -9.829  16.287  66.591  1.00  0.00    -0.253 C  
HETATM    5  C   UNL     1     -10.473  17.578  66.068  1.00  0.00    -0.274 C  
HETATM    6  C   UNL     1     -10.415  20.093  65.975  1.00  0.00    -0.446 C  
HETATM    7  C   UNL     1      -9.884  18.850  66.720  1.00  0.00    -0.387 C  
HETATM    8  C   UNL     1     -10.347  18.978  68.184  1.00  0.00    -0.446 C  
HETATM    9  C   UNL     1      -8.339  18.839  66.604  1.00  0.00    -0.296 C  
ENDROOT
BRANCH   4  10
HETATM   10  O   UNL     1     -10.425  15.171  65.898  1.00  0.00    -0.300 OA 
BRANCH  10  11
HETATM   11  C   UNL     1     -11.397  14.509  66.594  1.00  0.00    -0.356 C  
HETATM   12  O   UNL     1     -11.899  14.891  67.648  1.00  0.00    -0.352 OA 
BRANCH  11  13
HETATM   13  C   UNL     1     -11.794  13.198  65.907  1.00  0.00    -0.406 C  
HETATM   14  O   UNL     1     -11.274  13.143  64.574  1.00  0.00    -0.324 OA 
HETATM   15  H   UNL     1     -11.520  12.332  64.148  1.00  0.00     0.000 HD 
BRANCH  13  16
HETATM   16  C   UNL     1     -11.293  11.975  66.645  1.00  0.00    -0.399 A  
HETATM   17  C   UNL     1     -11.833  11.639  67.896  1.00  0.00    -0.273 A  
HETATM   18  C   UNL     1     -11.409  10.491  68.567  1.00  0.00    -0.320 A  
HETATM   19  C   UNL     1     -10.443   9.665  67.996  1.00  0.00    -0.276 A  
HETATM   20  C   UNL     1      -9.897   9.985  66.756  1.00  0.00    -0.251 A  
HETATM   21  C   UNL     1     -10.318  11.134  66.083  1.00  0.00    -0.302 A  
ENDBRANCH  13  16
ENDBRANCH  11  13
ENDBRANCH  10  11
ENDBRANCH   4  10
TORSDOF 4
ENDMDL
MODEL       71
REMARK 921   NORMALIZED FREE ENERGY PREDICTED BY IDOCK:   -5.06 KCAL/MOL
REMARK 922        TOTAL FREE ENERGY PREDICTED BY IDOCK:   -6.80 KCAL/MOL
REMARK 923 INTER-LIGAND FREE ENERGY PREDICTED BY IDOCK:   -6.86 KCAL/MOL
REMARK 924 INTRA-LIGAND FREE ENERGY PREDICTED BY IDOCK:    0.06 KCAL/MOL
REMARK 927      BINDING AFFINITY PREDICTED BY RF-SCORE:    0.00 PKD
ROOT
HETATM    1  C   UNL     1     -10.437  16.309  66.698  1.00  0.00    -0.290 C  
HETATM    2  C   UNL     1      -9.966  14.853  66.659  1.00  0.00    -0.267 C  
HETATM    3  C   UNL     1     -10.645  14.006  67.741  1.00  0.00    -0.244 C  
HETATM    4  C   UNL     1     -12.086  13.626  67.380  1.00  0.00    -0.337 C  
HETATM    5  C   UNL     1     -12.109  12.867  66.047  1.00  0.00    -0.484 C  
HETATM    6  C   UNL     1     -11.355  12.765  63.647  1.00  0.00    -0.514 C  
HETATM    7  C   UNL     1     -11.503  13.681  64.881  1.00  0.00    -0.352 C  
HETATM    8  C   UNL     1     -12.444  14.830  64.470  1.00  0.00    -0.272 C  
HETATM    9  C   UNL     1     -10.097  14.202  65.271  1.00  0.00    -0.364 C  
ENDROOT
BRANCH   4  10
HETATM   10  O   UNL     1     -12.641  12.770  68.399  1.00  0.00     0.305 OA 
BRANCH  10  11
HETATM   11  C   UNL     1     -11.888  11.673  68.707  1.00  0.00    -0.325 C  
HETATM   12  O   UNL     1     -11.609  10.763  67.930  1.00  0.00    -0.504 OA 
BRANCH  11  13
HETATM   13  C   UNL     1     -11.426  11.694  70.168  1.00  0.00    -0.118 C  
HETATM   14  O   UNL     1     -11.984  12.815  70.863  1.00  0.00    -0.455 OA 
HETATM   15  H   UNL     1     -11.698  12.828  71.768  1.00  0.00     0.000 HD 
BRANCH  13  16
HETATM   16  C   UNL     1     -11.819  10.443  70.925  1.00  0.00    -0.475 A  
HETATM   17  C   UNL     1     -10.876   9.426  71.138  1.00  0.00    -0.427 A  
HETATM   18  C   UNL     1     -11.214   8.286  71.870  1.00  0.00    -0.365 A  
HETATM   19  C   UNL     1     -12.496   8.151  72.399  1.00  0.00    -0.309 A  
HETATM   20  C   UNL     1     -13.443   9.151  72.194  1.00  0.00    -0.530 A  
HETATM   21  C   UNL     1     -13.108  10.291  71.460  1.00  0.00    -0.534 A  
ENDBRANCH  13  16
ENDBRANCH  11  13
ENDBRANCH  10  11
ENDBRANCH   4  10
TORSDOF 4
ENDMDL
MODEL       72
REMARK 921   NORMALIZED FREE ENERGY PREDICTED BY IDOCK:   -5.06 KCAL/MOL
REMARK 922        TOTAL FREE ENERGY PREDICTED BY IDOCK:   -6.79 KCAL/MOL
REMARK 923 INTER-LIGAND FREE ENERGY PREDICTED BY IDOCK:   -6.15 KCAL/MOL
REMARK 924 INTRA-LIGAND FREE ENERGY PREDICTED BY IDOCK:   -0.64 KCAL/MOL
REMARK 927      BINDING AFFINITY PREDICTED BY RF-SCORE:    0.00 PKD
ROOT
HETATM    1  C   UNL     1     -11.185  12.093  69.439  1.00  0.00    -0.248 C  
HETATM    2  C   UNL     1     -10.880  10.721  68.835  1.00  0.00    -0.269 C  
HETATM    3  C   UNL     1     -11.401  10.603  67.398  1.00  0.00    -0.185 C  
HETATM    4  C   UNL     1     -10.510  11.329  66.382  1.00  0.00    -0.257 C  
HETATM    5  C   UNL     1      -9.079  10.780  66.455  1.00  0.00    -0.188 C  
HETATM    6  C   UNL     1      -7.118  10.145  67.900  1.00  0.00    -0.085 C  
HETATM    7  C   UNL     1      -8.450  10.924  67.859  1.00  0.00    -0.129 C  
HETATM    8  C   UNL     1      -8.112  12.398  68.157  1.00  0.00    -0.163 C  
HETATM    9  C   UNL     1      -9.396  10.324  68.929  1.00  0.00    -0.180 C  
ENDROOT
BRANCH   4  10
HETATM   10  O   UNL     1     -11.010  11.117  65.046  1.00  0.00    -0.218 OA 
BRANCH  10  11
HETATM   11  C   UNL     1     -10.823  12.160  64.185  1.00  0.00    -0.360 C  
HETATM   12  O   UNL     1      -9.914  12.246  63.363  1.00  0.00    -0.384 OA 
BRANCH  11  13
HETATM   13  C   UNL     1     -11.889  13.245  64.368  1.00  0.00    -0.399 C  
HETATM   14  O   UNL     1     -13.119  12.679  64.834  1.00  0.00    -0.850 OA 
HETATM   15  H   UNL     1     -13.779  13.351  64.948  1.00  0.00     0.000 HD 
BRANCH  13  16
HETATM   16  C   UNL     1     -11.473  14.314  65.357  1.00  0.00    -0.332 A  
HETATM   17  C   UNL     1     -11.927  14.260  66.684  1.00  0.00    -0.454 A  
HETATM   18  C   UNL     1     -11.517  15.216  67.614  1.00  0.00    -0.319 A  
HETATM   19  C   UNL     1     -10.647  16.235  67.232  1.00  0.00    -0.298 A  
HETATM   20  C   UNL     1     -10.189  16.303  65.918  1.00  0.00    -0.384 A  
HETATM   21  C   UNL     1     -10.599  15.349  64.985  1.00  0.00    -0.445 A  
ENDBRANCH  13  16
ENDBRANCH  11  13
ENDBRANCH  10  11
ENDBRANCH   4  10
TORSDOF 4
ENDMDL
MODEL       73
REMARK 921   NORMALIZED FREE ENERGY PREDICTED BY IDOCK:   -5.06 KCAL/MOL
REMARK 922        TOTAL FREE ENERGY PREDICTED BY IDOCK:   -6.79 KCAL/MOL
REMARK 923 INTER-LIGAND FREE ENERGY PREDICTED BY IDOCK:   -6.30 KCAL/MOL
REMARK 924 INTRA-LIGAND FREE ENERGY PREDICTED BY IDOCK:   -0.49 KCAL/MOL
REMARK 927      BINDING AFFINITY PREDICTED BY RF-SCORE:    0.00 PKD
ROOT
HETATM    1  C   UNL     1      -9.610  14.554  68.194  1.00  0.00    -0.212 C  
HETATM    2  C   UNL     1      -9.450  13.172  67.558  1.00  0.00    -0.212 C  
HETATM    3  C   UNL     1     -10.102  12.075  68.408  1.00  0.00    -0.211 C  
HETATM    4  C   UNL     1     -11.629  12.044  68.266  1.00  0.00    -0.334 C  
HETATM    5  C   UNL     1     -12.015  11.848  66.795  1.00  0.00     0.012 C  
HETATM    6  C   UNL     1     -11.688  12.555  64.401  1.00  0.00    -0.432 C  
HETATM    7  C   UNL     1     -11.453  12.955  65.873  1.00  0.00    -0.387 C  
HETATM    8  C   UNL     1     -12.201  14.283  66.097  1.00  0.00    -0.430 C  
HETATM    9  C   UNL     1      -9.928  13.109  66.097  1.00  0.00    -0.291 C  
ENDROOT
BRANCH   4  10
HETATM   10  O   UNL     1     -12.173  10.947  69.028  1.00  0.00    -0.462 OA 
BRANCH  10  11
HETATM   11  C   UNL     1     -12.386  11.210  70.352  1.00  0.00    -0.344 C  
HETATM   12  O   UNL     1     -12.356  12.325  70.867  1.00  0.00    -0.376 OA 
BRANCH  11  13
HETATM   13  C   UNL     1     -12.661   9.929  71.147  1.00  0.00    -0.367 C  
HETATM   14  O   UNL     1     -13.893   9.328  70.736  1.00  0.00    -0.577 OA 
HETATM   15  H   UNL     1     -14.064   8.535  71.229  1.00  0.00     0.000 HD 
BRANCH  13  16
HETATM   16  C   UNL     1     -11.569   8.893  70.984  1.00  0.00    -0.347 A  
HETATM   17  C   UNL     1     -11.901   7.534  70.871  1.00  0.00    -0.293 A  
HETATM   18  C   UNL     1     -10.906   6.574  70.679  1.00  0.00    -0.317 A  
HETATM   19  C   UNL     1      -9.570   6.959  70.596  1.00  0.00    -0.171 A  
HETATM   20  C   UNL     1      -9.225   8.304  70.708  1.00  0.00    -0.174 A  
HETATM   21  C   UNL     1     -10.217   9.266  70.902  1.00  0.00    -0.371 A  
ENDBRANCH  13  16
ENDBRANCH  11  13
ENDBRANCH  10  11
ENDBRANCH   4  10
TORSDOF 4
ENDMDL
MODEL       74
REMARK 921   NORMALIZED FREE ENERGY PREDICTED BY IDOCK:   -5.04 KCAL/MOL
REMARK 922        TOTAL FREE ENERGY PREDICTED BY IDOCK:   -6.78 KCAL/MOL
REMARK 923 INTER-LIGAND FREE ENERGY PREDICTED BY IDOCK:   -6.42 KCAL/MOL
REMARK 924 INTRA-LIGAND FREE ENERGY PREDICTED BY IDOCK:   -0.36 KCAL/MOL
REMARK 927      BINDING AFFINITY PREDICTED BY RF-SCORE:    0.00 PKD
ROOT
HETATM    1  C   UNL     1     -14.016  15.244  71.102  1.00  0.00    -0.462 C  
HETATM    2  C   UNL     1     -12.668  14.742  71.626  1.00  0.00    -0.399 C  
HETATM    3  C   UNL     1     -12.486  13.240  71.378  1.00  0.00    -0.284 C  
HETATM    4  C   UNL     1     -12.124  12.918  69.923  1.00  0.00    -0.265 C  
HETATM    5  C   UNL     1     -10.842  13.661  69.526  1.00  0.00     0.030 C  
HETATM    6  C   UNL     1      -9.573  15.835  69.485  1.00  0.00    -0.262 C  
HETATM    7  C   UNL     1     -10.964  15.194  69.679  1.00  0.00    -0.291 C  
HETATM    8  C   UNL     1     -11.879  15.781  68.587  1.00  0.00    -0.287 C  
HETATM    9  C   UNL     1     -11.467  15.547  71.101  1.00  0.00    -0.442 C  
ENDROOT
BRANCH   4  10
HETATM   10  O   UNL     1     -11.892  11.502  69.774  1.00  0.00    -0.302 OA 
BRANCH  10  11
HETATM   11  C   UNL     1     -11.452  11.114  68.540  1.00  0.00    -0.302 C  
HETATM   12  O   UNL     1     -12.006  11.376  67.476  1.00  0.00    -0.626 OA 
BRANCH  11  13
HETATM   13  C   UNL     1     -10.167  10.283  68.632  1.00  0.00    -0.180 C  
HETATM   14  O   UNL     1      -9.541  10.450  69.908  1.00  0.00    -0.409 OA 
HETATM   15  H   UNL     1      -8.745   9.936  69.965  1.00  0.00     0.000 HD 
BRANCH  13  16
HETATM   16  C   UNL     1     -10.411   8.803  68.431  1.00  0.00    -0.220 A  
HETATM   17  C   UNL     1     -10.638   7.971  69.539  1.00  0.00    -0.216 A  
HETATM   18  C   UNL     1     -10.905   6.612  69.363  1.00  0.00    -0.340 A  
HETATM   19  C   UNL     1     -10.952   6.069  68.081  1.00  0.00    -0.340 A  
HETATM   20  C   UNL     1     -10.727   6.881  66.972  1.00  0.00    -0.432 A  
HETATM   21  C   UNL     1     -10.457   8.240  67.145  1.00  0.00    -0.386 A  
ENDBRANCH  13  16
ENDBRANCH  11  13
ENDBRANCH  10  11
ENDBRANCH   4  10
TORSDOF 4
ENDMDL
MODEL       75
REMARK 921   NORMALIZED FREE ENERGY PREDICTED BY IDOCK:   -5.04 KCAL/MOL
REMARK 922        TOTAL FREE ENERGY PREDICTED BY IDOCK:   -6.77 KCAL/MOL
REMARK 923 INTER-LIGAND FREE ENERGY PREDICTED BY IDOCK:   -6.54 KCAL/MOL
REMARK 924 INTRA-LIGAND FREE ENERGY PREDICTED BY IDOCK:   -0.23 KCAL/MOL
REMARK 927      BINDING AFFINITY PREDICTED BY RF-SCORE:    0.00 PKD
ROOT
HETATM    1  C   UNL     1     -10.390  19.575  66.149  1.00  0.00    -0.614 C  
HETATM    2  C   UNL     1     -10.418  19.221  67.638  1.00  0.00    -0.557 C  
HETATM    3  C   UNL     1     -10.541  17.709  67.860  1.00  0.00    -0.390 C  
HETATM    4  C   UNL     1      -9.218  16.966  67.633  1.00  0.00    -0.228 C  
HETATM    5  C   UNL     1      -8.134  17.533  68.558  1.00  0.00    -0.275 C  
HETATM    6  C   UNL     1      -6.971  19.571  69.468  1.00  0.00    -0.302 C  
HETATM    7  C   UNL     1      -7.896  19.046  68.350  1.00  0.00    -0.372 C  
HETATM    8  C   UNL     1      -7.171  19.305  67.015  1.00  0.00    -0.222 C  
HETATM    9  C   UNL     1      -9.240  19.811  68.432  1.00  0.00    -0.370 C  
ENDROOT
BRANCH   4  10
HETATM   10  O   UNL     1      -9.382  15.564  67.931  1.00  0.00    -0.191 OA 
BRANCH  10  11
HETATM   11  C   UNL     1      -9.201  14.722  66.871  1.00  0.00    -0.245 C  
HETATM   12  O   UNL     1      -8.572  14.991  65.851  1.00  0.00     0.234 OA 
BRANCH  11  13
HETATM   13  C   UNL     1      -9.896  13.374  67.093  1.00  0.00    -0.237 C  
HETATM   14  O   UNL     1     -10.787  13.438  68.211  1.00  0.00    -0.240 OA 
HETATM   15  H   UNL     1     -11.218  12.603  68.349  1.00  0.00     0.000 HD 
BRANCH  13  16
HETATM   16  C   UNL     1     -10.699  12.924  65.891  1.00  0.00    -0.291 A  
HETATM   17  C   UNL     1     -12.102  12.928  65.941  1.00  0.00    -0.503 A  
HETATM   18  C   UNL     1     -12.853  12.556  64.826  1.00  0.00    -0.287 A  
HETATM   19  C   UNL     1     -12.214  12.177  63.647  1.00  0.00    -0.663 A  
HETATM   20  C   UNL     1     -10.823  12.166  63.582  1.00  0.00    -0.523 A  
HETATM   21  C   UNL     1     -10.068  12.537  64.697  1.00  0.00    -0.258 A  
ENDBRANCH  13  16
ENDBRANCH  11  13
ENDBRANCH  10  11
ENDBRANCH   4  10
TORSDOF 4
ENDMDL
MODEL       76
REMARK 921   NORMALIZED FREE ENERGY PREDICTED BY IDOCK:   -5.03 KCAL/MOL
REMARK 922        TOTAL FREE ENERGY PREDICTED BY IDOCK:   -6.75 KCAL/MOL
REMARK 923 INTER-LIGAND FREE ENERGY PREDICTED BY IDOCK:   -6.05 KCAL/MOL
REMARK 924 INTRA-LIGAND FREE ENERGY PREDICTED BY IDOCK:   -0.70 KCAL/MOL
REMARK 927      BINDING AFFINITY PREDICTED BY RF-SCORE:    0.00 PKD
ROOT
HETATM    1  C   UNL     1     -10.986   6.964  67.138  1.00  0.00    -0.427 C  
HETATM    2  C   UNL     1      -9.588   7.555  67.335  1.00  0.00    -0.187 C  
HETATM    3  C   UNL     1      -9.504   8.999  66.827  1.00  0.00    -0.238 C  
HETATM    4  C   UNL     1     -10.145  10.006  67.791  1.00  0.00    -0.183 C  
HETATM    5  C   UNL     1      -9.478   9.909  69.169  1.00  0.00    -0.201 C  
HETATM    6  C   UNL     1      -8.690   8.430  71.048  1.00  0.00    -0.185 C  
HETATM    7  C   UNL     1      -9.579   8.496  69.788  1.00  0.00    -0.170 C  
HETATM    8  C   UNL     1     -11.021   8.201  70.245  1.00  0.00    -0.240 C  
HETATM    9  C   UNL     1      -9.068   7.437  68.778  1.00  0.00    -0.131 C  
ENDROOT
BRANCH   4  10
HETATM   10  O   UNL     1      -9.966  11.348  67.294  1.00  0.00    -0.191 OA 
BRANCH  10  11
HETATM   11  C   UNL     1     -11.051  12.167  67.434  1.00  0.00    -0.276 C  
HETATM   12  O   UNL     1     -12.120  12.035  66.843  1.00  0.00    -0.608 OA 
BRANCH  11  13
HETATM   13  C   UNL     1     -10.778  13.304  68.424  1.00  0.00    -0.257 C  
HETATM   14  O   UNL     1     -11.058  14.576  67.829  1.00  0.00    -0.267 OA 
HETATM   15  H   UNL     1     -10.889  15.281  68.442  1.00  0.00     0.000 HD 
BRANCH  13  16
HETATM   16  C   UNL     1     -11.608  13.195  69.685  1.00  0.00    -0.321 A  
HETATM   17  C   UNL     1     -12.078  14.355  70.320  1.00  0.00    -0.396 A  
HETATM   18  C   UNL     1     -12.879  14.265  71.460  1.00  0.00    -0.419 A  
HETATM   19  C   UNL     1     -13.222  13.018  71.976  1.00  0.00    -0.543 A  
HETATM   20  C   UNL     1     -12.762  11.858  71.358  1.00  0.00    -0.395 A  
HETATM   21  C   UNL     1     -11.959  11.944  70.219  1.00  0.00    -0.416 A  
ENDBRANCH  13  16
ENDBRANCH  11  13
ENDBRANCH  10  11
ENDBRANCH   4  10
TORSDOF 4
ENDMDL
MODEL       77
REMARK 921   NORMALIZED FREE ENERGY PREDICTED BY IDOCK:   -4.98 KCAL/MOL
REMARK 922        TOTAL FREE ENERGY PREDICTED BY IDOCK:   -6.70 KCAL/MOL
REMARK 923 INTER-LIGAND FREE ENERGY PREDICTED BY IDOCK:   -6.27 KCAL/MOL
REMARK 924 INTRA-LIGAND FREE ENERGY PREDICTED BY IDOCK:   -0.43 KCAL/MOL
REMARK 927      BINDING AFFINITY PREDICTED BY RF-SCORE:    0.00 PKD
ROOT
HETATM    1  C   UNL     1     -11.666  11.680  69.699  1.00  0.00    -0.418 C  
HETATM    2  C   UNL     1     -11.822  11.496  68.187  1.00  0.00    -0.306 C  
HETATM    3  C   UNL     1     -11.561  12.801  67.426  1.00  0.00    -0.415 C  
HETATM    4  C   UNL     1     -10.068  13.130  67.306  1.00  0.00    -0.233 C  
HETATM    5  C   UNL     1      -9.331  11.978  66.613  1.00  0.00    -0.221 C  
HETATM    6  C   UNL     1      -8.916   9.499  66.477  1.00  0.00    -0.173 C  
HETATM    7  C   UNL     1      -9.484  10.632  67.357  1.00  0.00    -0.172 C  
HETATM    8  C   UNL     1      -8.665  10.633  68.662  1.00  0.00    -0.148 C  
HETATM    9  C   UNL     1     -10.982  10.338  67.620  1.00  0.00    -0.356 C  
ENDROOT
BRANCH   4  10
HETATM   10  O   UNL     1      -9.888  14.324  66.517  1.00  0.00    -0.268 OA 
BRANCH  10  11
HETATM   11  C   UNL     1      -9.086  15.276  67.080  1.00  0.00    -0.210 C  
HETATM   12  O   UNL     1      -7.916  15.489  66.774  1.00  0.00    -0.233 OA 
BRANCH  11  13
HETATM   13  C   UNL     1      -9.820  16.061  68.173  1.00  0.00    -0.222 C  
HETATM   14  O   UNL     1      -9.096  16.017  69.407  1.00  0.00    -0.251 OA 
HETATM   15  H   UNL     1      -9.551  16.503  70.084  1.00  0.00     0.000 HD 
BRANCH  13  16
HETATM   16  C   UNL     1     -10.022  17.517  67.812  1.00  0.00    -0.312 A  
HETATM   17  C   UNL     1     -10.005  18.499  68.815  1.00  0.00    -0.417 A  
HETATM   18  C   UNL     1     -10.149  19.849  68.489  1.00  0.00    -0.538 A  
HETATM   19  C   UNL     1     -10.308  20.234  67.160  1.00  0.00    -0.419 A  
HETATM   20  C   UNL     1     -10.329  19.272  66.154  1.00  0.00    -0.578 A  
HETATM   21  C   UNL     1     -10.187  17.920  66.476  1.00  0.00    -0.379 A  
ENDBRANCH  13  16
ENDBRANCH  11  13
ENDBRANCH  10  11
ENDBRANCH   4  10
TORSDOF 4
ENDMDL
MODEL       78
REMARK 921   NORMALIZED FREE ENERGY PREDICTED BY IDOCK:   -4.98 KCAL/MOL
REMARK 922        TOTAL FREE ENERGY PREDICTED BY IDOCK:   -6.69 KCAL/MOL
REMARK 923 INTER-LIGAND FREE ENERGY PREDICTED BY IDOCK:   -6.67 KCAL/MOL
REMARK 924 INTRA-LIGAND FREE ENERGY PREDICTED BY IDOCK:   -0.02 KCAL/MOL
REMARK 927      BINDING AFFINITY PREDICTED BY RF-SCORE:    0.00 PKD
ROOT
HETATM    1  C   UNL     1      -7.899  10.913  66.492  1.00  0.00    -0.152 C  
HETATM    2  C   UNL     1      -7.938  11.525  67.894  1.00  0.00    -0.126 C  
HETATM    3  C   UNL     1      -8.303  13.013  67.855  1.00  0.00    -0.170 C  
HETATM    4  C   UNL     1      -9.801  13.251  67.629  1.00  0.00    -0.230 C  
HETATM    5  C   UNL     1     -10.614  12.554  68.727  1.00  0.00    -0.204 C  
HETATM    6  C   UNL     1     -11.026  10.457  70.057  1.00  0.00    -0.370 C  
HETATM    7  C   UNL     1     -10.357  11.031  68.791  1.00  0.00    -0.217 C  
HETATM    8  C   UNL     1     -11.002  10.318  67.586  1.00  0.00    -0.356 C  
HETATM    9  C   UNL     1      -8.836  10.752  68.876  1.00  0.00    -0.154 C  
ENDROOT
BRANCH   4  10
HETATM   10  O   UNL     1     -10.090  14.664  67.678  1.00  0.00    -0.227 OA 
BRANCH  10  11
HETATM   11  C   UNL     1     -10.169  15.195  68.934  1.00  0.00    -0.236 C  
HETATM   12  O   UNL     1      -9.244  15.247  69.741  1.00  0.00    -0.211 OA 
BRANCH  11  13
HETATM   13  C   UNL     1     -11.575  15.721  69.239  1.00  0.00    -0.373 C  
HETATM   14  O   UNL     1     -12.535  15.168  68.333  1.00  0.00    -0.491 OA 
HETATM   15  H   UNL     1     -13.407  15.494  68.522  1.00  0.00     0.000 HD 
BRANCH  13  16
HETATM   16  C   UNL     1     -12.031  15.394  70.646  1.00  0.00    -0.396 A  
HETATM   17  C   UNL     1     -11.749  16.277  71.700  1.00  0.00    -0.490 A  
HETATM   18  C   UNL     1     -12.199  16.006  72.993  1.00  0.00    -0.637 A  
HETATM   19  C   UNL     1     -12.938  14.853  73.248  1.00  0.00    -0.635 A  
HETATM   20  C   UNL     1     -13.223  13.965  72.213  1.00  0.00    -0.568 A  
HETATM   21  C   UNL     1     -12.772  14.233  70.919  1.00  0.00    -0.427 A  
ENDBRANCH  13  16
ENDBRANCH  11  13
ENDBRANCH  10  11
ENDBRANCH   4  10
TORSDOF 4
ENDMDL
MODEL       79
REMARK 921   NORMALIZED FREE ENERGY PREDICTED BY IDOCK:   -4.97 KCAL/MOL
REMARK 922        TOTAL FREE ENERGY PREDICTED BY IDOCK:   -6.69 KCAL/MOL
REMARK 923 INTER-LIGAND FREE ENERGY PREDICTED BY IDOCK:   -5.98 KCAL/MOL
REMARK 924 INTRA-LIGAND FREE ENERGY PREDICTED BY IDOCK:   -0.71 KCAL/MOL
REMARK 927      BINDING AFFINITY PREDICTED BY RF-SCORE:    0.00 PKD
ROOT
HETATM    1  C   UNL     1      -8.894  10.739  66.867  1.00  0.00    -0.144 C  
HETATM    2  C   UNL     1     -10.422  10.703  66.787  1.00  0.00    -0.303 C  
HETATM    3  C   UNL     1     -11.044  10.129  68.065  1.00  0.00    -0.302 C  
HETATM    4  C   UNL     1     -11.055  11.135  69.223  1.00  0.00    -0.259 C  
HETATM    5  C   UNL     1     -11.813  12.402  68.809  1.00  0.00    -0.358 C  
HETATM    6  C   UNL     1     -12.158  14.204  67.085  1.00  0.00    -0.432 C  
HETATM    7  C   UNL     1     -11.206  13.087  67.563  1.00  0.00    -0.320 C  
HETATM    8  C   UNL     1      -9.866  13.763  67.911  1.00  0.00    -0.232 C  
HETATM    9  C   UNL     1     -11.050  12.058  66.416  1.00  0.00    -0.365 C  
ENDROOT
BRANCH   4  10
HETATM   10  O   UNL     1     -11.720  10.562  70.368  1.00  0.00    -0.289 OA 
BRANCH  10  11
HETATM   11  C   UNL     1     -11.005   9.607  71.035  1.00  0.00    -0.361 C  
HETATM   12  O   UNL     1      -9.809   9.677  71.307  1.00  0.00    -0.153 OA 
BRANCH  11  13
HETATM   13  C   UNL     1     -11.877   8.403  71.407  1.00  0.00    -0.296 C  
HETATM   14  O   UNL     1     -13.186   8.527  70.840  1.00  0.00    -0.499 OA 
HETATM   15  H   UNL     1     -13.727   7.781  71.070  1.00  0.00     0.000 HD 
BRANCH  13  16
HETATM   16  C   UNL     1     -11.294   7.089  70.931  1.00  0.00    -0.334 A  
HETATM   17  C   UNL     1     -11.427   6.707  69.587  1.00  0.00    -0.358 A  
HETATM   18  C   UNL     1     -10.858   5.518  69.128  1.00  0.00    -0.182 A  
HETATM   19  C   UNL     1     -10.149   4.699  70.004  1.00  0.00    -0.267 A  
HETATM   20  C   UNL     1     -10.011   5.063  71.341  1.00  0.00    -0.259 A  
HETATM   21  C   UNL     1     -10.580   6.251  71.804  1.00  0.00    -0.266 A  
ENDBRANCH  13  16
ENDBRANCH  11  13
ENDBRANCH  10  11
ENDBRANCH   4  10
TORSDOF 4
ENDMDL
MODEL       80
REMARK 921   NORMALIZED FREE ENERGY PREDICTED BY IDOCK:   -4.96 KCAL/MOL
REMARK 922        TOTAL FREE ENERGY PREDICTED BY IDOCK:   -6.68 KCAL/MOL
REMARK 923 INTER-LIGAND FREE ENERGY PREDICTED BY IDOCK:   -6.24 KCAL/MOL
REMARK 924 INTRA-LIGAND FREE ENERGY PREDICTED BY IDOCK:   -0.44 KCAL/MOL
REMARK 927      BINDING AFFINITY PREDICTED BY RF-SCORE:    0.00 PKD
ROOT
HETATM    1  C   UNL     1     -10.569  11.384  65.494  1.00  0.00    -0.328 C  
HETATM    2  C   UNL     1     -11.834  12.122  65.937  1.00  0.00    -0.342 C  
HETATM    3  C   UNL     1     -11.767  12.531  67.413  1.00  0.00    -0.432 C  
HETATM    4  C   UNL     1     -10.879  13.759  67.649  1.00  0.00    -0.254 C  
HETATM    5  C   UNL     1     -11.387  14.941  66.814  1.00  0.00    -0.328 C  
HETATM    6  C   UNL     1     -12.155  15.780  64.568  1.00  0.00     0.022 C  
HETATM    7  C   UNL     1     -11.420  14.636  65.299  1.00  0.00    -0.361 C  
HETATM    8  C   UNL     1      -9.993  14.585  64.721  1.00  0.00     0.048 C  
HETATM    9  C   UNL     1     -12.193  13.319  65.039  1.00  0.00    -0.477 C  
ENDROOT
BRANCH   4  10
HETATM   10  O   UNL     1     -10.919  14.136  69.041  1.00  0.00    -0.250 OA 
BRANCH  10  11
HETATM   11  C   UNL     1     -10.036  15.114  69.401  1.00  0.00    -0.240 C  
HETATM   12  O   UNL     1      -8.839  15.124  69.129  1.00  0.00    -0.209 OA 
BRANCH  11  13
HETATM   13  C   UNL     1     -10.717  16.221  70.214  1.00  0.00    -0.188 C  
HETATM   14  O   UNL     1     -11.221  17.249  69.354  1.00  0.00    -0.135 OA 
HETATM   15  H   UNL     1     -11.643  17.935  69.857  1.00  0.00     0.000 HD 
BRANCH  13  16
HETATM   16  C   UNL     1     -11.875  15.710  71.045  1.00  0.00    -0.442 A  
HETATM   17  C   UNL     1     -13.159  15.623  70.484  1.00  0.00    -0.161 A  
HETATM   18  C   UNL     1     -14.225  15.115  71.226  1.00  0.00    -0.527 A  
HETATM   19  C   UNL     1     -14.022  14.685  72.536  1.00  0.00    -0.518 A  
HETATM   20  C   UNL     1     -12.755  14.766  73.107  1.00  0.00    -0.580 A  
HETATM   21  C   UNL     1     -11.686  15.276  72.367  1.00  0.00    -0.538 A  
ENDBRANCH  13  16
ENDBRANCH  11  13
ENDBRANCH  10  11
ENDBRANCH   4  10
TORSDOF 4
ENDMDL
MODEL       81
REMARK 921   NORMALIZED FREE ENERGY PREDICTED BY IDOCK:   -4.93 KCAL/MOL
REMARK 922        TOTAL FREE ENERGY PREDICTED BY IDOCK:   -6.64 KCAL/MOL
REMARK 923 INTER-LIGAND FREE ENERGY PREDICTED BY IDOCK:   -6.76 KCAL/MOL
REMARK 924 INTRA-LIGAND FREE ENERGY PREDICTED BY IDOCK:    0.12 KCAL/MOL
REMARK 927      BINDING AFFINITY PREDICTED BY RF-SCORE:    0.00 PKD
ROOT
HETATM    1  C   UNL     1     -12.364  14.596  64.431  1.00  0.00    -0.420 C  
HETATM    2  C   UNL     1     -10.895  14.780  64.816  1.00  0.00    -0.395 C  
HETATM    3  C   UNL     1     -10.727  15.801  65.948  1.00  0.00    -0.320 C  
HETATM    4  C   UNL     1     -11.092  15.227  67.323  1.00  0.00    -0.325 C  
HETATM    5  C   UNL     1     -10.235  13.990  67.619  1.00  0.00    -0.241 C  
HETATM    6  C   UNL     1      -9.338  11.784  66.805  1.00  0.00    -0.199 C  
HETATM    7  C   UNL     1     -10.398  12.878  66.558  1.00  0.00    -0.272 C  
HETATM    8  C   UNL     1     -11.775  12.199  66.687  1.00  0.00    -0.385 C  
HETATM    9  C   UNL     1     -10.174  13.460  65.140  1.00  0.00    -0.316 C  
ENDROOT
BRANCH   4  10
HETATM   10  O   UNL     1     -10.841  16.209  68.349  1.00  0.00    -0.286 OA 
BRANCH  10  11
HETATM   11  C   UNL     1     -10.755  15.712  69.619  1.00  0.00    -0.278 C  
HETATM   12  O   UNL     1      -9.733  15.272  70.140  1.00  0.00    -0.135 OA 
BRANCH  11  13
HETATM   13  C   UNL     1     -12.109  15.751  70.336  1.00  0.00    -0.370 C  
HETATM   14  O   UNL     1     -13.135  16.235  69.463  1.00  0.00    -0.117 OA 
HETATM   15  H   UNL     1     -13.974  16.259  69.908  1.00  0.00     0.000 HD 
BRANCH  13  16
HETATM   16  C   UNL     1     -12.542  14.392  70.844  1.00  0.00    -0.422 A  
HETATM   17  C   UNL     1     -12.032  13.225  70.252  1.00  0.00    -0.372 A  
HETATM   18  C   UNL     1     -12.392  11.967  70.738  1.00  0.00    -0.403 A  
HETATM   19  C   UNL     1     -13.262  11.860  71.821  1.00  0.00    -0.426 A  
HETATM   20  C   UNL     1     -13.777  13.007  72.418  1.00  0.00    -0.593 A  
HETATM   21  C   UNL     1     -13.421  14.267  71.932  1.00  0.00    -0.485 A  
ENDBRANCH  13  16
ENDBRANCH  11  13
ENDBRANCH  10  11
ENDBRANCH   4  10
TORSDOF 4
ENDMDL
MODEL       82
REMARK 921   NORMALIZED FREE ENERGY PREDICTED BY IDOCK:   -4.93 KCAL/MOL
REMARK 922        TOTAL FREE ENERGY PREDICTED BY IDOCK:   -6.63 KCAL/MOL
REMARK 923 INTER-LIGAND FREE ENERGY PREDICTED BY IDOCK:   -6.65 KCAL/MOL
REMARK 924 INTRA-LIGAND FREE ENERGY PREDICTED BY IDOCK:    0.02 KCAL/MOL
REMARK 927      BINDING AFFINITY PREDICTED BY RF-SCORE:    0.00 PKD
ROOT
HETATM    1  C   UNL     1      -7.944   7.412  72.989  1.00  0.00    -0.125 C  
HETATM    2  C   UNL     1      -9.384   7.811  73.318  1.00  0.00    -0.331 C  
HETATM    3  C   UNL     1      -9.988   8.709  72.231  1.00  0.00    -0.361 C  
HETATM    4  C   UNL     1     -10.411   7.927  70.982  1.00  0.00    -0.203 C  
HETATM    5  C   UNL     1     -11.421   6.837  71.364  1.00  0.00    -0.336 C  
HETATM    6  C   UNL     1     -12.012   4.934  72.903  1.00  0.00    -0.002 C  
HETATM    7  C   UNL     1     -10.866   5.842  72.409  1.00  0.00    -0.294 C  
HETATM    8  C   UNL     1      -9.809   4.917  71.774  1.00  0.00    -0.240 C  
HETATM    9  C   UNL     1     -10.298   6.613  73.627  1.00  0.00    -0.343 C  
ENDROOT
BRANCH   4  10
HETATM   10  O   UNL     1     -11.038   8.814  70.033  1.00  0.00    -0.237 OA 
BRANCH  10  11
HETATM   11  C   UNL     1     -10.230   9.798  69.540  1.00  0.00    -0.221 C  
HETATM   12  O   UNL     1      -9.002   9.774  69.539  1.00  0.00    -0.173 OA 
BRANCH  11  13
HETATM   13  C   UNL     1     -11.043  10.973  68.984  1.00  0.00    -0.244 C  
HETATM   14  O   UNL     1     -11.986  10.523  68.005  1.00  0.00    -0.758 OA 
HETATM   15  H   UNL     1     -12.489  11.251  67.661  1.00  0.00     0.000 HD 
BRANCH  13  16
HETATM   16  C   UNL     1     -11.813  11.712  70.058  1.00  0.00    -0.435 A  
HETATM   17  C   UNL     1     -11.844  13.115  70.061  1.00  0.00    -0.360 A  
HETATM   18  C   UNL     1     -12.584  13.807  71.021  1.00  0.00    -0.446 A  
HETATM   19  C   UNL     1     -13.304  13.106  71.987  1.00  0.00    -0.587 A  
HETATM   20  C   UNL     1     -13.282  11.713  71.998  1.00  0.00    -0.443 A  
HETATM   21  C   UNL     1     -12.540  11.019  71.040  1.00  0.00    -0.512 A  
ENDBRANCH  13  16
ENDBRANCH  11  13
ENDBRANCH  10  11
ENDBRANCH   4  10
TORSDOF 4
ENDMDL
MODEL       83
REMARK 921   NORMALIZED FREE ENERGY PREDICTED BY IDOCK:   -4.92 KCAL/MOL
REMARK 922        TOTAL FREE ENERGY PREDICTED BY IDOCK:   -6.62 KCAL/MOL
REMARK 923 INTER-LIGAND FREE ENERGY PREDICTED BY IDOCK:   -6.56 KCAL/MOL
REMARK 924 INTRA-LIGAND FREE ENERGY PREDICTED BY IDOCK:   -0.06 KCAL/MOL
REMARK 927      BINDING AFFINITY PREDICTED BY RF-SCORE:    0.00 PKD
ROOT
HETATM    1  C   UNL     1      -8.807  11.896  66.969  1.00  0.00    -0.190 C  
HETATM    2  C   UNL     1     -10.272  11.851  67.411  1.00  0.00    -0.214 C  
HETATM    3  C   UNL     1     -10.638  13.053  68.289  1.00  0.00    -0.260 C  
HETATM    4  C   UNL     1     -10.845  14.339  67.478  1.00  0.00    -0.280 C  
HETATM    5  C   UNL     1     -11.939  14.122  66.425  1.00  0.00    -0.457 C  
HETATM    6  C   UNL     1     -12.859  12.672  64.585  1.00  0.00    -0.361 C  
HETATM    7  C   UNL     1     -11.616  12.967  65.450  1.00  0.00    -0.374 C  
HETATM    8  C   UNL     1     -10.487  13.370  64.482  1.00  0.00    -0.431 C  
HETATM    9  C   UNL     1     -11.261  11.686  66.245  1.00  0.00    -0.332 C  
ENDROOT
BRANCH   4  10
HETATM   10  O   UNL     1     -11.260  15.410  68.350  1.00  0.00    -0.283 OA 
BRANCH  10  11
HETATM   11  C   UNL     1     -10.401  15.689  69.375  1.00  0.00    -0.260 C  
HETATM   12  O   UNL     1     -10.549  15.332  70.541  1.00  0.00    -0.271 OA 
BRANCH  11  13
HETATM   13  C   UNL     1      -9.209  16.528  68.903  1.00  0.00    -0.258 C  
HETATM   14  O   UNL     1      -8.342  15.756  68.065  1.00  0.00    -0.150 OA 
HETATM   15  H   UNL     1      -7.602  16.275  67.772  1.00  0.00     0.000 HD 
BRANCH  13  16
HETATM   16  C   UNL     1      -9.629  17.754  68.121  1.00  0.00    -0.303 A  
HETATM   17  C   UNL     1      -9.713  17.701  66.721  1.00  0.00    -0.300 A  
HETATM   18  C   UNL     1     -10.139  18.813  65.992  1.00  0.00    -0.353 A  
HETATM   19  C   UNL     1     -10.487  19.989  66.653  1.00  0.00    -0.519 A  
HETATM   20  C   UNL     1     -10.407  20.058  68.041  1.00  0.00    -0.501 A  
HETATM   21  C   UNL     1      -9.980  18.948  68.773  1.00  0.00    -0.466 A  
ENDBRANCH  13  16
ENDBRANCH  11  13
ENDBRANCH  10  11
ENDBRANCH   4  10
TORSDOF 4
ENDMDL
MODEL       84
REMARK 921   NORMALIZED FREE ENERGY PREDICTED BY IDOCK:   -4.91 KCAL/MOL
REMARK 922        TOTAL FREE ENERGY PREDICTED BY IDOCK:   -6.61 KCAL/MOL
REMARK 923 INTER-LIGAND FREE ENERGY PREDICTED BY IDOCK:   -6.30 KCAL/MOL
REMARK 924 INTRA-LIGAND FREE ENERGY PREDICTED BY IDOCK:   -0.30 KCAL/MOL
REMARK 927      BINDING AFFINITY PREDICTED BY RF-SCORE:    0.00 PKD
ROOT
HETATM    1  C   UNL     1     -10.290   7.017  68.393  1.00  0.00    -0.216 C  
HETATM    2  C   UNL     1      -9.684   8.132  67.538  1.00  0.00    -0.207 C  
HETATM    3  C   UNL     1     -10.732   9.177  67.140  1.00  0.00    -0.213 C  
HETATM    4  C   UNL     1     -11.075  10.140  68.283  1.00  0.00    -0.227 C  
HETATM    5  C   UNL     1      -9.804  10.849  68.769  1.00  0.00    -0.203 C  
HETATM    6  C   UNL     1      -7.405  10.643  69.502  1.00  0.00    -0.141 C  
HETATM    7  C   UNL     1      -8.716   9.866  69.257  1.00  0.00    -0.172 C  
HETATM    8  C   UNL     1      -9.116   9.234  70.604  1.00  0.00    -0.309 C  
HETATM    9  C   UNL     1      -8.448   8.791  68.175  1.00  0.00    -0.130 C  
ENDROOT
BRANCH   4  10
HETATM   10  O   UNL     1     -12.005  11.141  67.823  1.00  0.00    -0.630 OA 
BRANCH  10  11
HETATM   11  C   UNL     1     -11.872  12.368  68.408  1.00  0.00    -0.309 C  
HETATM   12  O   UNL     1     -11.958  12.592  69.613  1.00  0.00    -0.315 OA 
BRANCH  11  13
HETATM   13  C   UNL     1     -11.609  13.465  67.371  1.00  0.00    -0.354 C  
HETATM   14  O   UNL     1     -10.415  14.190  67.686  1.00  0.00    -0.243 OA 
HETATM   15  H   UNL     1     -10.251  14.869  67.044  1.00  0.00     0.000 HD 
BRANCH  13  16
HETATM   16  C   UNL     1     -11.457  12.920  65.967  1.00  0.00    -0.384 A  
HETATM   17  C   UNL     1     -12.582  12.788  65.138  1.00  0.00    -0.513 A  
HETATM   18  C   UNL     1     -12.449  12.325  63.828  1.00  0.00    -0.619 A  
HETATM   19  C   UNL     1     -11.192  11.991  63.330  1.00  0.00    -0.481 A  
HETATM   20  C   UNL     1     -10.066  12.114  64.140  1.00  0.00    -0.335 A  
HETATM   21  C   UNL     1     -10.197  12.575  65.452  1.00  0.00    -0.303 A  
ENDBRANCH  13  16
ENDBRANCH  11  13
ENDBRANCH  10  11
ENDBRANCH   4  10
TORSDOF 4
ENDMDL
MODEL       85
REMARK 921   NORMALIZED FREE ENERGY PREDICTED BY IDOCK:   -4.90 KCAL/MOL
REMARK 922        TOTAL FREE ENERGY PREDICTED BY IDOCK:   -6.60 KCAL/MOL
REMARK 923 INTER-LIGAND FREE ENERGY PREDICTED BY IDOCK:   -5.80 KCAL/MOL
REMARK 924 INTRA-LIGAND FREE ENERGY PREDICTED BY IDOCK:   -0.80 KCAL/MOL
REMARK 927      BINDING AFFINITY PREDICTED BY RF-SCORE:    0.00 PKD
ROOT
HETATM    1  C   UNL     1     -12.971   7.010  71.383  1.00  0.00    -0.395 C  
HETATM    2  C   UNL     1     -11.675   6.221  71.582  1.00  0.00    -0.342 C  
HETATM    3  C   UNL     1     -11.067   5.780  70.245  1.00  0.00    -0.300 C  
HETATM    4  C   UNL     1     -10.347   6.921  69.516  1.00  0.00    -0.207 C  
HETATM    5  C   UNL     1      -9.246   7.503  70.412  1.00  0.00    -0.157 C  
HETATM    6  C   UNL     1      -8.596   8.383  72.679  1.00  0.00    -0.241 C  
HETATM    7  C   UNL     1      -9.786   8.037  71.758  1.00  0.00    -0.233 C  
HETATM    8  C   UNL     1     -10.580   9.341  71.549  1.00  0.00    -0.405 C  
HETATM    9  C   UNL     1     -10.640   6.950  72.456  1.00  0.00    -0.251 C  
ENDROOT
BRANCH   4  10
HETATM   10  O   UNL     1      -9.734   6.425  68.308  1.00  0.00    -0.126 OA 
BRANCH  10  11
HETATM   11  C   UNL     1     -10.245   6.935  67.148  1.00  0.00    -0.240 C  
HETATM   12  O   UNL     1     -11.286   6.566  66.609  1.00  0.00    -0.244 OA 
BRANCH  11  13
HETATM   13  C   UNL     1      -9.350   8.036  66.570  1.00  0.00    -0.205 C  
HETATM   14  O   UNL     1      -8.907   7.695  65.252  1.00  0.00    -0.363 OA 
HETATM   15  H   UNL     1      -8.352   8.377  64.894  1.00  0.00     0.000 HD 
BRANCH  13  16
HETATM   16  C   UNL     1     -10.050   9.376  66.487  1.00  0.00    -0.332 A  
HETATM   17  C   UNL     1     -10.673   9.915  67.623  1.00  0.00    -0.339 A  
HETATM   18  C   UNL     1     -11.286  11.168  67.569  1.00  0.00    -0.369 A  
HETATM   19  C   UNL     1     -11.280  11.898  66.382  1.00  0.00    -0.387 A  
HETATM   20  C   UNL     1     -10.668  11.375  65.246  1.00  0.00    -0.326 A  
HETATM   21  C   UNL     1     -10.056  10.121  65.296  1.00  0.00    -0.344 A  
ENDBRANCH  13  16
ENDBRANCH  11  13
ENDBRANCH  10  11
ENDBRANCH   4  10
TORSDOF 4
ENDMDL
MODEL       86
REMARK 921   NORMALIZED FREE ENERGY PREDICTED BY IDOCK:   -4.89 KCAL/MOL
REMARK 922        TOTAL FREE ENERGY PREDICTED BY IDOCK:   -6.59 KCAL/MOL
REMARK 923 INTER-LIGAND FREE ENERGY PREDICTED BY IDOCK:   -5.98 KCAL/MOL
REMARK 924 INTRA-LIGAND FREE ENERGY PREDICTED BY IDOCK:   -0.61 KCAL/MOL
REMARK 927      BINDING AFFINITY PREDICTED BY RF-SCORE:    0.00 PKD
ROOT
HETATM    1  C   UNL     1     -12.195   6.830  70.857  1.00  0.00    -0.386 C  
HETATM    2  C   UNL     1     -10.953   6.417  70.064  1.00  0.00    -0.397 C  
HETATM    3  C   UNL     1     -10.622   7.426  68.958  1.00  0.00    -0.203 C  
HETATM    4  C   UNL     1      -9.949   8.695  69.494  1.00  0.00    -0.196 C  
HETATM    5  C   UNL     1      -8.666   8.327  70.251  1.00  0.00    -0.139 C  
HETATM    6  C   UNL     1      -7.565   6.867  71.981  1.00  0.00    -0.093 C  
HETATM    7  C   UNL     1      -8.919   7.362  71.432  1.00  0.00    -0.141 C  
HETATM    8  C   UNL     1      -9.628   8.092  72.589  1.00  0.00    -0.327 C  
HETATM    9  C   UNL     1      -9.726   6.132  70.948  1.00  0.00    -0.203 C  
ENDROOT
BRANCH   4  10
HETATM   10  O   UNL     1      -9.596   9.567  68.401  1.00  0.00    -0.140 OA 
BRANCH  10  11
HETATM   11  C   UNL     1      -9.623  10.902  68.692  1.00  0.00    -0.190 C  
HETATM   12  O   UNL     1      -8.688  11.543  69.162  1.00  0.00     0.066 OA 
BRANCH  11  13
HETATM   13  C   UNL     1     -10.986  11.524  68.371  1.00  0.00    -0.221 C  
HETATM   14  O   UNL     1     -11.785  10.629  67.591  1.00  0.00    -0.636 OA 
HETATM   15  H   UNL     1     -12.630  11.014  67.391  1.00  0.00     0.000 HD 
BRANCH  13  16
HETATM   16  C   UNL     1     -11.775  11.879  69.613  1.00  0.00    -0.413 A  
HETATM   17  C   UNL     1     -12.250  10.864  70.458  1.00  0.00    -0.459 A  
HETATM   18  C   UNL     1     -12.943  11.180  71.628  1.00  0.00    -0.548 A  
HETATM   19  C   UNL     1     -13.167  12.512  71.968  1.00  0.00    -0.524 A  
HETATM   20  C   UNL     1     -12.703  13.531  71.140  1.00  0.00    -0.425 A  
HETATM   21  C   UNL     1     -12.012  13.217  69.967  1.00  0.00    -0.399 A  
ENDBRANCH  13  16
ENDBRANCH  11  13
ENDBRANCH  10  11
ENDBRANCH   4  10
TORSDOF 4
ENDMDL
MODEL       87
REMARK 921   NORMALIZED FREE ENERGY PREDICTED BY IDOCK:   -4.88 KCAL/MOL
REMARK 922        TOTAL FREE ENERGY PREDICTED BY IDOCK:   -6.57 KCAL/MOL
REMARK 923 INTER-LIGAND FREE ENERGY PREDICTED BY IDOCK:   -6.13 KCAL/MOL
REMARK 924 INTRA-LIGAND FREE ENERGY PREDICTED BY IDOCK:   -0.44 KCAL/MOL
REMARK 927      BINDING AFFINITY PREDICTED BY RF-SCORE:    0.00 PKD
ROOT
HETATM    1  C   UNL     1      -7.859  10.532  66.875  1.00  0.00    -0.117 C  
HETATM    2  C   UNL     1      -8.003  11.109  68.286  1.00  0.00    -0.127 C  
HETATM    3  C   UNL     1      -7.999  12.642  68.276  1.00  0.00    -0.153 C  
HETATM    4  C   UNL     1      -9.336  13.236  67.817  1.00  0.00    -0.209 C  
HETATM    5  C   UNL     1     -10.470  12.733  68.720  1.00  0.00    -0.179 C  
HETATM    6  C   UNL     1     -11.588  10.771  69.832  1.00  0.00    -0.410 C  
HETATM    7  C   UNL     1     -10.590  11.192  68.733  1.00  0.00    -0.233 C  
HETATM    8  C   UNL     1     -11.159  10.678  67.396  1.00  0.00    -0.341 C  
HETATM    9  C   UNL     1      -9.215  10.555  69.055  1.00  0.00    -0.193 C  
ENDROOT
BRANCH   4  10
HETATM   10  O   UNL     1      -9.292  14.675  67.904  1.00  0.00    -0.192 OA 
BRANCH  10  11
HETATM   11  C   UNL     1      -9.878  15.336  66.861  1.00  0.00    -0.235 C  
HETATM   12  O   UNL     1      -9.592  15.186  65.676  1.00  0.00    -0.334 OA 
BRANCH  11  13
HETATM   13  C   UNL     1     -10.948  16.321  67.344  1.00  0.00    -0.175 C  
HETATM   14  O   UNL     1     -11.394  15.983  68.662  1.00  0.00    -0.349 OA 
HETATM   15  H   UNL     1     -12.058  16.593  68.962  1.00  0.00     0.000 HD 
BRANCH  13  16
HETATM   16  C   UNL     1     -10.455  17.751  67.379  1.00  0.00    -0.367 A  
HETATM   17  C   UNL     1     -10.454  18.524  66.207  1.00  0.00    -0.441 A  
HETATM   18  C   UNL     1     -10.041  19.856  66.235  1.00  0.00    -0.613 A  
HETATM   19  C   UNL     1      -9.626  20.434  67.433  1.00  0.00    -0.584 A  
HETATM   20  C   UNL     1      -9.620  19.681  68.604  1.00  0.00    -0.457 A  
HETATM   21  C   UNL     1     -10.031  18.346  68.579  1.00  0.00    -0.415 A  
ENDBRANCH  13  16
ENDBRANCH  11  13
ENDBRANCH  10  11
ENDBRANCH   4  10
TORSDOF 4
ENDMDL
MODEL       88
REMARK 921   NORMALIZED FREE ENERGY PREDICTED BY IDOCK:   -4.86 KCAL/MOL
REMARK 922        TOTAL FREE ENERGY PREDICTED BY IDOCK:   -6.55 KCAL/MOL
REMARK 923 INTER-LIGAND FREE ENERGY PREDICTED BY IDOCK:   -5.98 KCAL/MOL
REMARK 924 INTRA-LIGAND FREE ENERGY PREDICTED BY IDOCK:   -0.57 KCAL/MOL
REMARK 927      BINDING AFFINITY PREDICTED BY RF-SCORE:    0.00 PKD
ROOT
HETATM    1  C   UNL     1     -10.544  13.030  64.230  1.00  0.00    -0.434 C  
HETATM    2  C   UNL     1     -11.777  13.649  64.891  1.00  0.00    -0.379 C  
HETATM    3  C   UNL     1     -12.373  12.727  65.961  1.00  0.00    -0.251 C  
HETATM    4  C   UNL     1     -11.573  12.741  67.269  1.00  0.00    -0.360 C  
HETATM    5  C   UNL     1     -11.489  14.171  67.817  1.00  0.00    -0.352 C  
HETATM    6  C   UNL     1     -11.003  16.597  67.354  1.00  0.00    -0.103 C  
HETATM    7  C   UNL     1     -10.834  15.158  66.824  1.00  0.00    -0.322 C  
HETATM    8  C   UNL     1      -9.319  14.899  66.716  1.00  0.00    -0.270 C  
HETATM    9  C   UNL     1     -11.532  15.064  65.444  1.00  0.00    -0.287 C  
ENDROOT
BRANCH   4  10
HETATM   10  O   UNL     1     -12.225  11.915  68.256  1.00  0.00    -0.447 OA 
BRANCH  10  11
HETATM   11  C   UNL     1     -11.410  11.437  69.242  1.00  0.00    -0.289 C  
HETATM   12  O   UNL     1     -11.589  11.591  70.447  1.00  0.00    -0.281 OA 
BRANCH  11  13
HETATM   13  C   UNL     1     -10.209  10.678  68.666  1.00  0.00    -0.182 C  
HETATM   14  O   UNL     1      -9.034  10.912  69.450  1.00  0.00    -0.390 OA 
HETATM   15  H   UNL     1      -8.290  10.442  69.093  1.00  0.00     0.000 HD 
BRANCH  13  16
HETATM   16  C   UNL     1     -10.433   9.182  68.612  1.00  0.00    -0.235 A  
HETATM   17  C   UNL     1     -10.421   8.426  69.795  1.00  0.00    -0.220 A  
HETATM   18  C   UNL     1     -10.668   7.052  69.762  1.00  0.00    -0.265 A  
HETATM   19  C   UNL     1     -10.931   6.419  68.550  1.00  0.00    -0.396 A  
HETATM   20  C   UNL     1     -10.945   7.154  67.368  1.00  0.00    -0.296 A  
HETATM   21  C   UNL     1     -10.697   8.528  67.397  1.00  0.00    -0.215 A  
ENDBRANCH  13  16
ENDBRANCH  11  13
ENDBRANCH  10  11
ENDBRANCH   4  10
TORSDOF 4
ENDMDL
MODEL       89
REMARK 921   NORMALIZED FREE ENERGY PREDICTED BY IDOCK:   -4.86 KCAL/MOL
REMARK 922        TOTAL FREE ENERGY PREDICTED BY IDOCK:   -6.55 KCAL/MOL
REMARK 923 INTER-LIGAND FREE ENERGY PREDICTED BY IDOCK:   -6.26 KCAL/MOL
REMARK 924 INTRA-LIGAND FREE ENERGY PREDICTED BY IDOCK:   -0.29 KCAL/MOL
REMARK 927      BINDING AFFINITY PREDICTED BY RF-SCORE:    0.00 PKD
ROOT
HETATM    1  C   UNL     1     -10.785  18.841  67.276  1.00  0.00    -0.490 C  
HETATM    2  C   UNL     1      -9.902  18.642  68.510  1.00  0.00    -0.427 C  
HETATM    3  C   UNL     1     -10.404  17.491  69.389  1.00  0.00    -0.067 C  
HETATM    4  C   UNL     1     -10.050  16.112  68.821  1.00  0.00    -0.237 C  
HETATM    5  C   UNL     1      -8.531  15.993  68.643  1.00  0.00    -0.208 C  
HETATM    6  C   UNL     1      -6.407  17.029  67.774  1.00  0.00    -0.157 C  
HETATM    7  C   UNL     1      -7.948  17.079  67.709  1.00  0.00    -0.192 C  
HETATM    8  C   UNL     1      -8.341  16.807  66.244  1.00  0.00    -0.353 C  
HETATM    9  C   UNL     1      -8.408  18.483  68.176  1.00  0.00    -0.316 C  
ENDROOT
BRANCH   4  10
HETATM   10  O   UNL     1     -10.482  15.078  69.730  1.00  0.00    -0.237 OA 
BRANCH  10  11
HETATM   11  C   UNL     1     -11.618  14.417  69.358  1.00  0.00    -0.304 C  
HETATM   12  O   UNL     1     -12.025  14.302  68.204  1.00  0.00    -0.339 OA 
BRANCH  11  13
HETATM   13  C   UNL     1     -12.355  13.831  70.567  1.00  0.00    -0.359 C  
HETATM   14  O   UNL     1     -13.748  14.155  70.521  1.00  0.00    -0.174 OA 
HETATM   15  H   UNL     1     -14.205  13.792  71.271  1.00  0.00     0.000 HD 
BRANCH  13  16
HETATM   16  C   UNL     1     -12.237  12.324  70.650  1.00  0.00    -0.378 A  
HETATM   17  C   UNL     1     -11.295  11.648  69.859  1.00  0.00    -0.230 A  
HETATM   18  C   UNL     1     -11.149  10.263  69.957  1.00  0.00    -0.373 A  
HETATM   19  C   UNL     1     -11.939   9.539  70.847  1.00  0.00    -0.372 A  
HETATM   20  C   UNL     1     -12.879  10.195  71.637  1.00  0.00    -0.559 A  
HETATM   21  C   UNL     1     -13.029  11.580  71.540  1.00  0.00    -0.485 A  
ENDBRANCH  13  16
ENDBRANCH  11  13
ENDBRANCH  10  11
ENDBRANCH   4  10
TORSDOF 4
ENDMDL
MODEL       90
REMARK 921   NORMALIZED FREE ENERGY PREDICTED BY IDOCK:   -4.85 KCAL/MOL
REMARK 922        TOTAL FREE ENERGY PREDICTED BY IDOCK:   -6.54 KCAL/MOL
REMARK 923 INTER-LIGAND FREE ENERGY PREDICTED BY IDOCK:   -5.86 KCAL/MOL
REMARK 924 INTRA-LIGAND FREE ENERGY PREDICTED BY IDOCK:   -0.68 KCAL/MOL
REMARK 927      BINDING AFFINITY PREDICTED BY RF-SCORE:    0.00 PKD
ROOT
HETATM    1  C   UNL     1     -11.008   7.990  72.510  1.00  0.00    -0.430 C  
HETATM    2  C   UNL     1     -11.734   6.753  71.976  1.00  0.00    -0.343 C  
HETATM    3  C   UNL     1     -11.525   6.578  70.467  1.00  0.00    -0.448 C  
HETATM    4  C   UNL     1     -10.145   6.006  70.122  1.00  0.00    -0.194 C  
HETATM    5  C   UNL     1      -9.945   4.658  70.826  1.00  0.00    -0.284 C  
HETATM    6  C   UNL     1     -10.089   3.337  72.964  1.00  0.00    -0.218 C  
HETATM    7  C   UNL     1     -10.070   4.758  72.364  1.00  0.00    -0.235 C  
HETATM    8  C   UNL     1      -8.848   5.478  72.965  1.00  0.00    -0.120 C  
HETATM    9  C   UNL     1     -11.397   5.463  72.743  1.00  0.00    -0.358 C  
ENDROOT
BRANCH   4  10
HETATM   10  O   UNL     1     -10.040   5.794  68.699  1.00  0.00    -0.150 OA 
BRANCH  10  11
HETATM   11  C   UNL     1      -9.361   6.764  68.017  1.00  0.00    -0.118 C  
HETATM   12  O   UNL     1      -8.271   7.228  68.342  1.00  0.00    -0.123 OA 
BRANCH  11  13
HETATM   13  C   UNL     1     -10.132   7.231  66.778  1.00  0.00    -0.221 C  
HETATM   14  O   UNL     1     -11.436   6.643  66.736  1.00  0.00    -0.776 OA 
HETATM   15  H   UNL     1     -11.914   6.932  65.968  1.00  0.00     0.000 HD 
BRANCH  13  16
HETATM   16  C   UNL     1     -10.306   8.734  66.728  1.00  0.00    -0.328 A  
HETATM   17  C   UNL     1     -10.862   9.414  67.823  1.00  0.00    -0.223 A  
HETATM   18  C   UNL     1     -10.989  10.804  67.806  1.00  0.00    -0.354 A  
HETATM   19  C   UNL     1     -10.560  11.531  66.697  1.00  0.00    -0.294 A  
HETATM   20  C   UNL     1     -10.008  10.871  65.602  1.00  0.00    -0.305 A  
HETATM   21  C   UNL     1      -9.881   9.480  65.616  1.00  0.00    -0.343 A  
ENDBRANCH  13  16
ENDBRANCH  11  13
ENDBRANCH  10  11
ENDBRANCH   4  10
TORSDOF 4
ENDMDL
MODEL       91
REMARK 921   NORMALIZED FREE ENERGY PREDICTED BY IDOCK:   -4.85 KCAL/MOL
REMARK 922        TOTAL FREE ENERGY PREDICTED BY IDOCK:   -6.54 KCAL/MOL
REMARK 923 INTER-LIGAND FREE ENERGY PREDICTED BY IDOCK:   -5.84 KCAL/MOL
REMARK 924 INTRA-LIGAND FREE ENERGY PREDICTED BY IDOCK:   -0.70 KCAL/MOL
REMARK 927      BINDING AFFINITY PREDICTED BY RF-SCORE:    0.00 PKD
ROOT
HETATM    1  C   UNL     1      -9.389   6.255  71.812  1.00  0.00    -0.155 C  
HETATM    2  C   UNL     1      -9.581   7.609  72.497  1.00  0.00    -0.230 C  
HETATM    3  C   UNL     1      -9.038   8.761  71.643  1.00  0.00    -0.314 C  
HETATM    4  C   UNL     1      -9.973   9.132  70.485  1.00  0.00    -0.235 C  
HETATM    5  C   UNL     1     -11.357   9.507  71.029  1.00  0.00    -0.423 C  
HETATM    6  C   UNL     1     -13.277   8.909  72.543  1.00  0.00    -0.438 C  
HETATM    7  C   UNL     1     -12.010   8.369  71.848  1.00  0.00    -0.397 C  
HETATM    8  C   UNL     1     -12.464   7.223  70.924  1.00  0.00    -0.266 C  
HETATM    9  C   UNL     1     -11.030   7.873  72.941  1.00  0.00    -0.452 C  
ENDROOT
BRANCH   4  10
HETATM   10  O   UNL     1      -9.444  10.267  69.769  1.00  0.00    -0.191 OA 
BRANCH  10  11
HETATM   11  C   UNL     1      -9.324  10.096  68.419  1.00  0.00    -0.136 C  
HETATM   12  O   UNL     1      -8.469   9.410  67.865  1.00  0.00    -0.116 OA 
BRANCH  11  13
HETATM   13  C   UNL     1     -10.391  10.883  67.651  1.00  0.00    -0.197 C  
HETATM   14  O   UNL     1     -11.642  10.187  67.658  1.00  0.00    -0.574 OA 
HETATM   15  H   UNL     1     -12.304  10.674  67.182  1.00  0.00     0.000 HD 
BRANCH  13  16
HETATM   16  C   UNL     1     -10.631  12.262  68.228  1.00  0.00    -0.243 A  
HETATM   17  C   UNL     1     -11.844  12.553  68.872  1.00  0.00    -0.346 A  
HETATM   18  C   UNL     1     -12.060  13.808  69.445  1.00  0.00    -0.377 A  
HETATM   19  C   UNL     1     -11.068  14.784  69.382  1.00  0.00    -0.302 A  
HETATM   20  C   UNL     1      -9.861  14.511  68.745  1.00  0.00    -0.220 A  
HETATM   21  C   UNL     1      -9.642  13.258  68.170  1.00  0.00    -0.227 A  
ENDBRANCH  13  16
ENDBRANCH  11  13
ENDBRANCH  10  11
ENDBRANCH   4  10
TORSDOF 4
ENDMDL
MODEL       92
REMARK 921   NORMALIZED FREE ENERGY PREDICTED BY IDOCK:   -4.81 KCAL/MOL
REMARK 922        TOTAL FREE ENERGY PREDICTED BY IDOCK:   -6.49 KCAL/MOL
REMARK 923 INTER-LIGAND FREE ENERGY PREDICTED BY IDOCK:   -6.14 KCAL/MOL
REMARK 924 INTRA-LIGAND FREE ENERGY PREDICTED BY IDOCK:   -0.35 KCAL/MOL
REMARK 927      BINDING AFFINITY PREDICTED BY RF-SCORE:    0.00 PKD
ROOT
HETATM    1  C   UNL     1      -9.642  10.766  64.671  1.00  0.00    -0.320 C  
HETATM    2  C   UNL     1      -8.598  10.930  65.779  1.00  0.00    -0.176 C  
HETATM    3  C   UNL     1      -9.030  11.972  66.817  1.00  0.00    -0.198 C  
HETATM    4  C   UNL     1     -10.088  11.438  67.791  1.00  0.00    -0.181 C  
HETATM    5  C   UNL     1      -9.556  10.191  68.509  1.00  0.00    -0.158 C  
HETATM    6  C   UNL     1      -8.427   7.949  68.317  1.00  0.00    -0.124 C  
HETATM    7  C   UNL     1      -9.161   9.058  67.534  1.00  0.00    -0.145 C  
HETATM    8  C   UNL     1     -10.414   8.410  66.914  1.00  0.00    -0.359 C  
HETATM    9  C   UNL     1      -8.200   9.603  66.448  1.00  0.00    -0.119 C  
ENDROOT
BRANCH   4  10
HETATM   10  O   UNL     1     -10.394  12.437  68.785  1.00  0.00    -0.204 OA 
BRANCH  10  11
HETATM   11  C   UNL     1     -11.683  12.889  68.774  1.00  0.00    -0.323 C  
HETATM   12  O   UNL     1     -12.217  13.488  67.844  1.00  0.00    -0.305 OA 
BRANCH  11  13
HETATM   13  C   UNL     1     -12.406  12.570  70.087  1.00  0.00    -0.138 C  
HETATM   14  O   UNL     1     -11.727  11.534  70.805  1.00  0.00    -0.420 OA 
HETATM   15  H   UNL     1     -12.175  11.336  71.618  1.00  0.00     0.000 HD 
BRANCH  13  16
HETATM   16  C   UNL     1     -12.510  13.770  71.004  1.00  0.00    -0.458 A  
HETATM   17  C   UNL     1     -11.601  14.832  70.879  1.00  0.00    -0.316 A  
HETATM   18  C   UNL     1     -11.713  15.962  71.690  1.00  0.00    -0.563 A  
HETATM   19  C   UNL     1     -12.734  16.046  72.635  1.00  0.00    -0.525 A  
HETATM   20  C   UNL     1     -13.642  14.999  72.773  1.00  0.00    -0.562 A  
HETATM   21  C   UNL     1     -13.531  13.867  71.964  1.00  0.00    -0.543 A  
ENDBRANCH  13  16
ENDBRANCH  11  13
ENDBRANCH  10  11
ENDBRANCH   4  10
TORSDOF 4
ENDMDL
MODEL       93
REMARK 921   NORMALIZED FREE ENERGY PREDICTED BY IDOCK:   -4.79 KCAL/MOL
REMARK 922        TOTAL FREE ENERGY PREDICTED BY IDOCK:   -6.47 KCAL/MOL
REMARK 923 INTER-LIGAND FREE ENERGY PREDICTED BY IDOCK:   -6.57 KCAL/MOL
REMARK 924 INTRA-LIGAND FREE ENERGY PREDICTED BY IDOCK:    0.10 KCAL/MOL
REMARK 927      BINDING AFFINITY PREDICTED BY RF-SCORE:    0.00 PKD
ROOT
HETATM    1  C   UNL     1     -10.594  19.780  65.961  1.00  0.00    -0.573 C  
HETATM    2  C   UNL     1     -10.573  19.323  67.421  1.00  0.00    -0.594 C  
HETATM    3  C   UNL     1     -10.719  17.802  67.544  1.00  0.00    -0.315 C  
HETATM    4  C   UNL     1      -9.422  17.053  67.214  1.00  0.00    -0.240 C  
HETATM    5  C   UNL     1      -8.292  17.534  68.133  1.00  0.00    -0.249 C  
HETATM    6  C   UNL     1      -7.051  19.483  69.133  1.00  0.00    -0.392 C  
HETATM    7  C   UNL     1      -8.029  19.053  68.020  1.00  0.00    -0.322 C  
HETATM    8  C   UNL     1      -7.351  19.391  66.678  1.00  0.00    -0.240 C  
HETATM    9  C   UNL     1      -9.353  19.835  68.208  1.00  0.00    -0.415 C  
ENDROOT
BRANCH   4  10
HETATM   10  O   UNL     1      -9.604  15.637  67.422  1.00  0.00    -0.215 OA 
BRANCH  10  11
HETATM   11  C   UNL     1     -10.730  15.293  68.114  1.00  0.00    -0.257 C  
HETATM   12  O   UNL     1     -10.981  15.624  69.270  1.00  0.00    -0.232 OA 
BRANCH  11  13
HETATM   13  C   UNL     1     -11.666  14.416  67.274  1.00  0.00    -0.404 C  
HETATM   14  O   UNL     1     -11.732  14.888  65.924  1.00  0.00    -0.296 OA 
HETATM   15  H   UNL     1     -12.312  14.345  65.404  1.00  0.00     0.000 HD 
BRANCH  13  16
HETATM   16  C   UNL     1     -11.229  12.967  67.232  1.00  0.00    -0.325 A  
HETATM   17  C   UNL     1     -10.675  12.433  66.058  1.00  0.00    -0.294 A  
HETATM   18  C   UNL     1     -10.231  11.111  66.020  1.00  0.00    -0.300 A  
HETATM   19  C   UNL     1     -10.333  10.307  67.154  1.00  0.00    -0.292 A  
HETATM   20  C   UNL     1     -10.882  10.821  68.326  1.00  0.00    -0.276 A  
HETATM   21  C   UNL     1     -11.329  12.144  68.366  1.00  0.00    -0.336 A  
ENDBRANCH  13  16
ENDBRANCH  11  13
ENDBRANCH  10  11
ENDBRANCH   4  10
TORSDOF 4
ENDMDL
MODEL       94
REMARK 921   NORMALIZED FREE ENERGY PREDICTED BY IDOCK:   -4.78 KCAL/MOL
REMARK 922        TOTAL FREE ENERGY PREDICTED BY IDOCK:   -6.46 KCAL/MOL
REMARK 923 INTER-LIGAND FREE ENERGY PREDICTED BY IDOCK:   -6.08 KCAL/MOL
REMARK 924 INTRA-LIGAND FREE ENERGY PREDICTED BY IDOCK:   -0.37 KCAL/MOL
REMARK 927      BINDING AFFINITY PREDICTED BY RF-SCORE:    0.00 PKD
ROOT
HETATM    1  C   UNL     1      -8.377   5.692  70.616  1.00  0.00    -0.118 C  
HETATM    2  C   UNL     1      -9.863   5.543  70.282  1.00  0.00    -0.260 C  
HETATM    3  C   UNL     1     -10.608   6.878  70.400  1.00  0.00    -0.247 C  
HETATM    4  C   UNL     1     -10.357   7.806  69.205  1.00  0.00    -0.215 C  
HETATM    5  C   UNL     1     -10.766   7.105  67.903  1.00  0.00    -0.258 C  
HETATM    6  C   UNL     1     -10.641   5.035  66.475  1.00  0.00    -0.289 C  
HETATM    7  C   UNL     1     -10.007   5.778  67.670  1.00  0.00    -0.165 C  
HETATM    8  C   UNL     1      -8.537   6.049  67.295  1.00  0.00    -0.106 C  
HETATM    9  C   UNL     1     -10.124   4.873  68.922  1.00  0.00    -0.185 C  
ENDROOT
BRANCH   4  10
HETATM   10  O   UNL     1     -11.143   9.007  69.339  1.00  0.00    -0.132 OA 
BRANCH  10  11
HETATM   11  C   UNL     1     -10.422  10.165  69.420  1.00  0.00    -0.233 C  
HETATM   12  O   UNL     1      -9.265  10.252  69.822  1.00  0.00    -0.180 OA 
BRANCH  11  13
HETATM   13  C   UNL     1     -11.240  11.376  68.957  1.00  0.00    -0.256 C  
HETATM   14  O   UNL     1     -12.238  10.984  68.009  1.00  0.00    -0.703 OA 
HETATM   15  H   UNL     1     -12.745  11.734  67.721  1.00  0.00     0.000 HD 
BRANCH  13  16
HETATM   16  C   UNL     1     -11.942  12.080  70.098  1.00  0.00    -0.401 A  
HETATM   17  C   UNL     1     -11.924  13.481  70.177  1.00  0.00    -0.399 A  
HETATM   18  C   UNL     1     -12.602  14.143  71.202  1.00  0.00    -0.439 A  
HETATM   19  C   UNL     1     -13.309  13.415  72.156  1.00  0.00    -0.613 A  
HETATM   20  C   UNL     1     -13.334  12.024  72.093  1.00  0.00    -0.396 A  
HETATM   21  C   UNL     1     -12.655  11.359  71.070  1.00  0.00    -0.487 A  
ENDBRANCH  13  16
ENDBRANCH  11  13
ENDBRANCH  10  11
ENDBRANCH   4  10
TORSDOF 4
ENDMDL
MODEL       95
REMARK 921   NORMALIZED FREE ENERGY PREDICTED BY IDOCK:   -4.78 KCAL/MOL
REMARK 922        TOTAL FREE ENERGY PREDICTED BY IDOCK:   -6.45 KCAL/MOL
REMARK 923 INTER-LIGAND FREE ENERGY PREDICTED BY IDOCK:   -5.73 KCAL/MOL
REMARK 924 INTRA-LIGAND FREE ENERGY PREDICTED BY IDOCK:   -0.73 KCAL/MOL
REMARK 927      BINDING AFFINITY PREDICTED BY RF-SCORE:    0.00 PKD
ROOT
HETATM    1  C   UNL     1      -7.490   8.937  65.988  1.00  0.00    -0.090 C  
HETATM    2  C   UNL     1      -8.969   8.850  65.608  1.00  0.00    -0.249 C  
HETATM    3  C   UNL     1      -9.688   7.731  66.371  1.00  0.00    -0.219 C  
HETATM    4  C   UNL     1     -10.008   8.113  67.822  1.00  0.00    -0.181 C  
HETATM    5  C   UNL     1     -10.865   9.385  67.851  1.00  0.00    -0.215 C  
HETATM    6  C   UNL     1     -11.197  11.742  67.032  1.00  0.00    -0.382 C  
HETATM    7  C   UNL     1     -10.181  10.587  67.160  1.00  0.00    -0.270 C  
HETATM    8  C   UNL     1      -9.013  11.116  68.015  1.00  0.00    -0.149 C  
HETATM    9  C   UNL     1      -9.717  10.188  65.737  1.00  0.00    -0.307 C  
ENDROOT
BRANCH   4  10
HETATM   10  O   UNL     1     -10.748   7.052  68.460  1.00  0.00    -0.208 OA 
BRANCH  10  11
HETATM   11  C   UNL     1     -10.288   6.685  69.693  1.00  0.00    -0.194 C  
HETATM   12  O   UNL     1      -9.107   6.660  70.030  1.00  0.00    -0.150 OA 
BRANCH  11  13
HETATM   13  C   UNL     1     -11.433   6.286  70.629  1.00  0.00    -0.329 C  
HETATM   14  O   UNL     1     -10.938   5.559  71.759  1.00  0.00    -0.240 OA 
HETATM   15  H   UNL     1     -11.648   5.311  72.339  1.00  0.00     0.000 HD 
BRANCH  13  16
HETATM   16  C   UNL     1     -12.203   7.479  71.153  1.00  0.00    -0.330 A  
HETATM   17  C   UNL     1     -13.555   7.343  71.508  1.00  0.00    -0.454 A  
HETATM   18  C   UNL     1     -14.264   8.425  72.031  1.00  0.00    -0.528 A  
HETATM   19  C   UNL     1     -13.633   9.654  72.209  1.00  0.00    -0.449 A  
HETATM   20  C   UNL     1     -12.293   9.806  71.860  1.00  0.00    -0.417 A  
HETATM   21  C   UNL     1     -11.581   8.725  71.334  1.00  0.00    -0.366 A  
ENDBRANCH  13  16
ENDBRANCH  11  13
ENDBRANCH  10  11
ENDBRANCH   4  10
TORSDOF 4
ENDMDL
MODEL       96
REMARK 921   NORMALIZED FREE ENERGY PREDICTED BY IDOCK:   -4.75 KCAL/MOL
REMARK 922        TOTAL FREE ENERGY PREDICTED BY IDOCK:   -6.41 KCAL/MOL
REMARK 923 INTER-LIGAND FREE ENERGY PREDICTED BY IDOCK:   -6.18 KCAL/MOL
REMARK 924 INTRA-LIGAND FREE ENERGY PREDICTED BY IDOCK:   -0.23 KCAL/MOL
REMARK 927      BINDING AFFINITY PREDICTED BY RF-SCORE:    0.00 PKD
ROOT
HETATM    1  C   UNL     1      -7.977  17.020  67.284  1.00  0.00    -0.197 C  
HETATM    2  C   UNL     1      -9.261  16.462  66.668  1.00  0.00    -0.279 C  
HETATM    3  C   UNL     1      -9.080  15.018  66.184  1.00  0.00    -0.237 C  
HETATM    4  C   UNL     1      -9.101  14.001  67.331  1.00  0.00    -0.209 C  
HETATM    5  C   UNL     1     -10.417  14.118  68.110  1.00  0.00    -0.244 C  
HETATM    6  C   UNL     1     -12.083  15.620  69.253  1.00  0.00    -0.263 C  
HETATM    7  C   UNL     1     -10.647  15.530  68.695  1.00  0.00    -0.243 C  
HETATM    8  C   UNL     1      -9.694  15.793  69.877  1.00  0.00    -0.089 C  
HETATM    9  C   UNL     1     -10.491  16.597  67.583  1.00  0.00    -0.320 C  
ENDROOT
BRANCH   4  10
HETATM   10  O   UNL     1      -9.003  12.662  66.805  1.00  0.00    -0.216 OA 
BRANCH  10  11
HETATM   11  C   UNL     1      -9.478  11.680  67.627  1.00  0.00    -0.177 C  
HETATM   12  O   UNL     1      -9.038  11.415  68.743  1.00  0.00    -0.167 OA 
BRANCH  11  13
HETATM   13  C   UNL     1     -10.642  10.917  66.985  1.00  0.00    -0.257 C  
HETATM   14  O   UNL     1     -11.731  10.779  67.904  1.00  0.00    -0.648 OA 
HETATM   15  H   UNL     1     -12.452  10.306  67.507  1.00  0.00     0.000 HD 
BRANCH  13  16
HETATM   16  C   UNL     1     -11.174  11.599  65.743  1.00  0.00    -0.290 A  
HETATM   17  C   UNL     1     -12.152  12.600  65.855  1.00  0.00    -0.459 A  
HETATM   18  C   UNL     1     -12.620  13.265  64.720  1.00  0.00    -0.398 A  
HETATM   19  C   UNL     1     -12.117  12.939  63.462  1.00  0.00    -0.633 A  
HETATM   20  C   UNL     1     -11.149  11.947  63.335  1.00  0.00    -0.463 A  
HETATM   21  C   UNL     1     -10.680  11.279  64.468  1.00  0.00    -0.390 A  
ENDBRANCH  13  16
ENDBRANCH  11  13
ENDBRANCH  10  11
ENDBRANCH   4  10
TORSDOF 4
ENDMDL
MODEL       97
REMARK 921   NORMALIZED FREE ENERGY PREDICTED BY IDOCK:   -4.75 KCAL/MOL
REMARK 922        TOTAL FREE ENERGY PREDICTED BY IDOCK:   -6.41 KCAL/MOL
REMARK 923 INTER-LIGAND FREE ENERGY PREDICTED BY IDOCK:   -5.47 KCAL/MOL
REMARK 924 INTRA-LIGAND FREE ENERGY PREDICTED BY IDOCK:   -0.94 KCAL/MOL
REMARK 927      BINDING AFFINITY PREDICTED BY RF-SCORE:    0.00 PKD
ROOT
HETATM    1  C   UNL     1     -10.982  11.628  68.903  1.00  0.00    -0.282 C  
HETATM    2  C   UNL     1     -11.042  10.134  68.578  1.00  0.00    -0.266 C  
HETATM    3  C   UNL     1     -10.950   9.876  67.070  1.00  0.00    -0.098 C  
HETATM    4  C   UNL     1      -9.521  10.011  66.530  1.00  0.00    -0.175 C  
HETATM    5  C   UNL     1      -8.588   9.046  67.272  1.00  0.00    -0.115 C  
HETATM    6  C   UNL     1      -7.795   8.134  69.480  1.00  0.00    -0.104 C  
HETATM    7  C   UNL     1      -8.567   9.284  68.799  1.00  0.00    -0.131 C  
HETATM    8  C   UNL     1      -7.814  10.585  69.138  1.00  0.00    -0.138 C  
HETATM    9  C   UNL     1     -10.013   9.295  69.355  1.00  0.00    -0.184 C  
ENDROOT
BRANCH   4  10
HETATM   10  O   UNL     1      -9.491   9.682  65.126  1.00  0.00    -0.256 OA 
BRANCH  10  11
HETATM   11  C   UNL     1      -8.720  10.505  64.355  1.00  0.00    -0.177 C  
HETATM   12  O   UNL     1      -7.495  10.582  64.406  1.00  0.00    -0.057 OA 
BRANCH  11  13
HETATM   13  C   UNL     1      -9.571  11.353  63.404  1.00  0.00    -0.329 C  
HETATM   14  O   UNL     1     -10.269  10.526  62.468  1.00  0.00    -0.749 OA 
HETATM   15  H   UNL     1     -10.797  11.051  61.879  1.00  0.00     0.000 HD 
BRANCH  13  16
HETATM   16  C   UNL     1     -10.601  12.192  64.131  1.00  0.00    -0.403 A  
HETATM   17  C   UNL     1     -10.193  13.118  65.105  1.00  0.00    -0.299 A  
HETATM   18  C   UNL     1     -11.129  13.926  65.752  1.00  0.00    -0.294 A  
HETATM   19  C   UNL     1     -12.481  13.822  65.433  1.00  0.00    -0.532 A  
HETATM   20  C   UNL     1     -12.901  12.907  64.471  1.00  0.00    -0.273 A  
HETATM   21  C   UNL     1     -11.968  12.096  63.823  1.00  0.00    -0.607 A  
ENDBRANCH  13  16
ENDBRANCH  11  13
ENDBRANCH  10  11
ENDBRANCH   4  10
TORSDOF 4
ENDMDL
MODEL       98
REMARK 921   NORMALIZED FREE ENERGY PREDICTED BY IDOCK:   -4.75 KCAL/MOL
REMARK 922        TOTAL FREE ENERGY PREDICTED BY IDOCK:   -6.41 KCAL/MOL
REMARK 923 INTER-LIGAND FREE ENERGY PREDICTED BY IDOCK:   -6.02 KCAL/MOL
REMARK 924 INTRA-LIGAND FREE ENERGY PREDICTED BY IDOCK:   -0.39 KCAL/MOL
REMARK 927      BINDING AFFINITY PREDICTED BY RF-SCORE:    0.00 PKD
ROOT
HETATM    1  C   UNL     1     -10.427   7.805  73.036  1.00  0.00    -0.432 C  
HETATM    2  C   UNL     1     -11.378   7.256  71.971  1.00  0.00    -0.295 C  
HETATM    3  C   UNL     1     -11.597   8.260  70.832  1.00  0.00    -0.282 C  
HETATM    4  C   UNL     1     -10.417   8.315  69.855  1.00  0.00    -0.223 C  
HETATM    5  C   UNL     1     -10.159   6.922  69.266  1.00  0.00    -0.178 C  
HETATM    6  C   UNL     1      -9.846   4.461  69.692  1.00  0.00    -0.272 C  
HETATM    7  C   UNL     1      -9.859   5.858  70.347  1.00  0.00    -0.231 C  
HETATM    8  C   UNL     1      -8.461   6.077  70.955  1.00  0.00    -0.124 C  
HETATM    9  C   UNL     1     -10.966   5.876  71.431  1.00  0.00    -0.327 C  
ENDROOT
BRANCH   4  10
HETATM   10  O   UNL     1     -10.716   9.217  68.770  1.00  0.00    -0.217 OA 
BRANCH  10  11
HETATM   11  C   UNL     1     -10.241  10.488  68.926  1.00  0.00    -0.208 C  
HETATM   12  O   UNL     1      -9.056  10.793  69.044  1.00  0.00    -0.179 OA 
BRANCH  11  13
HETATM   13  C   UNL     1     -11.375  11.518  68.951  1.00  0.00    -0.268 C  
HETATM   14  O   UNL     1     -11.169  12.478  69.993  1.00  0.00    -0.487 OA 
HETATM   15  H   UNL     1     -11.872  13.117  70.009  1.00  0.00     0.000 HD 
BRANCH  13  16
HETATM   16  C   UNL     1     -11.505  12.277  67.648  1.00  0.00    -0.401 A  
HETATM   17  C   UNL     1     -11.138  11.667  66.439  1.00  0.00    -0.347 A  
HETATM   18  C   UNL     1     -11.293  12.341  65.227  1.00  0.00    -0.384 A  
HETATM   19  C   UNL     1     -11.818  13.631  65.208  1.00  0.00    -0.365 A  
HETATM   20  C   UNL     1     -12.185  14.252  66.399  1.00  0.00    -0.426 A  
HETATM   21  C   UNL     1     -12.030  13.580  67.613  1.00  0.00    -0.373 A  
ENDBRANCH  13  16
ENDBRANCH  11  13
ENDBRANCH  10  11
ENDBRANCH   4  10
TORSDOF 4
ENDMDL
MODEL       99
REMARK 921   NORMALIZED FREE ENERGY PREDICTED BY IDOCK:   -4.72 KCAL/MOL
REMARK 922        TOTAL FREE ENERGY PREDICTED BY IDOCK:   -6.38 KCAL/MOL
REMARK 923 INTER-LIGAND FREE ENERGY PREDICTED BY IDOCK:   -6.15 KCAL/MOL
REMARK 924 INTRA-LIGAND FREE ENERGY PREDICTED BY IDOCK:   -0.23 KCAL/MOL
REMARK 927      BINDING AFFINITY PREDICTED BY RF-SCORE:    0.00 PKD
ROOT
HETATM    1  C   UNL     1      -5.846  16.873  69.228  1.00  0.00    -0.171 C  
HETATM    2  C   UNL     1      -5.700  17.392  67.796  1.00  0.00    -0.140 C  
HETATM    3  C   UNL     1      -6.625  16.649  66.825  1.00  0.00    -0.217 C  
HETATM    4  C   UNL     1      -8.084  17.112  66.923  1.00  0.00    -0.216 C  
HETATM    5  C   UNL     1      -8.173  18.620  66.661  1.00  0.00    -0.289 C  
HETATM    6  C   UNL     1      -7.285  20.921  67.168  1.00  0.00    -0.395 C  
HETATM    7  C   UNL     1      -7.321  19.454  67.645  1.00  0.00    -0.277 C  
HETATM    8  C   UNL     1      -7.957  19.459  69.049  1.00  0.00    -0.301 C  
HETATM    9  C   UNL     1      -5.868  18.917  67.675  1.00  0.00    -0.187 C  
ENDROOT
BRANCH   4  10
HETATM   10  O   UNL     1      -8.885  16.431  65.936  1.00  0.00    -0.432 OA 
BRANCH  10  11
HETATM   11  C   UNL     1      -9.944  15.726  66.434  1.00  0.00    -0.277 C  
HETATM   12  O   UNL     1     -10.977  16.220  66.879  1.00  0.00    -0.213 OA 
BRANCH  11  13
HETATM   13  C   UNL     1      -9.692  14.216  66.387  1.00  0.00    -0.298 C  
HETATM   14  O   UNL     1      -9.859  13.630  67.683  1.00  0.00    -0.219 OA 
HETATM   15  H   UNL     1      -9.702  12.694  67.654  1.00  0.00     0.000 HD 
BRANCH  13  16
HETATM   16  C   UNL     1     -10.623  13.496  65.435  1.00  0.00    -0.313 A  
HETATM   17  C   UNL     1     -12.010  13.530  65.647  1.00  0.00    -0.429 A  
HETATM   18  C   UNL     1     -12.881  12.905  64.753  1.00  0.00    -0.359 A  
HETATM   19  C   UNL     1     -12.377  12.241  63.637  1.00  0.00    -0.664 A  
HETATM   20  C   UNL     1     -11.004  12.196  63.413  1.00  0.00    -0.480 A  
HETATM   21  C   UNL     1     -10.130  12.819  64.307  1.00  0.00    -0.277 A  
ENDBRANCH  13  16
ENDBRANCH  11  13
ENDBRANCH  10  11
ENDBRANCH   4  10
TORSDOF 4
ENDMDL
MODEL      100
REMARK 921   NORMALIZED FREE ENERGY PREDICTED BY IDOCK:   -4.72 KCAL/MOL
REMARK 922        TOTAL FREE ENERGY PREDICTED BY IDOCK:   -6.38 KCAL/MOL
REMARK 923 INTER-LIGAND FREE ENERGY PREDICTED BY IDOCK:   -6.00 KCAL/MOL
REMARK 924 INTRA-LIGAND FREE ENERGY PREDICTED BY IDOCK:   -0.39 KCAL/MOL
REMARK 927      BINDING AFFINITY PREDICTED BY RF-SCORE:    0.00 PKD
ROOT
HETATM    1  C   UNL     1     -12.427  14.566  64.111  1.00  0.00    -0.215 C  
HETATM    2  C   UNL     1     -12.461  13.665  65.348  1.00  0.00    -0.537 C  
HETATM    3  C   UNL     1     -11.788  12.313  65.087  1.00  0.00    -0.404 C  
HETATM    4  C   UNL     1     -10.257  12.399  65.101  1.00  0.00    -0.281 C  
HETATM    5  C   UNL     1      -9.777  12.958  66.447  1.00  0.00    -0.263 C  
HETATM    6  C   UNL     1     -10.013  14.734  68.216  1.00  0.00    -0.222 C  
HETATM    7  C   UNL     1     -10.356  14.357  66.759  1.00  0.00    -0.273 C  
HETATM    8  C   UNL     1      -9.710  15.428  65.859  1.00  0.00    -0.392 C  
HETATM    9  C   UNL     1     -11.898  14.337  66.613  1.00  0.00    -0.442 C  
ENDROOT
BRANCH   4  10
HETATM   10  O   UNL     1      -9.687  11.086  64.926  1.00  0.00    -0.222 OA 
BRANCH  10  11
HETATM   11  C   UNL     1      -9.248  10.487  66.073  1.00  0.00    -0.176 C  
HETATM   12  O   UNL     1      -8.181  10.727  66.633  1.00  0.00    -0.129 OA 
BRANCH  11  13
HETATM   13  C   UNL     1     -10.249   9.449  66.590  1.00  0.00    -0.249 C  
HETATM   14  O   UNL     1      -9.707   8.128  66.499  1.00  0.00    -0.222 OA 
HETATM   15  H   UNL     1     -10.328   7.484  66.819  1.00  0.00     0.000 HD 
BRANCH  13  16
HETATM   16  C   UNL     1     -10.644   9.685  68.032  1.00  0.00    -0.292 A  
HETATM   17  C   UNL     1     -10.164   8.833  69.040  1.00  0.00    -0.218 A  
HETATM   18  C   UNL     1     -10.487   9.064  70.378  1.00  0.00    -0.254 A  
HETATM   19  C   UNL     1     -11.290  10.149  70.726  1.00  0.00    -0.436 A  
HETATM   20  C   UNL     1     -11.775  11.001  69.737  1.00  0.00    -0.410 A  
HETATM   21  C   UNL     1     -11.455  10.771  68.398  1.00  0.00    -0.358 A  
ENDBRANCH  13  16
ENDBRANCH  11  13
ENDBRANCH  10  11
ENDBRANCH   4  10
TORSDOF 4
ENDMDL
MODEL      101
REMARK 921   NORMALIZED FREE ENERGY PREDICTED BY IDOCK:   -4.70 KCAL/MOL
REMARK 922        TOTAL FREE ENERGY PREDICTED BY IDOCK:   -6.35 KCAL/MOL
REMARK 923 INTER-LIGAND FREE ENERGY PREDICTED BY IDOCK:   -5.80 KCAL/MOL
REMARK 924 INTRA-LIGAND FREE ENERGY PREDICTED BY IDOCK:   -0.55 KCAL/MOL
REMARK 927      BINDING AFFINITY PREDICTED BY RF-SCORE:    0.00 PKD
ROOT
HETATM    1  C   UNL     1      -7.987   7.219  66.407  1.00  0.00    -0.112 C  
HETATM    2  C   UNL     1      -7.754   7.320  67.916  1.00  0.00    -0.113 C  
HETATM    3  C   UNL     1      -7.883   8.763  68.417  1.00  0.00    -0.104 C  
HETATM    4  C   UNL     1      -9.342   9.221  68.537  1.00  0.00    -0.142 C  
HETATM    5  C   UNL     1     -10.109   8.282  69.477  1.00  0.00    -0.197 C  
HETATM    6  C   UNL     1     -10.674   5.914  70.118  1.00  0.00    -0.389 C  
HETATM    7  C   UNL     1     -10.088   6.810  69.007  1.00  0.00    -0.172 C  
HETATM    8  C   UNL     1     -10.983   6.621  67.766  1.00  0.00    -0.367 C  
HETATM    9  C   UNL     1      -8.631   6.359  68.738  1.00  0.00    -0.123 C  
ENDROOT
BRANCH   4  10
HETATM   10  O   UNL     1      -9.397  10.554  69.084  1.00  0.00    -0.194 OA 
BRANCH  10  11
HETATM   11  C   UNL     1      -9.888  11.507  68.237  1.00  0.00    -0.203 C  
HETATM   12  O   UNL     1      -9.464  12.656  68.140  1.00  0.00    -0.210 OA 
BRANCH  11  13
HETATM   13  C   UNL     1     -11.064  10.978  67.409  1.00  0.00    -0.305 C  
HETATM   14  O   UNL     1     -12.290  11.078  68.141  1.00  0.00    -0.640 OA 
HETATM   15  H   UNL     1     -13.019  10.750  67.629  1.00  0.00     0.000 HD 
BRANCH  13  16
HETATM   16  C   UNL     1     -11.246  11.727  66.106  1.00  0.00    -0.363 A  
HETATM   17  C   UNL     1     -10.484  11.375  64.981  1.00  0.00    -0.361 A  
HETATM   18  C   UNL     1     -10.672  12.030  63.763  1.00  0.00    -0.478 A  
HETATM   19  C   UNL     1     -11.625  13.041  63.653  1.00  0.00    -0.507 A  
HETATM   20  C   UNL     1     -12.387  13.403  64.761  1.00  0.00    -0.444 A  
HETATM   21  C   UNL     1     -12.200  12.750  65.981  1.00  0.00    -0.380 A  
ENDBRANCH  13  16
ENDBRANCH  11  13
ENDBRANCH  10  11
ENDBRANCH   4  10
TORSDOF 4
ENDMDL
MODEL      102
REMARK 921   NORMALIZED FREE ENERGY PREDICTED BY IDOCK:   -4.69 KCAL/MOL
REMARK 922        TOTAL FREE ENERGY PREDICTED BY IDOCK:   -6.34 KCAL/MOL
REMARK 923 INTER-LIGAND FREE ENERGY PREDICTED BY IDOCK:   -5.42 KCAL/MOL
REMARK 924 INTRA-LIGAND FREE ENERGY PREDICTED BY IDOCK:   -0.92 KCAL/MOL
REMARK 927      BINDING AFFINITY PREDICTED BY RF-SCORE:    0.00 PKD
ROOT
HETATM    1  C   UNL     1      -9.594   5.399  68.272  1.00  0.00    -0.158 C  
HETATM    2  C   UNL     1     -10.807   6.324  68.152  1.00  0.00    -0.401 C  
HETATM    3  C   UNL     1     -11.164   6.972  69.495  1.00  0.00    -0.185 C  
HETATM    4  C   UNL     1     -10.226   8.129  69.862  1.00  0.00    -0.204 C  
HETATM    5  C   UNL     1     -10.250   9.193  68.758  1.00  0.00    -0.228 C  
HETATM    6  C   UNL     1     -10.109   9.705  66.297  1.00  0.00    -0.322 C  
HETATM    7  C   UNL     1      -9.834   8.637  67.377  1.00  0.00    -0.249 C  
HETATM    8  C   UNL     1      -8.321   8.347  67.339  1.00  0.00    -0.124 C  
HETATM    9  C   UNL     1     -10.669   7.377  67.039  1.00  0.00    -0.389 C  
ENDROOT
BRANCH   4  10
HETATM   10  O   UNL     1     -10.660   8.743  71.094  1.00  0.00    -0.209 OA 
BRANCH  10  11
HETATM   11  C   UNL     1      -9.886   8.463  72.184  1.00  0.00    -0.302 C  
HETATM   12  O   UNL     1      -8.761   8.912  72.390  1.00  0.00    -0.400 OA 
BRANCH  11  13
HETATM   13  C   UNL     1     -10.587   7.493  73.142  1.00  0.00    -0.388 C  
HETATM   14  O   UNL     1     -12.007   7.663  73.092  1.00  0.00    -0.596 OA 
HETATM   15  H   UNL     1     -12.441   7.063  73.686  1.00  0.00     0.000 HD 
BRANCH  13  16
HETATM   16  C   UNL     1     -10.287   6.043  72.829  1.00  0.00    -0.223 A  
HETATM   17  C   UNL     1      -9.072   5.691  72.221  1.00  0.00    -0.144 A  
HETATM   18  C   UNL     1      -8.767   4.353  71.965  1.00  0.00    -0.125 A  
HETATM   19  C   UNL     1      -9.670   3.352  72.316  1.00  0.00    -0.221 A  
HETATM   20  C   UNL     1     -10.880   3.685  72.919  1.00  0.00    -0.146 A  
HETATM   21  C   UNL     1     -11.189   5.022  73.174  1.00  0.00    -0.408 A  
ENDBRANCH  13  16
ENDBRANCH  11  13
ENDBRANCH  10  11
ENDBRANCH   4  10
TORSDOF 4
ENDMDL
MODEL      103
REMARK 921   NORMALIZED FREE ENERGY PREDICTED BY IDOCK:   -4.69 KCAL/MOL
REMARK 922        TOTAL FREE ENERGY PREDICTED BY IDOCK:   -6.34 KCAL/MOL
REMARK 923 INTER-LIGAND FREE ENERGY PREDICTED BY IDOCK:   -5.96 KCAL/MOL
REMARK 924 INTRA-LIGAND FREE ENERGY PREDICTED BY IDOCK:   -0.38 KCAL/MOL
REMARK 927      BINDING AFFINITY PREDICTED BY RF-SCORE:    0.00 PKD
ROOT
HETATM    1  C   UNL     1     -10.928   6.529  66.988  1.00  0.00    -0.466 C  
HETATM    2  C   UNL     1      -9.720   7.398  66.631  1.00  0.00    -0.262 C  
HETATM    3  C   UNL     1     -10.121   8.858  66.389  1.00  0.00    -0.333 C  
HETATM    4  C   UNL     1     -10.381   9.626  67.691  1.00  0.00    -0.237 C  
HETATM    5  C   UNL     1      -9.135   9.578  68.585  1.00  0.00    -0.132 C  
HETATM    6  C   UNL     1      -7.323   8.178  69.632  1.00  0.00    -0.073 C  
HETATM    7  C   UNL     1      -8.700   8.137  68.936  1.00  0.00    -0.137 C  
HETATM    8  C   UNL     1      -9.684   7.499  69.936  1.00  0.00    -0.171 C  
HETATM    9  C   UNL     1      -8.567   7.293  67.644  1.00  0.00    -0.126 C  
ENDROOT
BRANCH   4  10
HETATM   10  O   UNL     1     -10.678  11.007  67.400  1.00  0.00    -0.224 OA 
BRANCH  10  11
HETATM   11  C   UNL     1     -11.596  11.589  68.226  1.00  0.00    -0.308 C  
HETATM   12  O   UNL     1     -12.534  11.007  68.766  1.00  0.00    -0.468 OA 
BRANCH  11  13
HETATM   13  C   UNL     1     -11.331  13.088  68.403  1.00  0.00    -0.291 C  
HETATM   14  O   UNL     1     -10.024  13.314  68.943  1.00  0.00    -0.420 OA 
HETATM   15  H   UNL     1      -9.859  14.243  69.052  1.00  0.00     0.000 HD 
BRANCH  13  16
HETATM   16  C   UNL     1     -11.429  13.857  67.103  1.00  0.00    -0.370 A  
HETATM   17  C   UNL     1     -10.677  15.027  66.919  1.00  0.00    -0.308 A  
HETATM   18  C   UNL     1     -10.727  15.722  65.710  1.00  0.00    -0.337 A  
HETATM   19  C   UNL     1     -11.527  15.255  64.669  1.00  0.00    -0.356 A  
HETATM   20  C   UNL     1     -12.281  14.097  64.836  1.00  0.00    -0.451 A  
HETATM   21  C   UNL     1     -12.234  13.400  66.046  1.00  0.00    -0.491 A  
ENDBRANCH  13  16
ENDBRANCH  11  13
ENDBRANCH  10  11
ENDBRANCH   4  10
TORSDOF 4
ENDMDL
MODEL      104
REMARK 921   NORMALIZED FREE ENERGY PREDICTED BY IDOCK:   -4.67 KCAL/MOL
REMARK 922        TOTAL FREE ENERGY PREDICTED BY IDOCK:   -6.32 KCAL/MOL
REMARK 923 INTER-LIGAND FREE ENERGY PREDICTED BY IDOCK:   -5.46 KCAL/MOL
REMARK 924 INTRA-LIGAND FREE ENERGY PREDICTED BY IDOCK:   -0.86 KCAL/MOL
REMARK 927      BINDING AFFINITY PREDICTED BY RF-SCORE:    0.00 PKD
ROOT
HETATM    1  C   UNL     1      -8.252   7.616  68.117  1.00  0.00    -0.124 C  
HETATM    2  C   UNL     1      -7.875   6.464  69.051  1.00  0.00    -0.110 C  
HETATM    3  C   UNL     1      -8.643   6.532  70.377  1.00  0.00    -0.146 C  
HETATM    4  C   UNL     1     -10.093   6.051  70.248  1.00  0.00    -0.194 C  
HETATM    5  C   UNL     1     -10.122   4.613  69.713  1.00  0.00    -0.243 C  
HETATM    6  C   UNL     1      -9.298   2.969  67.994  1.00  0.00    -0.255 C  
HETATM    7  C   UNL     1      -9.427   4.468  68.340  1.00  0.00    -0.209 C  
HETATM    8  C   UNL     1     -10.278   5.109  67.227  1.00  0.00    -0.239 C  
HETATM    9  C   UNL     1      -8.004   5.076  68.399  1.00  0.00    -0.086 C  
ENDROOT
BRANCH   4  10
HETATM   10  O   UNL     1     -10.736   6.068  71.539  1.00  0.00    -0.237 OA 
BRANCH  10  11
HETATM   11  C   UNL     1     -11.869   6.827  71.612  1.00  0.00    -0.326 C  
HETATM   12  O   UNL     1     -12.953   6.532  71.115  1.00  0.00    -0.059 OA 
BRANCH  11  13
HETATM   13  C   UNL     1     -11.633   8.125  72.391  1.00  0.00    -0.399 C  
HETATM   14  O   UNL     1     -10.347   8.116  73.020  1.00  0.00    -0.321 OA 
HETATM   15  H   UNL     1     -10.200   8.921  73.503  1.00  0.00     0.000 HD 
BRANCH  13  16
HETATM   16  C   UNL     1     -11.704   9.356  71.512  1.00  0.00    -0.465 A  
HETATM   17  C   UNL     1     -12.675  10.339  71.757  1.00  0.00    -0.535 A  
HETATM   18  C   UNL     1     -12.725  11.498  70.980  1.00  0.00    -0.426 A  
HETATM   19  C   UNL     1     -11.805  11.689  69.951  1.00  0.00    -0.434 A  
HETATM   20  C   UNL     1     -10.837  10.722  69.695  1.00  0.00    -0.294 A  
HETATM   21  C   UNL     1     -10.786   9.561  70.469  1.00  0.00    -0.359 A  
ENDBRANCH  13  16
ENDBRANCH  11  13
ENDBRANCH  10  11
ENDBRANCH   4  10
TORSDOF 4
ENDMDL
MODEL      105
REMARK 921   NORMALIZED FREE ENERGY PREDICTED BY IDOCK:   -4.64 KCAL/MOL
REMARK 922        TOTAL FREE ENERGY PREDICTED BY IDOCK:   -6.27 KCAL/MOL
REMARK 923 INTER-LIGAND FREE ENERGY PREDICTED BY IDOCK:   -6.63 KCAL/MOL
REMARK 924 INTRA-LIGAND FREE ENERGY PREDICTED BY IDOCK:    0.36 KCAL/MOL
REMARK 927      BINDING AFFINITY PREDICTED BY RF-SCORE:    0.00 PKD
ROOT
HETATM    1  C   UNL     1     -13.525  15.298  71.275  1.00  0.00    -0.591 C  
HETATM    2  C   UNL     1     -12.245  14.500  71.533  1.00  0.00    -0.415 C  
HETATM    3  C   UNL     1     -12.333  13.082  70.956  1.00  0.00    -0.335 C  
HETATM    4  C   UNL     1     -12.135  13.047  69.435  1.00  0.00    -0.212 C  
HETATM    5  C   UNL     1     -10.780  13.666  69.069  1.00  0.00    -0.194 C  
HETATM    6  C   UNL     1      -9.175  15.585  69.353  1.00  0.00    -0.280 C  
HETATM    7  C   UNL     1     -10.635  15.127  69.555  1.00  0.00    -0.277 C  
HETATM    8  C   UNL     1     -11.517  16.072  68.716  1.00  0.00    -0.375 C  
HETATM    9  C   UNL     1     -10.968  15.219  71.065  1.00  0.00    -0.274 C  
ENDROOT
BRANCH   4  10
HETATM   10  O   UNL     1     -12.152  11.683  68.967  1.00  0.00    -0.313 OA 
BRANCH  10  11
HETATM   11  C   UNL     1     -12.154  10.734  69.949  1.00  0.00    -0.337 C  
HETATM   12  O   UNL     1     -13.007  10.622  70.825  1.00  0.00    -0.364 OA 
BRANCH  11  13
HETATM   13  C   UNL     1     -10.939   9.806  69.843  1.00  0.00    -0.264 C  
HETATM   14  O   UNL     1      -9.722  10.536  70.032  1.00  0.00    -0.400 OA 
HETATM   15  H   UNL     1      -8.969   9.962  69.967  1.00  0.00     0.000 HD 
BRANCH  13  16
HETATM   16  C   UNL     1     -10.966   8.687  70.861  1.00  0.00    -0.301 A  
HETATM   17  C   UNL     1     -11.558   7.456  70.538  1.00  0.00    -0.256 A  
HETATM   18  C   UNL     1     -11.552   6.403  71.454  1.00  0.00    -0.368 A  
HETATM   19  C   UNL     1     -10.954   6.565  72.701  1.00  0.00    -0.287 A  
HETATM   20  C   UNL     1     -10.364   7.781  73.038  1.00  0.00    -0.410 A  
HETATM   21  C   UNL     1     -10.370   8.837  72.124  1.00  0.00    -0.378 A  
ENDBRANCH  13  16
ENDBRANCH  11  13
ENDBRANCH  10  11
ENDBRANCH   4  10
TORSDOF 4
ENDMDL
MODEL      106
REMARK 921   NORMALIZED FREE ENERGY PREDICTED BY IDOCK:   -4.63 KCAL/MOL
REMARK 922        TOTAL FREE ENERGY PREDICTED BY IDOCK:   -6.27 KCAL/MOL
REMARK 923 INTER-LIGAND FREE ENERGY PREDICTED BY IDOCK:   -6.02 KCAL/MOL
REMARK 924 INTRA-LIGAND FREE ENERGY PREDICTED BY IDOCK:   -0.25 KCAL/MOL
REMARK 927      BINDING AFFINITY PREDICTED BY RF-SCORE:    0.00 PKD
ROOT
HETATM    1  C   UNL     1     -10.872   7.943  67.228  1.00  0.00    -0.189 C  
HETATM    2  C   UNL     1      -9.585   8.769  67.178  1.00  0.00    -0.228 C  
HETATM    3  C   UNL     1      -9.864  10.268  67.344  1.00  0.00    -0.214 C  
HETATM    4  C   UNL     1     -10.146  10.661  68.800  1.00  0.00    -0.191 C  
HETATM    5  C   UNL     1      -8.962  10.259  69.689  1.00  0.00    -0.140 C  
HETATM    6  C   UNL     1      -7.323   8.471  70.364  1.00  0.00    -0.054 C  
HETATM    7  C   UNL     1      -8.655   8.744  69.634  1.00  0.00    -0.130 C  
HETATM    8  C   UNL     1      -9.741   7.940  70.375  1.00  0.00    -0.179 C  
HETATM    9  C   UNL     1      -8.505   8.287  68.162  1.00  0.00    -0.132 C  
ENDROOT
BRANCH   4  10
HETATM   10  O   UNL     1     -10.324  12.088  68.900  1.00  0.00    -0.188 OA 
BRANCH  10  11
HETATM   11  C   UNL     1     -11.435  12.487  69.587  1.00  0.00    -0.185 C  
HETATM   12  O   UNL     1     -12.170  11.747  70.236  1.00  0.00    -0.324 OA 
BRANCH  11  13
HETATM   13  C   UNL     1     -11.678  13.993  69.448  1.00  0.00    -0.315 C  
HETATM   14  O   UNL     1     -12.600  14.265  68.387  1.00  0.00    -0.490 OA 
HETATM   15  H   UNL     1     -12.751  15.199  68.301  1.00  0.00     0.000 HD 
BRANCH  13  16
HETATM   16  C   UNL     1     -12.235  14.616  70.711  1.00  0.00    -0.394 A  
HETATM   17  C   UNL     1     -11.398  15.362  71.555  1.00  0.00    -0.461 A  
HETATM   18  C   UNL     1     -11.909  15.975  72.700  1.00  0.00    -0.611 A  
HETATM   19  C   UNL     1     -13.261  15.853  73.014  1.00  0.00    -0.648 A  
HETATM   20  C   UNL     1     -14.103  15.114  72.187  1.00  0.00    -0.654 A  
HETATM   21  C   UNL     1     -13.595  14.498  71.042  1.00  0.00    -0.294 A  
ENDBRANCH  13  16
ENDBRANCH  11  13
ENDBRANCH  10  11
ENDBRANCH   4  10
TORSDOF 4
ENDMDL
MODEL      107
REMARK 921   NORMALIZED FREE ENERGY PREDICTED BY IDOCK:   -4.60 KCAL/MOL
REMARK 922        TOTAL FREE ENERGY PREDICTED BY IDOCK:   -6.23 KCAL/MOL
REMARK 923 INTER-LIGAND FREE ENERGY PREDICTED BY IDOCK:   -5.44 KCAL/MOL
REMARK 924 INTRA-LIGAND FREE ENERGY PREDICTED BY IDOCK:   -0.79 KCAL/MOL
REMARK 927      BINDING AFFINITY PREDICTED BY RF-SCORE:    0.00 PKD
ROOT
HETATM    1  C   UNL     1      -9.443   5.412  70.201  1.00  0.00    -0.213 C  
HETATM    2  C   UNL     1      -9.804   5.174  68.733  1.00  0.00    -0.235 C  
HETATM    3  C   UNL     1     -10.692   6.293  68.177  1.00  0.00    -0.364 C  
HETATM    4  C   UNL     1      -9.907   7.569  67.854  1.00  0.00    -0.154 C  
HETATM    5  C   UNL     1      -8.790   7.257  66.850  1.00  0.00    -0.138 C  
HETATM    6  C   UNL     1      -6.863   5.768  66.212  1.00  0.00    -0.058 C  
HETATM    7  C   UNL     1      -7.803   6.183  67.363  1.00  0.00    -0.098 C  
HETATM    8  C   UNL     1      -6.909   6.754  68.482  1.00  0.00    -0.074 C  
HETATM    9  C   UNL     1      -8.581   4.929  67.832  1.00  0.00    -0.103 C  
ENDROOT
BRANCH   4  10
HETATM   10  O   UNL     1     -10.783   8.553  67.265  1.00  0.00    -0.279 OA 
BRANCH  10  11
HETATM   11  C   UNL     1     -10.615   9.828  67.726  1.00  0.00    -0.266 C  
HETATM   12  O   UNL     1     -10.834  10.849  67.080  1.00  0.00    -0.261 OA 
BRANCH  11  13
HETATM   13  C   UNL     1     -10.099   9.846  69.169  1.00  0.00    -0.200 C  
HETATM   14  O   UNL     1      -9.270  10.989  69.400  1.00  0.00    -0.399 OA 
HETATM   15  H   UNL     1      -8.950  11.001  70.294  1.00  0.00     0.000 HD 
BRANCH  13  16
HETATM   16  C   UNL     1     -11.217   9.877  70.190  1.00  0.00    -0.347 A  
HETATM   17  C   UNL     1     -11.517   8.728  70.938  1.00  0.00    -0.330 A  
HETATM   18  C   UNL     1     -12.517   8.756  71.912  1.00  0.00    -0.434 A  
HETATM   19  C   UNL     1     -13.227   9.930  72.150  1.00  0.00    -0.511 A  
HETATM   20  C   UNL     1     -12.942  11.078  71.414  1.00  0.00    -0.517 A  
HETATM   21  C   UNL     1     -11.944  11.052  70.439  1.00  0.00    -0.459 A  
ENDBRANCH  13  16
ENDBRANCH  11  13
ENDBRANCH  10  11
ENDBRANCH   4  10
TORSDOF 4
ENDMDL
MODEL      108
REMARK 921   NORMALIZED FREE ENERGY PREDICTED BY IDOCK:   -4.60 KCAL/MOL
REMARK 922        TOTAL FREE ENERGY PREDICTED BY IDOCK:   -6.23 KCAL/MOL
REMARK 923 INTER-LIGAND FREE ENERGY PREDICTED BY IDOCK:   -5.79 KCAL/MOL
REMARK 924 INTRA-LIGAND FREE ENERGY PREDICTED BY IDOCK:   -0.44 KCAL/MOL
REMARK 927      BINDING AFFINITY PREDICTED BY RF-SCORE:    0.00 PKD
ROOT
HETATM    1  C   UNL     1     -12.410  13.569  68.335  1.00  0.00     0.057 C  
HETATM    2  C   UNL     1     -11.417  13.635  69.498  1.00  0.00    -0.324 C  
HETATM    3  C   UNL     1     -10.472  14.836  69.371  1.00  0.00    -0.210 C  
HETATM    4  C   UNL     1     -11.138  16.160  69.768  1.00  0.00    -0.350 C  
HETATM    5  C   UNL     1     -11.663  16.071  71.207  1.00  0.00    -0.516 C  
HETATM    6  C   UNL     1     -12.972  14.763  72.913  1.00  0.00    -0.583 C  
HETATM    7  C   UNL     1     -12.680  14.924  71.407  1.00  0.00    -0.408 C  
HETATM    8  C   UNL     1     -14.022  15.260  70.728  1.00  0.00    -0.090 C  
HETATM    9  C   UNL     1     -12.087  13.592  70.882  1.00  0.00    -0.330 C  
ENDROOT
BRANCH   4  10
HETATM   10  O   UNL     1     -10.179  17.235  69.700  1.00  0.00    -0.121 OA 
BRANCH  10  11
HETATM   11  C   UNL     1      -9.758  17.557  68.441  1.00  0.00    -0.316 C  
HETATM   12  O   UNL     1     -10.491  17.889  67.513  1.00  0.00    -0.368 OA 
BRANCH  11  13
HETATM   13  C   UNL     1      -8.236  17.446  68.306  1.00  0.00    -0.247 C  
HETATM   14  O   UNL     1      -7.870  16.226  67.652  1.00  0.00    -0.137 OA 
HETATM   15  H   UNL     1      -6.927  16.157  67.568  1.00  0.00     0.000 HD 
BRANCH  13  16
HETATM   16  C   UNL     1      -7.633  18.588  67.516  1.00  0.00    -0.234 A  
HETATM   17  C   UNL     1      -7.161  18.370  66.212  1.00  0.00    -0.291 A  
HETATM   18  C   UNL     1      -6.642  19.424  65.459  1.00  0.00    -0.297 A  
HETATM   19  C   UNL     1      -6.590  20.708  65.998  1.00  0.00    -0.263 A  
HETATM   20  C   UNL     1      -7.052  20.940  67.290  1.00  0.00    -0.430 A  
HETATM   21  C   UNL     1      -7.571  19.887  68.047  1.00  0.00    -0.332 A  
ENDBRANCH  13  16
ENDBRANCH  11  13
ENDBRANCH  10  11
ENDBRANCH   4  10
TORSDOF 4
ENDMDL
MODEL      109
REMARK 921   NORMALIZED FREE ENERGY PREDICTED BY IDOCK:   -4.60 KCAL/MOL
REMARK 922        TOTAL FREE ENERGY PREDICTED BY IDOCK:   -6.23 KCAL/MOL
REMARK 923 INTER-LIGAND FREE ENERGY PREDICTED BY IDOCK:   -5.70 KCAL/MOL
REMARK 924 INTRA-LIGAND FREE ENERGY PREDICTED BY IDOCK:   -0.53 KCAL/MOL
REMARK 927      BINDING AFFINITY PREDICTED BY RF-SCORE:    0.00 PKD
ROOT
HETATM    1  C   UNL     1      -5.572  16.609  66.956  1.00  0.00    -0.149 C  
HETATM    2  C   UNL     1      -6.760  17.146  66.154  1.00  0.00    -0.128 C  
HETATM    3  C   UNL     1      -8.065  16.431  66.523  1.00  0.00    -0.345 C  
HETATM    4  C   UNL     1      -8.651  16.913  67.856  1.00  0.00    -0.208 C  
HETATM    5  C   UNL     1      -8.895  18.427  67.803  1.00  0.00    -0.289 C  
HETATM    6  C   UNL     1      -7.988  20.706  67.239  1.00  0.00    -0.327 C  
HETATM    7  C   UNL     1      -7.611  19.233  67.504  1.00  0.00    -0.265 C  
HETATM    8  C   UNL     1      -6.667  19.228  68.722  1.00  0.00    -0.338 C  
HETATM    9  C   UNL     1      -6.916  18.675  66.237  1.00  0.00    -0.267 C  
ENDROOT
BRANCH   4  10
HETATM   10  O   UNL     1      -9.911  16.259  68.106  1.00  0.00    -0.232 OA 
BRANCH  10  11
HETATM   11  C   UNL     1      -9.953  15.497  69.239  1.00  0.00    -0.264 C  
HETATM   12  O   UNL     1      -9.123  15.525  70.144  1.00  0.00     0.056 OA 
BRANCH  11  13
HETATM   13  C   UNL     1     -11.173  14.570  69.254  1.00  0.00    -0.281 C  
HETATM   14  O   UNL     1     -12.384  15.322  69.383  1.00  0.00    -0.548 OA 
HETATM   15  H   UNL     1     -13.141  14.748  69.393  1.00  0.00     0.000 HD 
BRANCH  13  16
HETATM   16  C   UNL     1     -11.286  13.730  68.000  1.00  0.00    -0.318 A  
HETATM   17  C   UNL     1     -10.536  12.551  67.873  1.00  0.00    -0.226 A  
HETATM   18  C   UNL     1     -10.663  11.747  66.739  1.00  0.00    -0.289 A  
HETATM   19  C   UNL     1     -11.541  12.110  65.720  1.00  0.00    -0.414 A  
HETATM   20  C   UNL     1     -12.291  13.278  65.830  1.00  0.00    -0.479 A  
HETATM   21  C   UNL     1     -12.165  14.085  66.963  1.00  0.00    -0.387 A  
ENDBRANCH  13  16
ENDBRANCH  11  13
ENDBRANCH  10  11
ENDBRANCH   4  10
TORSDOF 4
ENDMDL
MODEL      110
REMARK 921   NORMALIZED FREE ENERGY PREDICTED BY IDOCK:   -4.60 KCAL/MOL
REMARK 922        TOTAL FREE ENERGY PREDICTED BY IDOCK:   -6.22 KCAL/MOL
REMARK 923 INTER-LIGAND FREE ENERGY PREDICTED BY IDOCK:   -5.86 KCAL/MOL
REMARK 924 INTRA-LIGAND FREE ENERGY PREDICTED BY IDOCK:   -0.36 KCAL/MOL
REMARK 927      BINDING AFFINITY PREDICTED BY RF-SCORE:    0.00 PKD
ROOT
HETATM    1  C   UNL     1      -9.137  11.307  67.066  1.00  0.00    -0.167 C  
HETATM    2  C   UNL     1     -10.639  11.180  66.801  1.00  0.00    -0.311 C  
HETATM    3  C   UNL     1     -11.463  12.009  67.793  1.00  0.00    -0.394 C  
HETATM    4  C   UNL     1     -11.457  13.507  67.464  1.00  0.00    -0.329 C  
HETATM    5  C   UNL     1     -11.989  13.733  66.043  1.00  0.00    -0.443 C  
HETATM    6  C   UNL     1     -11.905  13.076  63.614  1.00  0.00    -0.580 C  
HETATM    7  C   UNL     1     -11.169  12.984  64.967  1.00  0.00    -0.324 C  
HETATM    8  C   UNL     1      -9.793  13.649  64.771  1.00  0.00     0.017 C  
HETATM    9  C   UNL     1     -11.036  11.489  65.347  1.00  0.00    -0.288 C  
ENDROOT
BRANCH   4  10
HETATM   10  O   UNL     1     -12.309  14.218  68.385  1.00  0.00    -0.222 OA 
BRANCH  10  11
HETATM   11  C   UNL     1     -11.807  14.358  69.648  1.00  0.00    -0.321 C  
HETATM   12  O   UNL     1     -11.580  13.435  70.427  1.00  0.00    -0.155 OA 
BRANCH  11  13
HETATM   13  C   UNL     1     -11.563  15.829  70.002  1.00  0.00    -0.357 C  
HETATM   14  O   UNL     1     -11.365  15.989  71.411  1.00  0.00    -0.385 OA 
HETATM   15  H   UNL     1     -11.214  16.900  71.630  1.00  0.00     0.000 HD 
BRANCH  13  16
HETATM   16  C   UNL     1     -10.352  16.406  69.301  1.00  0.00    -0.292 A  
HETATM   17  C   UNL     1      -9.115  15.748  69.377  1.00  0.00    -0.254 A  
HETATM   18  C   UNL     1      -8.001  16.248  68.700  1.00  0.00    -0.215 A  
HETATM   19  C   UNL     1      -8.110  17.409  67.938  1.00  0.00    -0.220 A  
HETATM   20  C   UNL     1      -9.330  18.075  67.855  1.00  0.00    -0.264 A  
HETATM   21  C   UNL     1     -10.446  17.578  68.532  1.00  0.00    -0.361 A  
ENDBRANCH  13  16
ENDBRANCH  11  13
ENDBRANCH  10  11
ENDBRANCH   4  10
TORSDOF 4
ENDMDL
MODEL      111
REMARK 921   NORMALIZED FREE ENERGY PREDICTED BY IDOCK:   -4.60 KCAL/MOL
REMARK 922        TOTAL FREE ENERGY PREDICTED BY IDOCK:   -6.22 KCAL/MOL
REMARK 923 INTER-LIGAND FREE ENERGY PREDICTED BY IDOCK:   -5.49 KCAL/MOL
REMARK 924 INTRA-LIGAND FREE ENERGY PREDICTED BY IDOCK:   -0.74 KCAL/MOL
REMARK 927      BINDING AFFINITY PREDICTED BY RF-SCORE:    0.00 PKD
ROOT
HETATM    1  C   UNL     1     -10.823   5.319  66.260  1.00  0.00    -0.181 C  
HETATM    2  C   UNL     1      -9.379   5.758  66.518  1.00  0.00    -0.162 C  
HETATM    3  C   UNL     1      -9.215   7.277  66.386  1.00  0.00    -0.201 C  
HETATM    4  C   UNL     1      -9.743   8.040  67.607  1.00  0.00    -0.158 C  
HETATM    5  C   UNL     1      -9.029   7.556  68.876  1.00  0.00    -0.134 C  
HETATM    6  C   UNL     1      -8.271   5.605  70.274  1.00  0.00    -0.104 C  
HETATM    7  C   UNL     1      -9.204   6.041  69.124  1.00  0.00    -0.131 C  
HETATM    8  C   UNL     1     -10.643   5.723  69.575  1.00  0.00    -0.390 C  
HETATM    9  C   UNL     1      -8.811   5.246  67.853  1.00  0.00    -0.105 C  
ENDROOT
BRANCH   4  10
HETATM   10  O   UNL     1      -9.490   9.451  67.454  1.00  0.00    -0.129 OA 
BRANCH  10  11
HETATM   11  C   UNL     1     -10.509  10.269  67.853  1.00  0.00    -0.212 C  
HETATM   12  O   UNL     1     -11.521  10.512  67.200  1.00  0.00    -0.311 OA 
BRANCH  11  13
HETATM   13  C   UNL     1     -10.241  10.876  69.235  1.00  0.00    -0.166 C  
HETATM   14  O   UNL     1     -10.237  12.306  69.172  1.00  0.00    -0.426 OA 
HETATM   15  H   UNL     1     -10.071  12.682  70.027  1.00  0.00     0.000 HD 
BRANCH  13  16
HETATM   16  C   UNL     1     -11.270  10.465  70.265  1.00  0.00    -0.395 A  
HETATM   17  C   UNL     1     -12.179  11.410  70.767  1.00  0.00    -0.475 A  
HETATM   18  C   UNL     1     -13.160  11.033  71.686  1.00  0.00    -0.543 A  
HETATM   19  C   UNL     1     -13.246   9.710  72.113  1.00  0.00    -0.535 A  
HETATM   20  C   UNL     1     -12.350   8.761  71.626  1.00  0.00    -0.394 A  
HETATM   21  C   UNL     1     -11.367   9.135  70.708  1.00  0.00    -0.337 A  
ENDBRANCH  13  16
ENDBRANCH  11  13
ENDBRANCH  10  11
ENDBRANCH   4  10
TORSDOF 4
ENDMDL
MODEL      112
REMARK 921   NORMALIZED FREE ENERGY PREDICTED BY IDOCK:   -4.59 KCAL/MOL
REMARK 922        TOTAL FREE ENERGY PREDICTED BY IDOCK:   -6.22 KCAL/MOL
REMARK 923 INTER-LIGAND FREE ENERGY PREDICTED BY IDOCK:   -5.87 KCAL/MOL
REMARK 924 INTRA-LIGAND FREE ENERGY PREDICTED BY IDOCK:   -0.35 KCAL/MOL
REMARK 927      BINDING AFFINITY PREDICTED BY RF-SCORE:    0.00 PKD
ROOT
HETATM    1  C   UNL     1     -11.451   6.675  70.201  1.00  0.00    -0.444 C  
HETATM    2  C   UNL     1     -10.802   5.902  69.051  1.00  0.00    -0.383 C  
HETATM    3  C   UNL     1     -10.863   6.684  67.734  1.00  0.00    -0.372 C  
HETATM    4  C   UNL     1      -9.823   7.808  67.662  1.00  0.00    -0.163 C  
HETATM    5  C   UNL     1      -8.414   7.231  67.849  1.00  0.00    -0.118 C  
HETATM    6  C   UNL     1      -6.889   5.743  69.191  1.00  0.00    -0.062 C  
HETATM    7  C   UNL     1      -8.244   6.482  69.191  1.00  0.00    -0.116 C  
HETATM    8  C   UNL     1      -8.209   7.474  70.369  1.00  0.00    -0.123 C  
HETATM    9  C   UNL     1      -9.370   5.431  69.358  1.00  0.00    -0.164 C  
ENDROOT
BRANCH   4  10
HETATM   10  O   UNL     1      -9.881   8.453  66.373  1.00  0.00    -0.253 OA 
BRANCH  10  11
HETATM   11  C   UNL     1     -10.284   9.758  66.397  1.00  0.00    -0.217 C  
HETATM   12  O   UNL     1     -11.031  10.255  67.236  1.00  0.00    -0.275 OA 
BRANCH  11  13
HETATM   13  C   UNL     1      -9.697  10.553  65.225  1.00  0.00    -0.270 C  
HETATM   14  O   UNL     1      -9.631   9.747  64.044  1.00  0.00    -0.396 OA 
HETATM   15  H   UNL     1      -9.267  10.240  63.318  1.00  0.00     0.000 HD 
BRANCH  13  16
HETATM   16  C   UNL     1     -10.507  11.789  64.893  1.00  0.00    -0.334 A  
HETATM   17  C   UNL     1     -10.227  13.006  65.533  1.00  0.00    -0.296 A  
HETATM   18  C   UNL     1     -10.939  14.161  65.205  1.00  0.00    -0.361 A  
HETATM   19  C   UNL     1     -11.935  14.115  64.232  1.00  0.00    -0.460 A  
HETATM   20  C   UNL     1     -12.225  12.914  63.589  1.00  0.00    -0.581 A  
HETATM   21  C   UNL     1     -11.517  11.757  63.917  1.00  0.00    -0.481 A  
ENDBRANCH  13  16
ENDBRANCH  11  13
ENDBRANCH  10  11
ENDBRANCH   4  10
TORSDOF 4
ENDMDL
MODEL      113
REMARK 921   NORMALIZED FREE ENERGY PREDICTED BY IDOCK:   -4.59 KCAL/MOL
REMARK 922        TOTAL FREE ENERGY PREDICTED BY IDOCK:   -6.21 KCAL/MOL
REMARK 923 INTER-LIGAND FREE ENERGY PREDICTED BY IDOCK:   -6.22 KCAL/MOL
REMARK 924 INTRA-LIGAND FREE ENERGY PREDICTED BY IDOCK:    0.01 KCAL/MOL
REMARK 927      BINDING AFFINITY PREDICTED BY RF-SCORE:    0.00 PKD
ROOT
HETATM    1  C   UNL     1     -10.331   9.199  67.119  1.00  0.00    -0.337 C  
HETATM    2  C   UNL     1     -10.403  10.585  66.475  1.00  0.00    -0.294 C  
HETATM    3  C   UNL     1     -11.439  11.480  67.165  1.00  0.00    -0.313 C  
HETATM    4  C   UNL     1     -10.939  12.045  68.501  1.00  0.00    -0.240 C  
HETATM    5  C   UNL     1      -9.644  12.837  68.283  1.00  0.00    -0.211 C  
HETATM    6  C   UNL     1      -7.346  12.910  67.257  1.00  0.00    -0.077 C  
HETATM    7  C   UNL     1      -8.518  11.986  67.652  1.00  0.00    -0.160 C  
HETATM    8  C   UNL     1      -7.961  10.974  68.672  1.00  0.00    -0.143 C  
HETATM    9  C   UNL     1      -9.036  11.285  66.371  1.00  0.00    -0.201 C  
ENDROOT
BRANCH   4  10
HETATM   10  O   UNL     1     -11.927  12.936  69.060  1.00  0.00    -0.295 OA 
BRANCH  10  11
HETATM   11  C   UNL     1     -11.984  14.173  68.482  1.00  0.00    -0.332 C  
HETATM   12  O   UNL     1     -12.453  14.416  67.373  1.00  0.00    -0.184 OA 
BRANCH  11  13
HETATM   13  C   UNL     1     -11.373  15.249  69.385  1.00  0.00    -0.294 C  
HETATM   14  O   UNL     1     -11.433  16.535  68.760  1.00  0.00    -0.291 OA 
HETATM   15  H   UNL     1     -11.054  17.202  69.319  1.00  0.00     0.000 HD 
BRANCH  13  16
HETATM   16  C   UNL     1     -12.072  15.357  70.724  1.00  0.00    -0.413 A  
HETATM   17  C   UNL     1     -13.468  15.500  70.778  1.00  0.00    -0.226 A  
HETATM   18  C   UNL     1     -14.128  15.559  72.006  1.00  0.00    -0.598 A  
HETATM   19  C   UNL     1     -13.404  15.473  73.193  1.00  0.00    -0.632 A  
HETATM   20  C   UNL     1     -12.019  15.333  73.156  1.00  0.00    -0.529 A  
HETATM   21  C   UNL     1     -11.355  15.276  71.929  1.00  0.00    -0.447 A  
ENDBRANCH  13  16
ENDBRANCH  11  13
ENDBRANCH  10  11
ENDBRANCH   4  10
TORSDOF 4
ENDMDL
MODEL      114
REMARK 921   NORMALIZED FREE ENERGY PREDICTED BY IDOCK:   -4.58 KCAL/MOL
REMARK 922        TOTAL FREE ENERGY PREDICTED BY IDOCK:   -6.21 KCAL/MOL
REMARK 923 INTER-LIGAND FREE ENERGY PREDICTED BY IDOCK:   -5.60 KCAL/MOL
REMARK 924 INTRA-LIGAND FREE ENERGY PREDICTED BY IDOCK:   -0.60 KCAL/MOL
REMARK 927      BINDING AFFINITY PREDICTED BY RF-SCORE:    0.00 PKD
ROOT
HETATM    1  C   UNL     1      -8.261   8.507  67.590  1.00  0.00    -0.118 C  
HETATM    2  C   UNL     1      -9.789   8.557  67.519  1.00  0.00    -0.231 C  
HETATM    3  C   UNL     1     -10.430   8.337  68.894  1.00  0.00    -0.209 C  
HETATM    4  C   UNL     1     -10.358   9.582  69.787  1.00  0.00    -0.230 C  
HETATM    5  C   UNL     1     -11.037  10.767  69.090  1.00  0.00    -0.304 C  
HETATM    6  C   UNL     1     -11.286  12.140  66.994  1.00  0.00    -0.398 C  
HETATM    7  C   UNL     1     -10.404  11.102  67.720  1.00  0.00    -0.215 C  
HETATM    8  C   UNL     1      -9.017  11.749  67.903  1.00  0.00    -0.180 C  
HETATM    9  C   UNL     1     -10.332   9.828  66.843  1.00  0.00    -0.301 C  
ENDROOT
BRANCH   4  10
HETATM   10  O   UNL     1     -11.043   9.335  71.033  1.00  0.00    -0.271 OA 
BRANCH  10  11
HETATM   11  C   UNL     1     -10.293   8.718  71.994  1.00  0.00    -0.340 C  
HETATM   12  O   UNL     1      -9.108   8.945  72.223  1.00  0.00    -0.381 OA 
BRANCH  11  13
HETATM   13  C   UNL     1     -11.109   7.676  72.766  1.00  0.00    -0.383 C  
HETATM   14  O   UNL     1     -12.499   7.770  72.438  1.00  0.00    -0.501 OA 
HETATM   15  H   UNL     1     -13.005   7.125  72.916  1.00  0.00     0.000 HD 
BRANCH  13  16
HETATM   16  C   UNL     1     -10.666   6.257  72.481  1.00  0.00    -0.256 A  
HETATM   17  C   UNL     1     -10.541   5.335  73.532  1.00  0.00    -0.313 A  
HETATM   18  C   UNL     1     -10.173   4.012  73.277  1.00  0.00    -0.214 A  
HETATM   19  C   UNL     1      -9.929   3.595  71.970  1.00  0.00    -0.232 A  
HETATM   20  C   UNL     1     -10.046   4.499  70.917  1.00  0.00    -0.228 A  
HETATM   21  C   UNL     1     -10.412   5.823  71.170  1.00  0.00    -0.301 A  
ENDBRANCH  13  16
ENDBRANCH  11  13
ENDBRANCH  10  11
ENDBRANCH   4  10
TORSDOF 4
ENDMDL
MODEL      115
REMARK 921   NORMALIZED FREE ENERGY PREDICTED BY IDOCK:   -4.58 KCAL/MOL
REMARK 922        TOTAL FREE ENERGY PREDICTED BY IDOCK:   -6.21 KCAL/MOL
REMARK 923 INTER-LIGAND FREE ENERGY PREDICTED BY IDOCK:   -5.46 KCAL/MOL
REMARK 924 INTRA-LIGAND FREE ENERGY PREDICTED BY IDOCK:   -0.75 KCAL/MOL
REMARK 927      BINDING AFFINITY PREDICTED BY RF-SCORE:    0.00 PKD
ROOT
HETATM    1  C   UNL     1      -6.547  17.956  67.145  1.00  0.00    -0.196 C  
HETATM    2  C   UNL     1      -7.403  17.704  68.388  1.00  0.00    -0.243 C  
HETATM    3  C   UNL     1      -8.861  17.404  68.024  1.00  0.00    -0.252 C  
HETATM    4  C   UNL     1      -9.061  15.974  67.507  1.00  0.00    -0.199 C  
HETATM    5  C   UNL     1      -8.578  14.965  68.557  1.00  0.00    -0.162 C  
HETATM    6  C   UNL     1      -6.758  14.263  70.147  1.00  0.00    -0.011 C  
HETATM    7  C   UNL     1      -7.090  15.154  68.932  1.00  0.00    -0.125 C  
HETATM    8  C   UNL     1      -6.175  14.694  67.781  1.00  0.00    -0.154 C  
HETATM    9  C   UNL     1      -6.825  16.629  69.324  1.00  0.00    -0.232 C  
ENDROOT
BRANCH   4  10
HETATM   10  O   UNL     1     -10.461  15.732  67.255  1.00  0.00    -0.294 OA 
BRANCH  10  11
HETATM   11  C   UNL     1     -10.791  15.557  65.941  1.00  0.00    -0.313 C  
HETATM   12  O   UNL     1     -10.312  16.186  65.000  1.00  0.00    -0.573 OA 
BRANCH  11  13
HETATM   13  C   UNL     1     -11.861  14.474  65.764  1.00  0.00    -0.327 C  
HETATM   14  O   UNL     1     -12.135  14.249  64.377  1.00  0.00    -0.450 OA 
HETATM   15  H   UNL     1     -12.797  13.578  64.268  1.00  0.00     0.000 HD 
BRANCH  13  16
HETATM   16  C   UNL     1     -11.457  13.148  66.373  1.00  0.00    -0.374 A  
HETATM   17  C   UNL     1     -10.523  12.330  65.720  1.00  0.00    -0.287 A  
HETATM   18  C   UNL     1     -10.112  11.125  66.292  1.00  0.00    -0.277 A  
HETATM   19  C   UNL     1     -10.627  10.724  67.523  1.00  0.00    -0.280 A  
HETATM   20  C   UNL     1     -11.557  11.524  68.182  1.00  0.00    -0.378 A  
HETATM   21  C   UNL     1     -11.971  12.730  67.612  1.00  0.00    -0.331 A  
ENDBRANCH  13  16
ENDBRANCH  11  13
ENDBRANCH  10  11
ENDBRANCH   4  10
TORSDOF 4
ENDMDL
MODEL      116
REMARK 921   NORMALIZED FREE ENERGY PREDICTED BY IDOCK:   -4.58 KCAL/MOL
REMARK 922        TOTAL FREE ENERGY PREDICTED BY IDOCK:   -6.20 KCAL/MOL
REMARK 923 INTER-LIGAND FREE ENERGY PREDICTED BY IDOCK:   -5.80 KCAL/MOL
REMARK 924 INTRA-LIGAND FREE ENERGY PREDICTED BY IDOCK:   -0.41 KCAL/MOL
REMARK 927      BINDING AFFINITY PREDICTED BY RF-SCORE:    0.00 PKD
ROOT
HETATM    1  C   UNL     1     -12.261   7.124  71.894  1.00  0.00    -0.358 C  
HETATM    2  C   UNL     1     -11.222   6.418  71.019  1.00  0.00    -0.370 C  
HETATM    3  C   UNL     1     -10.955   7.187  69.720  1.00  0.00    -0.256 C  
HETATM    4  C   UNL     1     -10.055   8.411  69.929  1.00  0.00    -0.195 C  
HETATM    5  C   UNL     1      -8.721   7.980  70.551  1.00  0.00    -0.135 C  
HETATM    6  C   UNL     1      -7.540   6.658  72.338  1.00  0.00    -0.094 C  
HETATM    7  C   UNL     1      -8.895   7.255  71.905  1.00  0.00    -0.133 C  
HETATM    8  C   UNL     1      -9.314   8.249  73.006  1.00  0.00    -0.310 C  
HETATM    9  C   UNL     1      -9.912   6.096  71.760  1.00  0.00    -0.197 C  
ENDROOT
BRANCH   4  10
HETATM   10  O   UNL     1      -9.781   9.044  68.662  1.00  0.00    -0.154 OA 
BRANCH  10  11
HETATM   11  C   UNL     1     -10.070  10.378  68.606  1.00  0.00    -0.176 C  
HETATM   12  O   UNL     1      -9.371  11.275  69.071  1.00  0.00    -0.126 OA 
BRANCH  11  13
HETATM   13  C   UNL     1     -11.401  10.640  67.894  1.00  0.00    -0.268 C  
HETATM   14  O   UNL     1     -12.469  10.766  68.839  1.00  0.00    -0.782 OA 
HETATM   15  H   UNL     1     -13.294  10.929  68.398  1.00  0.00     0.000 HD 
BRANCH  13  16
HETATM   16  C   UNL     1     -11.379  11.901  67.056  1.00  0.00    -0.392 A  
HETATM   17  C   UNL     1     -11.741  13.131  67.627  1.00  0.00    -0.414 A  
HETATM   18  C   UNL     1     -11.685  14.307  66.877  1.00  0.00    -0.430 A  
HETATM   19  C   UNL     1     -11.263  14.268  65.549  1.00  0.00    -0.320 A  
HETATM   20  C   UNL     1     -10.903  13.055  64.968  1.00  0.00    -0.328 A  
HETATM   21  C   UNL     1     -10.960  11.877  65.716  1.00  0.00    -0.359 A  
ENDBRANCH  13  16
ENDBRANCH  11  13
ENDBRANCH  10  11
ENDBRANCH   4  10
TORSDOF 4
ENDMDL
MODEL      117
REMARK 921   NORMALIZED FREE ENERGY PREDICTED BY IDOCK:   -4.57 KCAL/MOL
REMARK 922        TOTAL FREE ENERGY PREDICTED BY IDOCK:   -6.19 KCAL/MOL
REMARK 923 INTER-LIGAND FREE ENERGY PREDICTED BY IDOCK:   -5.74 KCAL/MOL
REMARK 924 INTRA-LIGAND FREE ENERGY PREDICTED BY IDOCK:   -0.45 KCAL/MOL
REMARK 927      BINDING AFFINITY PREDICTED BY RF-SCORE:    0.00 PKD
ROOT
HETATM    1  C   UNL     1      -8.698   6.664  70.214  1.00  0.00    -0.147 C  
HETATM    2  C   UNL     1     -10.139   6.508  69.721  1.00  0.00    -0.207 C  
HETATM    3  C   UNL     1     -10.759   7.858  69.342  1.00  0.00    -0.174 C  
HETATM    4  C   UNL     1     -10.272   8.374  67.983  1.00  0.00    -0.212 C  
HETATM    5  C   UNL     1     -10.582   7.344  66.889  1.00  0.00    -0.375 C  
HETATM    6  C   UNL     1     -10.483   4.941  66.146  1.00  0.00    -0.346 C  
HETATM    7  C   UNL     1      -9.933   5.967  67.159  1.00  0.00    -0.186 C  
HETATM    8  C   UNL     1      -8.409   6.031  66.943  1.00  0.00    -0.105 C  
HETATM    9  C   UNL     1     -10.292   5.481  68.585  1.00  0.00    -0.255 C  
ENDROOT
BRANCH   4  10
HETATM   10  O   UNL     1     -10.948   9.605  67.651  1.00  0.00    -0.268 OA 
BRANCH  10  11
HETATM   11  C   UNL     1     -10.344  10.740  68.112  1.00  0.00    -0.171 C  
HETATM   12  O   UNL     1     -10.363  11.131  69.276  1.00  0.00    -0.203 OA 
BRANCH  11  13
HETATM   13  C   UNL     1      -9.631  11.499  66.987  1.00  0.00    -0.185 C  
HETATM   14  O   UNL     1      -8.523  10.744  66.485  1.00  0.00    -0.136 OA 
HETATM   15  H   UNL     1      -8.081  11.214  65.788  1.00  0.00     0.000 HD 
BRANCH  13  16
HETATM   16  C   UNL     1     -10.543  11.807  65.819  1.00  0.00    -0.312 A  
HETATM   17  C   UNL     1     -11.656  12.644  65.998  1.00  0.00    -0.443 A  
HETATM   18  C   UNL     1     -12.481  12.968  64.919  1.00  0.00    -0.512 A  
HETATM   19  C   UNL     1     -12.202  12.464  63.651  1.00  0.00    -0.653 A  
HETATM   20  C   UNL     1     -11.103  11.631  63.458  1.00  0.00    -0.476 A  
HETATM   21  C   UNL     1     -10.278  11.303  64.535  1.00  0.00    -0.370 A  
ENDBRANCH  13  16
ENDBRANCH  11  13
ENDBRANCH  10  11
ENDBRANCH   4  10
TORSDOF 4
ENDMDL
MODEL      118
REMARK 921   NORMALIZED FREE ENERGY PREDICTED BY IDOCK:   -4.56 KCAL/MOL
REMARK 922        TOTAL FREE ENERGY PREDICTED BY IDOCK:   -6.18 KCAL/MOL
REMARK 923 INTER-LIGAND FREE ENERGY PREDICTED BY IDOCK:   -5.41 KCAL/MOL
REMARK 924 INTRA-LIGAND FREE ENERGY PREDICTED BY IDOCK:   -0.78 KCAL/MOL
REMARK 927      BINDING AFFINITY PREDICTED BY RF-SCORE:    0.00 PKD
ROOT
HETATM    1  C   UNL     1     -10.659   7.129  73.334  1.00  0.00    -0.424 C  
HETATM    2  C   UNL     1     -11.449   6.065  72.570  1.00  0.00    -0.336 C  
HETATM    3  C   UNL     1     -11.844   6.546  71.169  1.00  0.00    -0.383 C  
HETATM    4  C   UNL     1     -10.678   6.500  70.174  1.00  0.00    -0.252 C  
HETATM    5  C   UNL     1     -10.120   5.074  70.087  1.00  0.00    -0.338 C  
HETATM    6  C   UNL     1      -9.311   3.030  71.314  1.00  0.00    -0.208 C  
HETATM    7  C   UNL     1      -9.632   4.534  71.450  1.00  0.00    -0.232 C  
HETATM    8  C   UNL     1      -8.325   5.230  71.876  1.00  0.00    -0.122 C  
HETATM    9  C   UNL     1     -10.745   4.698  72.515  1.00  0.00    -0.217 C  
ENDROOT
BRANCH   4  10
HETATM   10  O   UNL     1     -11.132   6.892  68.862  1.00  0.00    -0.192 OA 
BRANCH  10  11
HETATM   11  C   UNL     1     -10.336   7.798  68.220  1.00  0.00    -0.198 C  
HETATM   12  O   UNL     1     -10.162   7.853  67.005  1.00  0.00    -0.253 OA 
BRANCH  11  13
HETATM   13  C   UNL     1      -9.656   8.754  69.206  1.00  0.00    -0.162 C  
HETATM   14  O   UNL     1      -8.349   9.114  68.748  1.00  0.00    -0.118 OA 
HETATM   15  H   UNL     1      -7.927   9.707  69.359  1.00  0.00     0.000 HD 
BRANCH  13  16
HETATM   16  C   UNL     1     -10.438  10.034  69.413  1.00  0.00    -0.252 A  
HETATM   17  C   UNL     1     -10.219  11.136  68.572  1.00  0.00    -0.209 A  
HETATM   18  C   UNL     1     -10.963  12.307  68.727  1.00  0.00    -0.277 A  
HETATM   19  C   UNL     1     -11.935  12.390  69.722  1.00  0.00    -0.359 A  
HETATM   20  C   UNL     1     -12.163  11.306  70.566  1.00  0.00    -0.474 A  
HETATM   21  C   UNL     1     -11.419  10.134  70.414  1.00  0.00    -0.400 A  
ENDBRANCH  13  16
ENDBRANCH  11  13
ENDBRANCH  10  11
ENDBRANCH   4  10
TORSDOF 4
ENDMDL
MODEL      119
REMARK 921   NORMALIZED FREE ENERGY PREDICTED BY IDOCK:   -4.56 KCAL/MOL
REMARK 922        TOTAL FREE ENERGY PREDICTED BY IDOCK:   -6.18 KCAL/MOL
REMARK 923 INTER-LIGAND FREE ENERGY PREDICTED BY IDOCK:   -6.00 KCAL/MOL
REMARK 924 INTRA-LIGAND FREE ENERGY PREDICTED BY IDOCK:   -0.19 KCAL/MOL
REMARK 927      BINDING AFFINITY PREDICTED BY RF-SCORE:    0.00 PKD
ROOT
HETATM    1  C   UNL     1     -10.576  19.686  66.799  1.00  0.00    -0.602 C  
HETATM    2  C   UNL     1     -10.044  19.182  68.142  1.00  0.00    -0.486 C  
HETATM    3  C   UNL     1     -10.111  17.653  68.243  1.00  0.00    -0.362 C  
HETATM    4  C   UNL     1      -8.994  16.957  67.455  1.00  0.00    -0.209 C  
HETATM    5  C   UNL     1      -7.625  17.442  67.947  1.00  0.00    -0.196 C  
HETATM    6  C   UNL     1      -6.151  19.394  68.541  1.00  0.00    -0.257 C  
HETATM    7  C   UNL     1      -7.446  18.972  67.815  1.00  0.00    -0.271 C  
HETATM    8  C   UNL     1      -7.279  19.377  66.338  1.00  0.00    -0.252 C  
HETATM    9  C   UNL     1      -8.637  19.705  68.481  1.00  0.00    -0.338 C  
ENDROOT
BRANCH   4  10
HETATM   10  O   UNL     1      -9.068  15.530  67.652  1.00  0.00    -0.180 OA 
BRANCH  10  11
HETATM   11  C   UNL     1      -9.347  14.804  66.529  1.00  0.00    -0.290 C  
HETATM   12  O   UNL     1      -9.727  15.272  65.458  1.00  0.00    -0.332 OA 
BRANCH  11  13
HETATM   13  C   UNL     1      -9.142  13.303  66.759  1.00  0.00    -0.210 C  
HETATM   14  O   UNL     1      -7.786  13.023  67.124  1.00  0.00    -0.314 OA 
HETATM   15  H   UNL     1      -7.658  12.093  67.266  1.00  0.00     0.000 HD 
BRANCH  13  16
HETATM   16  C   UNL     1     -10.034  12.750  67.849  1.00  0.00    -0.229 A  
HETATM   17  C   UNL     1      -9.817  11.455  68.346  1.00  0.00    -0.205 A  
HETATM   18  C   UNL     1     -10.607  10.950  69.380  1.00  0.00    -0.233 A  
HETATM   19  C   UNL     1     -11.619  11.732  69.932  1.00  0.00    -0.351 A  
HETATM   20  C   UNL     1     -11.848  13.018  69.449  1.00  0.00    -0.380 A  
HETATM   21  C   UNL     1     -11.061  13.525  68.413  1.00  0.00    -0.298 A  
ENDBRANCH  13  16
ENDBRANCH  11  13
ENDBRANCH  10  11
ENDBRANCH   4  10
TORSDOF 4
ENDMDL
MODEL      120
REMARK 921   NORMALIZED FREE ENERGY PREDICTED BY IDOCK:   -4.54 KCAL/MOL
REMARK 922        TOTAL FREE ENERGY PREDICTED BY IDOCK:   -6.16 KCAL/MOL
REMARK 923 INTER-LIGAND FREE ENERGY PREDICTED BY IDOCK:   -5.45 KCAL/MOL
REMARK 924 INTRA-LIGAND FREE ENERGY PREDICTED BY IDOCK:   -0.71 KCAL/MOL
REMARK 927      BINDING AFFINITY PREDICTED BY RF-SCORE:    0.00 PKD
ROOT
HETATM    1  C   UNL     1      -9.953   5.229  68.726  1.00  0.00    -0.243 C  
HETATM    2  C   UNL     1     -10.553   5.662  67.386  1.00  0.00    -0.312 C  
HETATM    3  C   UNL     1     -11.017   7.123  67.416  1.00  0.00    -0.296 C  
HETATM    4  C   UNL     1      -9.855   8.117  67.302  1.00  0.00    -0.197 C  
HETATM    5  C   UNL     1      -9.069   7.858  66.011  1.00  0.00    -0.181 C  
HETATM    6  C   UNL     1      -7.936   6.179  64.515  1.00  0.00    -0.123 C  
HETATM    7  C   UNL     1      -8.502   6.422  65.930  1.00  0.00    -0.147 C  
HETATM    8  C   UNL     1      -7.331   6.241  66.915  1.00  0.00    -0.083 C  
HETATM    9  C   UNL     1      -9.631   5.391  66.184  1.00  0.00    -0.169 C  
ENDROOT
BRANCH   4  10
HETATM   10  O   UNL     1     -10.364   9.467  67.260  1.00  0.00    -0.228 OA 
BRANCH  10  11
HETATM   11  C   UNL     1      -9.737  10.348  68.094  1.00  0.00    -0.151 C  
HETATM   12  O   UNL     1      -9.411  11.495  67.798  1.00  0.00    -0.161 OA 
BRANCH  11  13
HETATM   13  C   UNL     1      -9.466   9.731  69.471  1.00  0.00    -0.212 C  
HETATM   14  O   UNL     1      -8.428  10.442  70.153  1.00  0.00    -0.324 OA 
HETATM   15  H   UNL     1      -8.260  10.060  71.006  1.00  0.00     0.000 HD 
BRANCH  13  16
HETATM   16  C   UNL     1     -10.688   9.734  70.364  1.00  0.00    -0.368 A  
HETATM   17  C   UNL     1     -11.628  10.772  70.267  1.00  0.00    -0.427 A  
HETATM   18  C   UNL     1     -12.779  10.765  71.056  1.00  0.00    -0.513 A  
HETATM   19  C   UNL     1     -13.007   9.720  71.949  1.00  0.00    -0.535 A  
HETATM   20  C   UNL     1     -12.083   8.684  72.059  1.00  0.00    -0.442 A  
HETATM   21  C   UNL     1     -10.929   8.690  71.272  1.00  0.00    -0.333 A  
ENDBRANCH  13  16
ENDBRANCH  11  13
ENDBRANCH  10  11
ENDBRANCH   4  10
TORSDOF 4
ENDMDL
MODEL      121
REMARK 921   NORMALIZED FREE ENERGY PREDICTED BY IDOCK:   -4.51 KCAL/MOL
REMARK 922        TOTAL FREE ENERGY PREDICTED BY IDOCK:   -6.12 KCAL/MOL
REMARK 923 INTER-LIGAND FREE ENERGY PREDICTED BY IDOCK:   -5.77 KCAL/MOL
REMARK 924 INTRA-LIGAND FREE ENERGY PREDICTED BY IDOCK:   -0.35 KCAL/MOL
REMARK 927      BINDING AFFINITY PREDICTED BY RF-SCORE:    0.00 PKD
ROOT
HETATM    1  C   UNL     1     -10.684   8.028  67.434  1.00  0.00    -0.260 C  
HETATM    2  C   UNL     1      -9.394   8.766  67.069  1.00  0.00    -0.200 C  
HETATM    3  C   UNL     1      -9.680  10.134  66.439  1.00  0.00    -0.259 C  
HETATM    4  C   UNL     1     -10.078  11.192  67.475  1.00  0.00    -0.183 C  
HETATM    5  C   UNL     1      -8.973  11.335  68.529  1.00  0.00    -0.166 C  
HETATM    6  C   UNL     1      -7.402  10.190  70.128  1.00  0.00    -0.157 C  
HETATM    7  C   UNL     1      -8.668  10.011  69.265  1.00  0.00    -0.182 C  
HETATM    8  C   UNL     1      -9.814   9.646  70.229  1.00  0.00    -0.321 C  
HETATM    9  C   UNL     1      -8.400   8.883  68.238  1.00  0.00    -0.125 C  
ENDROOT
BRANCH   4  10
HETATM   10  O   UNL     1     -10.259  12.470  66.830  1.00  0.00    -0.224 OA 
BRANCH  10  11
HETATM   11  C   UNL     1     -11.549  12.777  66.503  1.00  0.00    -0.376 C  
HETATM   12  O   UNL     1     -12.189  12.266  65.588  1.00  0.00    -0.605 OA 
BRANCH  11  13
HETATM   13  C   UNL     1     -12.123  13.864  67.419  1.00  0.00    -0.345 C  
HETATM   14  O   UNL     1     -12.047  13.467  68.792  1.00  0.00    -0.337 OA 
HETATM   15  H   UNL     1     -12.402  14.140  69.360  1.00  0.00     0.000 HD 
BRANCH  13  16
HETATM   16  C   UNL     1     -11.398  15.186  67.283  1.00  0.00    -0.305 A  
HETATM   17  C   UNL     1     -10.902  15.591  66.034  1.00  0.00    -0.301 A  
HETATM   18  C   UNL     1     -10.269  16.826  65.888  1.00  0.00    -0.345 A  
HETATM   19  C   UNL     1     -10.125  17.672  66.986  1.00  0.00    -0.330 A  
HETATM   20  C   UNL     1     -10.610  17.283  68.232  1.00  0.00    -0.383 A  
HETATM   21  C   UNL     1     -11.242  16.047  68.382  1.00  0.00    -0.364 A  
ENDBRANCH  13  16
ENDBRANCH  11  13
ENDBRANCH  10  11
ENDBRANCH   4  10
TORSDOF 4
ENDMDL
MODEL      122
REMARK 921   NORMALIZED FREE ENERGY PREDICTED BY IDOCK:   -4.50 KCAL/MOL
REMARK 922        TOTAL FREE ENERGY PREDICTED BY IDOCK:   -6.10 KCAL/MOL
REMARK 923 INTER-LIGAND FREE ENERGY PREDICTED BY IDOCK:   -6.18 KCAL/MOL
REMARK 924 INTRA-LIGAND FREE ENERGY PREDICTED BY IDOCK:    0.08 KCAL/MOL
REMARK 927      BINDING AFFINITY PREDICTED BY RF-SCORE:    0.00 PKD
ROOT
HETATM    1  C   UNL     1     -10.994  11.350  64.342  1.00  0.00    -0.371 C  
HETATM    2  C   UNL     1      -9.801  11.893  65.131  1.00  0.00    -0.243 C  
HETATM    3  C   UNL     1     -10.248  12.690  66.362  1.00  0.00    -0.263 C  
HETATM    4  C   UNL     1     -10.698  11.791  67.520  1.00  0.00    -0.221 C  
HETATM    5  C   UNL     1      -9.563  10.837  67.913  1.00  0.00    -0.171 C  
HETATM    6  C   UNL     1      -7.813   9.192  67.158  1.00  0.00    -0.102 C  
HETATM    7  C   UNL     1      -9.096   9.942  66.742  1.00  0.00    -0.164 C  
HETATM    8  C   UNL     1     -10.154   8.869  66.421  1.00  0.00    -0.333 C  
HETATM    9  C   UNL     1      -8.769  10.815  65.505  1.00  0.00    -0.196 C  
ENDROOT
BRANCH   4  10
HETATM   10  O   UNL     1     -11.032  12.596  68.669  1.00  0.00    -0.237 OA 
BRANCH  10  11
HETATM   11  C   UNL     1     -10.478  13.845  68.683  1.00  0.00    -0.246 C  
HETATM   12  O   UNL     1      -9.273  14.086  68.653  1.00  0.00    -0.189 OA 
BRANCH  11  13
HETATM   13  C   UNL     1     -11.548  14.939  68.754  1.00  0.00    -0.323 C  
HETATM   14  O   UNL     1     -12.660  14.621  67.911  1.00  0.00    -0.452 OA 
HETATM   15  H   UNL     1     -13.323  15.299  67.954  1.00  0.00     0.000 HD 
BRANCH  13  16
HETATM   16  C   UNL     1     -12.079  15.149  70.155  1.00  0.00    -0.384 A  
HETATM   17  C   UNL     1     -13.281  14.539  70.550  1.00  0.00    -0.136 A  
HETATM   18  C   UNL     1     -13.760  14.691  71.852  1.00  0.00    -0.510 A  
HETATM   19  C   UNL     1     -13.044  15.450  72.775  1.00  0.00    -0.568 A  
HETATM   20  C   UNL     1     -11.852  16.063  72.399  1.00  0.00    -0.639 A  
HETATM   21  C   UNL     1     -11.371  15.914  71.096  1.00  0.00    -0.435 A  
ENDBRANCH  13  16
ENDBRANCH  11  13
ENDBRANCH  10  11
ENDBRANCH   4  10
TORSDOF 4
ENDMDL
MODEL      123
REMARK 921   NORMALIZED FREE ENERGY PREDICTED BY IDOCK:   -4.49 KCAL/MOL
REMARK 922        TOTAL FREE ENERGY PREDICTED BY IDOCK:   -6.10 KCAL/MOL
REMARK 923 INTER-LIGAND FREE ENERGY PREDICTED BY IDOCK:   -5.63 KCAL/MOL
REMARK 924 INTRA-LIGAND FREE ENERGY PREDICTED BY IDOCK:   -0.47 KCAL/MOL
REMARK 927      BINDING AFFINITY PREDICTED BY RF-SCORE:    0.00 PKD
ROOT
HETATM    1  C   UNL     1      -9.662   6.781  68.628  1.00  0.00    -0.131 C  
HETATM    2  C   UNL     1      -9.053   7.611  69.760  1.00  0.00    -0.147 C  
HETATM    3  C   UNL     1      -9.187   9.116  69.499  1.00  0.00    -0.160 C  
HETATM    4  C   UNL     1     -10.601   9.642  69.775  1.00  0.00    -0.242 C  
HETATM    5  C   UNL     1     -11.000   9.337  71.224  1.00  0.00    -0.421 C  
HETATM    6  C   UNL     1     -11.143   7.636  73.075  1.00  0.00    -0.437 C  
HETATM    7  C   UNL     1     -10.959   7.827  71.555  1.00  0.00    -0.267 C  
HETATM    8  C   UNL     1     -12.124   7.087  70.870  1.00  0.00    -0.403 C  
HETATM    9  C   UNL     1      -9.585   7.234  71.154  1.00  0.00    -0.160 C  
ENDROOT
BRANCH   4  10
HETATM   10  O   UNL     1     -10.642  11.071  69.584  1.00  0.00    -0.193 OA 
BRANCH  10  11
HETATM   11  C   UNL     1     -11.122  11.481  68.373  1.00  0.00    -0.235 C  
HETATM   12  O   UNL     1     -12.143  11.059  67.836  1.00  0.00    -0.600 OA 
BRANCH  11  13
HETATM   13  C   UNL     1     -10.219  12.542  67.735  1.00  0.00    -0.217 C  
HETATM   14  O   UNL     1     -10.501  12.679  66.338  1.00  0.00    -0.244 OA 
HETATM   15  H   UNL     1      -9.942  13.336  65.942  1.00  0.00     0.000 HD 
BRANCH  13  16
HETATM   16  C   UNL     1     -10.378  13.906  68.371  1.00  0.00    -0.249 A  
HETATM   17  C   UNL     1      -9.244  14.663  68.704  1.00  0.00    -0.194 A  
HETATM   18  C   UNL     1      -9.379  15.940  69.253  1.00  0.00    -0.259 A  
HETATM   19  C   UNL     1     -10.646  16.475  69.473  1.00  0.00    -0.321 A  
HETATM   20  C   UNL     1     -11.781  15.735  69.151  1.00  0.00    -0.398 A  
HETATM   21  C   UNL     1     -11.649  14.457  68.603  1.00  0.00    -0.347 A  
ENDBRANCH  13  16
ENDBRANCH  11  13
ENDBRANCH  10  11
ENDBRANCH   4  10
TORSDOF 4
ENDMDL
MODEL      124
REMARK 921   NORMALIZED FREE ENERGY PREDICTED BY IDOCK:   -4.47 KCAL/MOL
REMARK 922        TOTAL FREE ENERGY PREDICTED BY IDOCK:   -6.06 KCAL/MOL
REMARK 923 INTER-LIGAND FREE ENERGY PREDICTED BY IDOCK:   -5.37 KCAL/MOL
REMARK 924 INTRA-LIGAND FREE ENERGY PREDICTED BY IDOCK:   -0.70 KCAL/MOL
REMARK 927      BINDING AFFINITY PREDICTED BY RF-SCORE:    0.00 PKD
ROOT
HETATM    1  C   UNL     1      -7.529   9.222  67.195  1.00  0.00    -0.091 C  
HETATM    2  C   UNL     1      -7.361  10.484  66.346  1.00  0.00    -0.129 C  
HETATM    3  C   UNL     1      -8.666  11.284  66.252  1.00  0.00    -0.184 C  
HETATM    4  C   UNL     1      -8.961  12.090  67.523  1.00  0.00    -0.174 C  
HETATM    5  C   UNL     1      -7.796  13.043  67.821  1.00  0.00    -0.157 C  
HETATM    6  C   UNL     1      -5.309  13.348  68.062  1.00  0.00    -0.110 C  
HETATM    7  C   UNL     1      -6.448  12.309  68.001  1.00  0.00    -0.076 C  
HETATM    8  C   UNL     1      -6.420  11.539  69.336  1.00  0.00    -0.111 C  
HETATM    9  C   UNL     1      -6.188  11.374  66.793  1.00  0.00    -0.141 C  
ENDROOT
BRANCH   4  10
HETATM   10  O   UNL     1     -10.156  12.877  67.342  1.00  0.00    -0.219 OA 
BRANCH  10  11
HETATM   11  C   UNL     1     -11.287  12.347  67.895  1.00  0.00    -0.289 C  
HETATM   12  O   UNL     1     -12.156  11.732  67.281  1.00  0.00    -0.595 OA 
BRANCH  11  13
HETATM   13  C   UNL     1     -11.364  12.619  69.401  1.00  0.00    -0.208 C  
HETATM   14  O   UNL     1     -12.355  13.611  69.691  1.00  0.00    -0.296 OA 
HETATM   15  H   UNL     1     -12.402  13.780  70.624  1.00  0.00     0.000 HD 
BRANCH  13  16
HETATM   16  C   UNL     1     -11.705  11.382  70.203  1.00  0.00    -0.414 A  
HETATM   17  C   UNL     1     -10.910  10.231  70.093  1.00  0.00    -0.362 A  
HETATM   18  C   UNL     1     -11.190   9.098  70.859  1.00  0.00    -0.359 A  
HETATM   19  C   UNL     1     -12.265   9.102  71.744  1.00  0.00    -0.442 A  
HETATM   20  C   UNL     1     -13.065  10.235  71.864  1.00  0.00    -0.568 A  
HETATM   21  C   UNL     1     -12.788  11.370  71.098  1.00  0.00    -0.440 A  
ENDBRANCH  13  16
ENDBRANCH  11  13
ENDBRANCH  10  11
ENDBRANCH   4  10
TORSDOF 4
ENDMDL
MODEL      125
REMARK 921   NORMALIZED FREE ENERGY PREDICTED BY IDOCK:   -4.46 KCAL/MOL
REMARK 922        TOTAL FREE ENERGY PREDICTED BY IDOCK:   -6.05 KCAL/MOL
REMARK 923 INTER-LIGAND FREE ENERGY PREDICTED BY IDOCK:   -6.04 KCAL/MOL
REMARK 924 INTRA-LIGAND FREE ENERGY PREDICTED BY IDOCK:   -0.01 KCAL/MOL
REMARK 927      BINDING AFFINITY PREDICTED BY RF-SCORE:    0.00 PKD
ROOT
HETATM    1  C   UNL     1      -9.358  14.629  68.879  1.00  0.00    -0.160 C  
HETATM    2  C   UNL     1     -10.859  14.386  69.049  1.00  0.00    -0.267 C  
HETATM    3  C   UNL     1     -11.624  14.619  67.741  1.00  0.00    -0.382 C  
HETATM    4  C   UNL     1     -11.473  13.459  66.750  1.00  0.00    -0.343 C  
HETATM    5  C   UNL     1     -11.951  12.153  67.396  1.00  0.00    -0.168 C  
HETATM    6  C   UNL     1     -11.875  10.616  69.388  1.00  0.00    -0.325 C  
HETATM    7  C   UNL     1     -11.180  11.804  68.689  1.00  0.00    -0.312 C  
HETATM    8  C   UNL     1      -9.745  11.349  68.362  1.00  0.00    -0.203 C  
HETATM    9  C   UNL     1     -11.194  13.013  69.657  1.00  0.00    -0.080 C  
ENDROOT
BRANCH   4  10
HETATM   10  O   UNL     1     -12.276  13.705  65.576  1.00  0.00    -0.387 OA 
BRANCH  10  11
HETATM   11  C   UNL     1     -12.229  12.725  64.626  1.00  0.00    -0.447 C  
HETATM   12  O   UNL     1     -13.071  11.844  64.475  1.00  0.00    -0.451 OA 
BRANCH  11  13
HETATM   13  C   UNL     1     -10.973  12.838  63.756  1.00  0.00    -0.402 C  
HETATM   14  O   UNL     1     -10.221  14.008  64.094  1.00  0.00    -0.619 OA 
HETATM   15  H   UNL     1      -9.443  14.079  63.555  1.00  0.00     0.000 HD 
BRANCH  13  16
HETATM   16  C   UNL     1     -10.053  11.645  63.897  1.00  0.00    -0.395 A  
HETATM   17  C   UNL     1     -10.312  10.669  64.872  1.00  0.00    -0.347 A  
HETATM   18  C   UNL     1      -9.494   9.543  64.985  1.00  0.00    -0.273 A  
HETATM   19  C   UNL     1      -8.411   9.378  64.125  1.00  0.00    -0.170 A  
HETATM   20  C   UNL     1      -8.139  10.338  63.154  1.00  0.00    -0.158 A  
HETATM   21  C   UNL     1      -8.954  11.466  63.040  1.00  0.00    -0.150 A  
ENDBRANCH  13  16
ENDBRANCH  11  13
ENDBRANCH  10  11
ENDBRANCH   4  10
TORSDOF 4
ENDMDL
MODEL      126
REMARK 921   NORMALIZED FREE ENERGY PREDICTED BY IDOCK:   -4.44 KCAL/MOL
REMARK 922        TOTAL FREE ENERGY PREDICTED BY IDOCK:   -6.03 KCAL/MOL
REMARK 923 INTER-LIGAND FREE ENERGY PREDICTED BY IDOCK:   -5.59 KCAL/MOL
REMARK 924 INTRA-LIGAND FREE ENERGY PREDICTED BY IDOCK:   -0.44 KCAL/MOL
REMARK 927      BINDING AFFINITY PREDICTED BY RF-SCORE:    0.00 PKD
ROOT
HETATM    1  C   UNL     1     -11.335  12.717  64.445  1.00  0.00    -0.394 C  
HETATM    2  C   UNL     1     -11.994  12.884  65.816  1.00  0.00    -0.496 C  
HETATM    3  C   UNL     1     -11.388  11.936  66.857  1.00  0.00    -0.392 C  
HETATM    4  C   UNL     1     -10.025  12.414  67.373  1.00  0.00    -0.202 C  
HETATM    5  C   UNL     1     -10.156  13.819  67.974  1.00  0.00    -0.245 C  
HETATM    6  C   UNL     1     -11.015  16.171  67.711  1.00  0.00    -0.293 C  
HETATM    7  C   UNL     1     -10.697  14.858  66.965  1.00  0.00    -0.307 C  
HETATM    8  C   UNL     1      -9.631  15.195  65.906  1.00  0.00    -0.373 C  
HETATM    9  C   UNL     1     -12.005  14.338  66.319  1.00  0.00    -0.428 C  
ENDROOT
BRANCH   4  10
HETATM   10  O   UNL     1      -9.547  11.523  68.401  1.00  0.00    -0.186 OA 
BRANCH  10  11
HETATM   11  C   UNL     1      -8.679  10.558  67.974  1.00  0.00    -0.128 C  
HETATM   12  O   UNL     1      -8.087  10.564  66.898  1.00  0.00    -0.116 OA 
BRANCH  11  13
HETATM   13  C   UNL     1      -8.532   9.432  69.003  1.00  0.00    -0.129 C  
HETATM   14  O   UNL     1      -8.831   9.904  70.321  1.00  0.00    -0.320 OA 
HETATM   15  H   UNL     1      -8.739   9.206  70.959  1.00  0.00     0.000 HD 
BRANCH  13  16
HETATM   16  C   UNL     1      -9.442   8.256  68.719  1.00  0.00    -0.148 A  
HETATM   17  C   UNL     1     -10.101   8.159  67.483  1.00  0.00    -0.286 A  
HETATM   18  C   UNL     1     -10.909   7.059  67.194  1.00  0.00    -0.427 A  
HETATM   19  C   UNL     1     -11.068   6.043  68.134  1.00  0.00    -0.246 A  
HETATM   20  C   UNL     1     -10.423   6.125  69.365  1.00  0.00    -0.316 A  
HETATM   21  C   UNL     1      -9.615   7.226  69.658  1.00  0.00    -0.155 A  
ENDBRANCH  13  16
ENDBRANCH  11  13
ENDBRANCH  10  11
ENDBRANCH   4  10
TORSDOF 4
ENDMDL
MODEL      127
REMARK 921   NORMALIZED FREE ENERGY PREDICTED BY IDOCK:   -4.39 KCAL/MOL
REMARK 922        TOTAL FREE ENERGY PREDICTED BY IDOCK:   -5.97 KCAL/MOL
REMARK 923 INTER-LIGAND FREE ENERGY PREDICTED BY IDOCK:   -5.54 KCAL/MOL
REMARK 924 INTRA-LIGAND FREE ENERGY PREDICTED BY IDOCK:   -0.43 KCAL/MOL
REMARK 927      BINDING AFFINITY PREDICTED BY RF-SCORE:    0.00 PKD
ROOT
HETATM    1  C   UNL     1      -7.545  17.352  68.548  1.00  0.00    -0.254 C  
HETATM    2  C   UNL     1      -7.613  17.626  67.044  1.00  0.00    -0.230 C  
HETATM    3  C   UNL     1      -8.309  16.488  66.290  1.00  0.00    -0.364 C  
HETATM    4  C   UNL     1      -9.835  16.521  66.440  1.00  0.00    -0.293 C  
HETATM    5  C   UNL     1     -10.380  17.868  65.949  1.00  0.00    -0.259 C  
HETATM    6  C   UNL     1     -10.200  20.379  66.000  1.00  0.00    -0.245 C  
HETATM    7  C   UNL     1      -9.780  19.074  66.708  1.00  0.00    -0.375 C  
HETATM    8  C   UNL     1     -10.337  19.147  68.143  1.00  0.00    -0.465 C  
HETATM    9  C   UNL     1      -8.233  18.991  66.696  1.00  0.00    -0.301 C  
ENDROOT
BRANCH   4  10
HETATM   10  O   UNL     1     -10.433  15.474  65.648  1.00  0.00    -0.322 OA 
BRANCH  10  11
HETATM   11  C   UNL     1     -10.956  14.434  66.363  1.00  0.00    -0.319 C  
HETATM   12  O   UNL     1     -11.821  14.534  67.229  1.00  0.00    -0.394 OA 
BRANCH  11  13
HETATM   13  C   UNL     1     -10.321  13.097  65.966  1.00  0.00    -0.287 C  
HETATM   14  O   UNL     1      -9.831  13.145  64.622  1.00  0.00    -0.583 OA 
HETATM   15  H   UNL     1      -9.438  12.316  64.375  1.00  0.00     0.000 HD 
BRANCH  13  16
HETATM   16  C   UNL     1      -9.165  12.709  66.862  1.00  0.00    -0.216 A  
HETATM   17  C   UNL     1      -8.627  13.643  67.761  1.00  0.00    -0.182 A  
HETATM   18  C   UNL     1      -7.589  13.285  68.622  1.00  0.00    -0.094 A  
HETATM   19  C   UNL     1      -7.077  11.989  68.597  1.00  0.00    -0.103 A  
HETATM   20  C   UNL     1      -7.597  11.052  67.709  1.00  0.00    -0.099 A  
HETATM   21  C   UNL     1      -8.635  11.408  66.845  1.00  0.00    -0.154 A  
ENDBRANCH  13  16
ENDBRANCH  11  13
ENDBRANCH  10  11
ENDBRANCH   4  10
TORSDOF 4
ENDMDL
MODEL      128
REMARK 921   NORMALIZED FREE ENERGY PREDICTED BY IDOCK:   -4.38 KCAL/MOL
REMARK 922        TOTAL FREE ENERGY PREDICTED BY IDOCK:   -5.96 KCAL/MOL
REMARK 923 INTER-LIGAND FREE ENERGY PREDICTED BY IDOCK:   -5.65 KCAL/MOL
REMARK 924 INTRA-LIGAND FREE ENERGY PREDICTED BY IDOCK:   -0.31 KCAL/MOL
REMARK 927      BINDING AFFINITY PREDICTED BY RF-SCORE:    0.00 PKD
ROOT
HETATM    1  C   UNL     1     -13.975  15.223  71.257  1.00  0.00    -0.548 C  
HETATM    2  C   UNL     1     -12.624  14.646  71.687  1.00  0.00    -0.403 C  
HETATM    3  C   UNL     1     -12.526  13.145  71.390  1.00  0.00    -0.270 C  
HETATM    4  C   UNL     1     -12.265  12.848  69.909  1.00  0.00    -0.188 C  
HETATM    5  C   UNL     1     -10.976  13.544  69.454  1.00  0.00    -0.101 C  
HETATM    6  C   UNL     1      -9.611  15.659  69.394  1.00  0.00    -0.287 C  
HETATM    7  C   UNL     1     -11.017  15.076  69.654  1.00  0.00    -0.294 C  
HETATM    8  C   UNL     1     -11.966  15.735  68.634  1.00  0.00    -0.165 C  
HETATM    9  C   UNL     1     -11.419  15.411  71.112  1.00  0.00    -0.425 C  
ENDROOT
BRANCH   4  10
HETATM   10  O   UNL     1     -12.109  11.428  69.710  1.00  0.00    -0.311 OA 
BRANCH  10  11
HETATM   11  C   UNL     1     -11.656  11.063  68.474  1.00  0.00    -0.310 C  
HETATM   12  O   UNL     1     -12.038  11.541  67.409  1.00  0.00    -0.593 OA 
BRANCH  11  13
HETATM   13  C   UNL     1     -10.603   9.953  68.561  1.00  0.00    -0.217 C  
HETATM   14  O   UNL     1     -11.219   8.661  68.542  1.00  0.00    -0.354 OA 
HETATM   15  H   UNL     1     -10.567   7.974  68.597  1.00  0.00     0.000 HD 
BRANCH  13  16
HETATM   16  C   UNL     1      -9.606  10.002  67.423  1.00  0.00    -0.182 A  
HETATM   17  C   UNL     1      -9.786   9.188  66.294  1.00  0.00    -0.359 A  
HETATM   18  C   UNL     1      -8.897   9.254  65.221  1.00  0.00    -0.237 A  
HETATM   19  C   UNL     1      -7.818  10.135  65.261  1.00  0.00    -0.143 A  
HETATM   20  C   UNL     1      -7.624  10.948  66.375  1.00  0.00    -0.146 A  
HETATM   21  C   UNL     1      -8.512  10.883  67.451  1.00  0.00    -0.120 A  
ENDBRANCH  13  16
ENDBRANCH  11  13
ENDBRANCH  10  11
ENDBRANCH   4  10
TORSDOF 4
ENDMDL
MODEL      129
REMARK 921   NORMALIZED FREE ENERGY PREDICTED BY IDOCK:   -4.38 KCAL/MOL
REMARK 922        TOTAL FREE ENERGY PREDICTED BY IDOCK:   -5.95 KCAL/MOL
REMARK 923 INTER-LIGAND FREE ENERGY PREDICTED BY IDOCK:   -5.81 KCAL/MOL
REMARK 924 INTRA-LIGAND FREE ENERGY PREDICTED BY IDOCK:   -0.14 KCAL/MOL
REMARK 927      BINDING AFFINITY PREDICTED BY RF-SCORE:    0.00 PKD
ROOT
HETATM    1  C   UNL     1     -11.960  13.405  67.207  1.00  0.00    -0.393 C  
HETATM    2  C   UNL     1     -10.946  13.151  68.325  1.00  0.00    -0.278 C  
HETATM    3  C   UNL     1      -9.651  13.941  68.107  1.00  0.00    -0.218 C  
HETATM    4  C   UNL     1      -9.791  15.424  68.472  1.00  0.00    -0.207 C  
HETATM    5  C   UNL     1     -10.237  15.564  69.933  1.00  0.00    -0.305 C  
HETATM    6  C   UNL     1     -11.827  14.844  71.747  1.00  0.00    -0.424 C  
HETATM    7  C   UNL     1     -11.578  14.852  70.224  1.00  0.00    -0.332 C  
HETATM    8  C   UNL     1     -12.752  15.618  69.586  1.00  0.00     0.168 C  
HETATM    9  C   UNL     1     -11.515  13.383  69.735  1.00  0.00    -0.236 C  
ENDROOT
BRANCH   4  10
HETATM   10  O   UNL     1      -8.523  16.093  68.319  1.00  0.00    -0.171 OA 
BRANCH  10  11
HETATM   11  C   UNL     1      -7.863  15.823  67.154  1.00  0.00    -0.212 C  
HETATM   12  O   UNL     1      -6.950  15.011  67.028  1.00  0.00    -0.202 OA 
BRANCH  11  13
HETATM   13  C   UNL     1      -8.390  16.674  65.993  1.00  0.00    -0.145 C  
HETATM   14  O   UNL     1      -9.484  16.022  65.339  1.00  0.00    -0.378 OA 
HETATM   15  H   UNL     1      -9.811  16.549  64.620  1.00  0.00     0.000 HD 
BRANCH  13  16
HETATM   16  C   UNL     1      -8.869  18.039  66.439  1.00  0.00    -0.251 A  
HETATM   17  C   UNL     1     -10.225  18.382  66.318  1.00  0.00    -0.427 A  
HETATM   18  C   UNL     1     -10.686  19.622  66.764  1.00  0.00    -0.562 A  
HETATM   19  C   UNL     1      -9.800  20.532  67.337  1.00  0.00    -0.574 A  
HETATM   20  C   UNL     1      -8.452  20.207  67.462  1.00  0.00    -0.394 A  
HETATM   21  C   UNL     1      -7.987  18.968  67.015  1.00  0.00    -0.269 A  
ENDBRANCH  13  16
ENDBRANCH  11  13
ENDBRANCH  10  11
ENDBRANCH   4  10
TORSDOF 4
ENDMDL
MODEL      130
REMARK 921   NORMALIZED FREE ENERGY PREDICTED BY IDOCK:   -4.37 KCAL/MOL
REMARK 922        TOTAL FREE ENERGY PREDICTED BY IDOCK:   -5.95 KCAL/MOL
REMARK 923 INTER-LIGAND FREE ENERGY PREDICTED BY IDOCK:   -5.30 KCAL/MOL
REMARK 924 INTRA-LIGAND FREE ENERGY PREDICTED BY IDOCK:   -0.64 KCAL/MOL
REMARK 927      BINDING AFFINITY PREDICTED BY RF-SCORE:    0.00 PKD
ROOT
HETATM    1  C   UNL     1      -7.455  15.974  68.563  1.00  0.00    -0.156 C  
HETATM    2  C   UNL     1      -7.883  15.434  67.197  1.00  0.00    -0.249 C  
HETATM    3  C   UNL     1      -8.683  14.132  67.325  1.00  0.00    -0.229 C  
HETATM    4  C   UNL     1     -10.133  14.367  67.768  1.00  0.00    -0.226 C  
HETATM    5  C   UNL     1     -10.837  15.305  66.779  1.00  0.00    -0.312 C  
HETATM    6  C   UNL     1     -10.763  17.454  65.470  1.00  0.00    -0.081 C  
HETATM    7  C   UNL     1     -10.132  16.674  66.642  1.00  0.00    -0.305 C  
HETATM    8  C   UNL     1     -10.344  17.526  67.909  1.00  0.00    -0.371 C  
HETATM    9  C   UNL     1      -8.628  16.467  66.334  1.00  0.00    -0.347 C  
ENDROOT
BRANCH   4  10
HETATM   10  O   UNL     1     -10.849  13.116  67.795  1.00  0.00    -0.236 OA 
BRANCH  10  11
HETATM   11  C   UNL     1     -11.322  12.745  69.022  1.00  0.00    -0.294 C  
HETATM   12  O   UNL     1     -11.727  13.517  69.888  1.00  0.00    -0.292 OA 
BRANCH  11  13
HETATM   13  C   UNL     1     -11.281  11.225  69.210  1.00  0.00    -0.272 C  
HETATM   14  O   UNL     1     -12.549  10.638  68.897  1.00  0.00    -0.742 OA 
HETATM   15  H   UNL     1     -12.524   9.696  69.013  1.00  0.00     0.000 HD 
BRANCH  13  16
HETATM   16  C   UNL     1     -10.239  10.555  68.340  1.00  0.00    -0.192 A  
HETATM   17  C   UNL     1     -10.623   9.897  67.162  1.00  0.00    -0.295 A  
HETATM   18  C   UNL     1      -9.667   9.312  66.330  1.00  0.00    -0.325 A  
HETATM   19  C   UNL     1      -8.316   9.379  66.665  1.00  0.00    -0.119 A  
HETATM   20  C   UNL     1      -7.919  10.027  67.832  1.00  0.00    -0.105 A  
HETATM   21  C   UNL     1      -8.874  10.612  68.666  1.00  0.00    -0.151 A  
ENDBRANCH  13  16
ENDBRANCH  11  13
ENDBRANCH  10  11
ENDBRANCH   4  10
TORSDOF 4
ENDMDL
MODEL      131
REMARK 921   NORMALIZED FREE ENERGY PREDICTED BY IDOCK:   -4.36 KCAL/MOL
REMARK 922        TOTAL FREE ENERGY PREDICTED BY IDOCK:   -5.93 KCAL/MOL
REMARK 923 INTER-LIGAND FREE ENERGY PREDICTED BY IDOCK:   -5.41 KCAL/MOL
REMARK 924 INTRA-LIGAND FREE ENERGY PREDICTED BY IDOCK:   -0.51 KCAL/MOL
REMARK 927      BINDING AFFINITY PREDICTED BY RF-SCORE:    0.00 PKD
ROOT
HETATM    1  C   UNL     1      -9.204   9.768  70.069  1.00  0.00    -0.266 C  
HETATM    2  C   UNL     1     -10.441   9.143  69.420  1.00  0.00    -0.226 C  
HETATM    3  C   UNL     1     -11.076  10.081  68.387  1.00  0.00    -0.236 C  
HETATM    4  C   UNL     1     -10.306  10.113  67.061  1.00  0.00    -0.244 C  
HETATM    5  C   UNL     1     -10.211   8.698  66.477  1.00  0.00    -0.295 C  
HETATM    6  C   UNL     1      -9.674   6.270  66.868  1.00  0.00    -0.184 C  
HETATM    7  C   UNL     1      -9.517   7.698  67.430  1.00  0.00    -0.175 C  
HETATM    8  C   UNL     1      -8.004   7.981  67.510  1.00  0.00    -0.122 C  
HETATM    9  C   UNL     1     -10.185   7.747  68.827  1.00  0.00    -0.212 C  
ENDROOT
BRANCH   4  10
HETATM   10  O   UNL     1     -10.995  10.951  66.111  1.00  0.00    -0.162 OA 
BRANCH  10  11
HETATM   11  C   UNL     1     -10.329  12.089  65.753  1.00  0.00    -0.254 C  
HETATM   12  O   UNL     1      -9.110  12.239  65.790  1.00  0.00    -0.057 OA 
BRANCH  11  13
HETATM   13  C   UNL     1     -11.293  13.191  65.300  1.00  0.00    -0.296 C  
HETATM   14  O   UNL     1     -12.651  12.819  65.558  1.00  0.00    -0.611 OA 
HETATM   15  H   UNL     1     -13.248  13.502  65.277  1.00  0.00     0.000 HD 
BRANCH  13  16
HETATM   16  C   UNL     1     -11.040  14.512  65.996  1.00  0.00    -0.329 A  
HETATM   17  C   UNL     1     -10.589  15.619  65.260  1.00  0.00    -0.448 A  
HETATM   18  C   UNL     1     -10.392  16.853  65.882  1.00  0.00    -0.327 A  
HETATM   19  C   UNL     1     -10.645  16.996  67.244  1.00  0.00    -0.267 A  
HETATM   20  C   UNL     1     -11.090  15.907  67.989  1.00  0.00    -0.334 A  
HETATM   21  C   UNL     1     -11.286  14.671  67.369  1.00  0.00    -0.368 A  
ENDBRANCH  13  16
ENDBRANCH  11  13
ENDBRANCH  10  11
ENDBRANCH   4  10
TORSDOF 4
ENDMDL
MODEL      132
REMARK 921   NORMALIZED FREE ENERGY PREDICTED BY IDOCK:   -4.34 KCAL/MOL
REMARK 922        TOTAL FREE ENERGY PREDICTED BY IDOCK:   -5.91 KCAL/MOL
REMARK 923 INTER-LIGAND FREE ENERGY PREDICTED BY IDOCK:   -5.76 KCAL/MOL
REMARK 924 INTRA-LIGAND FREE ENERGY PREDICTED BY IDOCK:   -0.14 KCAL/MOL
REMARK 927      BINDING AFFINITY PREDICTED BY RF-SCORE:    0.00 PKD
ROOT
HETATM    1  C   UNL     1     -12.383  12.938  65.164  1.00  0.00    -0.547 C  
HETATM    2  C   UNL     1     -11.110  13.771  65.332  1.00  0.00    -0.304 C  
HETATM    3  C   UNL     1     -11.370  15.053  66.131  1.00  0.00    -0.270 C  
HETATM    4  C   UNL     1     -11.491  14.798  67.639  1.00  0.00    -0.347 C  
HETATM    5  C   UNL     1     -10.217  14.121  68.159  1.00  0.00    -0.241 C  
HETATM    6  C   UNL     1      -8.513  12.291  67.866  1.00  0.00    -0.165 C  
HETATM    7  C   UNL     1      -9.917  12.779  67.452  1.00  0.00    -0.212 C  
HETATM    8  C   UNL     1     -10.914  11.693  67.897  1.00  0.00    -0.277 C  
HETATM    9  C   UNL     1      -9.929  12.976  65.915  1.00  0.00    -0.270 C  
ENDROOT
BRANCH   4  10
HETATM   10  O   UNL     1     -11.658  16.049  68.338  1.00  0.00    -0.364 OA 
BRANCH  10  11
HETATM   11  C   UNL     1     -10.518  16.560  68.891  1.00  0.00    -0.304 C  
HETATM   12  O   UNL     1      -9.941  16.103  69.875  1.00  0.00    -0.183 OA 
BRANCH  11  13
HETATM   13  C   UNL     1     -10.032  17.804  68.141  1.00  0.00    -0.342 C  
HETATM   14  O   UNL     1     -10.365  18.997  68.860  1.00  0.00    -0.501 OA 
HETATM   15  H   UNL     1     -10.065  19.768  68.395  1.00  0.00     0.000 HD 
BRANCH  13  16
HETATM   16  C   UNL     1      -8.535  17.807  67.918  1.00  0.00    -0.245 A  
HETATM   17  C   UNL     1      -7.727  18.743  68.582  1.00  0.00    -0.358 A  
HETATM   18  C   UNL     1      -6.341  18.728  68.417  1.00  0.00    -0.229 A  
HETATM   19  C   UNL     1      -5.746  17.778  67.589  1.00  0.00    -0.145 A  
HETATM   20  C   UNL     1      -6.534  16.844  66.922  1.00  0.00    -0.249 A  
HETATM   21  C   UNL     1      -7.921  16.857  67.084  1.00  0.00    -0.210 A  
ENDBRANCH  13  16
ENDBRANCH  11  13
ENDBRANCH  10  11
ENDBRANCH   4  10
TORSDOF 4
ENDMDL
MODEL      133
REMARK 921   NORMALIZED FREE ENERGY PREDICTED BY IDOCK:   -4.33 KCAL/MOL
REMARK 922        TOTAL FREE ENERGY PREDICTED BY IDOCK:   -5.90 KCAL/MOL
REMARK 923 INTER-LIGAND FREE ENERGY PREDICTED BY IDOCK:   -6.05 KCAL/MOL
REMARK 924 INTRA-LIGAND FREE ENERGY PREDICTED BY IDOCK:    0.15 KCAL/MOL
REMARK 927      BINDING AFFINITY PREDICTED BY RF-SCORE:    0.00 PKD
ROOT
HETATM    1  C   UNL     1     -11.453   5.234  73.090  1.00  0.00    -0.316 C  
HETATM    2  C   UNL     1     -10.763   5.832  71.863  1.00  0.00    -0.297 C  
HETATM    3  C   UNL     1     -11.387   7.171  71.455  1.00  0.00    -0.285 C  
HETATM    4  C   UNL     1     -10.948   8.331  72.358  1.00  0.00    -0.368 C  
HETATM    5  C   UNL     1      -9.420   8.454  72.345  1.00  0.00    -0.365 C  
HETATM    6  C   UNL     1      -7.193   7.297  72.547  1.00  0.00    -0.071 C  
HETATM    7  C   UNL     1      -8.708   7.164  72.812  1.00  0.00    -0.139 C  
HETATM    8  C   UNL     1      -8.877   6.966  74.331  1.00  0.00    -0.217 C  
HETATM    9  C   UNL     1      -9.236   5.947  72.012  1.00  0.00    -0.154 C  
ENDROOT
BRANCH   4  10
HETATM   10  O   UNL     1     -11.508   9.570  71.877  1.00  0.00    -0.355 OA 
BRANCH  10  11
HETATM   11  C   UNL     1     -12.852   9.713  72.074  1.00  0.00    -0.410 C  
HETATM   12  O   UNL     1     -13.575   8.903  72.648  1.00  0.00    -0.439 OA 
BRANCH  11  13
HETATM   13  C   UNL     1     -13.376  11.023  71.474  1.00  0.00    -0.163 C  
HETATM   14  O   UNL     1     -13.486  12.036  72.479  1.00  0.00    -0.590 OA 
HETATM   15  H   UNL     1     -13.811  12.848  72.108  1.00  0.00     0.000 HD 
BRANCH  13  16
HETATM   16  C   UNL     1     -12.485  11.561  70.375  1.00  0.00    -0.324 A  
HETATM   17  C   UNL     1     -11.999  10.700  69.379  1.00  0.00    -0.298 A  
HETATM   18  C   UNL     1     -11.211  11.192  68.338  1.00  0.00    -0.325 A  
HETATM   19  C   UNL     1     -10.901  12.549  68.277  1.00  0.00    -0.258 A  
HETATM   20  C   UNL     1     -11.374  13.416  69.259  1.00  0.00    -0.314 A  
HETATM   21  C   UNL     1     -12.162  12.926  70.303  1.00  0.00    -0.362 A  
ENDBRANCH  13  16
ENDBRANCH  11  13
ENDBRANCH  10  11
ENDBRANCH   4  10
TORSDOF 4
ENDMDL
MODEL      134
REMARK 921   NORMALIZED FREE ENERGY PREDICTED BY IDOCK:   -4.33 KCAL/MOL
REMARK 922        TOTAL FREE ENERGY PREDICTED BY IDOCK:   -5.90 KCAL/MOL
REMARK 923 INTER-LIGAND FREE ENERGY PREDICTED BY IDOCK:   -4.98 KCAL/MOL
REMARK 924 INTRA-LIGAND FREE ENERGY PREDICTED BY IDOCK:   -0.92 KCAL/MOL
REMARK 927      BINDING AFFINITY PREDICTED BY RF-SCORE:    0.00 PKD
ROOT
HETATM    1  C   UNL     1     -11.669  13.615  68.712  1.00  0.00    -0.383 C  
HETATM    2  C   UNL     1     -10.417  14.200  68.054  1.00  0.00    -0.240 C  
HETATM    3  C   UNL     1      -9.460  13.103  67.576  1.00  0.00    -0.212 C  
HETATM    4  C   UNL     1      -9.922  12.437  66.274  1.00  0.00    -0.246 C  
HETATM    5  C   UNL     1     -10.080  13.494  65.174  1.00  0.00    -0.278 C  
HETATM    6  C   UNL     1     -11.006  15.734  64.497  1.00  0.00    -0.209 C  
HETATM    7  C   UNL     1     -11.086  14.606  65.547  1.00  0.00    -0.345 C  
HETATM    8  C   UNL     1     -12.530  14.070  65.514  1.00  0.00    -0.533 C  
HETATM    9  C   UNL     1     -10.727  15.204  66.930  1.00  0.00    -0.308 C  
ENDROOT
BRANCH   4  10
HETATM   10  O   UNL     1      -8.944  11.471  65.839  1.00  0.00    -0.204 OA 
BRANCH  10  11
HETATM   11  C   UNL     1      -9.457  10.283  65.401  1.00  0.00    -0.232 C  
HETATM   12  O   UNL     1     -10.230  10.151  64.456  1.00  0.00    -0.256 OA 
BRANCH  11  13
HETATM   13  C   UNL     1      -8.962   9.105  66.247  1.00  0.00    -0.158 C  
HETATM   14  O   UNL     1      -7.556   8.904  66.068  1.00  0.00    -0.092 OA 
HETATM   15  H   UNL     1      -7.249   8.174  66.592  1.00  0.00     0.000 HD 
BRANCH  13  16
HETATM   16  C   UNL     1      -9.213   9.300  67.727  1.00  0.00    -0.141 A  
HETATM   17  C   UNL     1     -10.523   9.471  68.202  1.00  0.00    -0.268 A  
HETATM   18  C   UNL     1     -10.770   9.610  69.568  1.00  0.00    -0.252 A  
HETATM   19  C   UNL     1      -9.714   9.579  70.476  1.00  0.00    -0.325 A  
HETATM   20  C   UNL     1      -8.409   9.413  70.021  1.00  0.00    -0.190 A  
HETATM   21  C   UNL     1      -8.158   9.275  68.654  1.00  0.00    -0.105 A  
ENDBRANCH  13  16
ENDBRANCH  11  13
ENDBRANCH  10  11
ENDBRANCH   4  10
TORSDOF 4
ENDMDL
MODEL      135
REMARK 921   NORMALIZED FREE ENERGY PREDICTED BY IDOCK:   -4.30 KCAL/MOL
REMARK 922        TOTAL FREE ENERGY PREDICTED BY IDOCK:   -5.86 KCAL/MOL
REMARK 923 INTER-LIGAND FREE ENERGY PREDICTED BY IDOCK:   -4.96 KCAL/MOL
REMARK 924 INTRA-LIGAND FREE ENERGY PREDICTED BY IDOCK:   -0.90 KCAL/MOL
REMARK 927      BINDING AFFINITY PREDICTED BY RF-SCORE:    0.00 PKD
ROOT
HETATM    1  C   UNL     1     -10.582  16.075  65.978  1.00  0.00    -0.324 C  
HETATM    2  C   UNL     1     -10.447  16.339  67.479  1.00  0.00    -0.302 C  
HETATM    3  C   UNL     1      -9.761  15.174  68.202  1.00  0.00    -0.217 C  
HETATM    4  C   UNL     1      -8.241  15.159  67.994  1.00  0.00    -0.142 C  
HETATM    5  C   UNL     1      -7.635  16.485  68.470  1.00  0.00    -0.200 C  
HETATM    6  C   UNL     1      -7.734  19.001  68.434  1.00  0.00    -0.354 C  
HETATM    7  C   UNL     1      -8.224  17.713  67.738  1.00  0.00    -0.225 C  
HETATM    8  C   UNL     1      -7.719  17.775  66.283  1.00  0.00    -0.308 C  
HETATM    9  C   UNL     1      -9.771  17.681  67.809  1.00  0.00    -0.280 C  
ENDROOT
BRANCH   4  10
HETATM   10  O   UNL     1      -7.649  14.089  68.759  1.00  0.00    -0.123 OA 
BRANCH  10  11
HETATM   11  C   UNL     1      -7.123  13.070  68.018  1.00  0.00    -0.115 C  
HETATM   12  O   UNL     1      -6.063  13.117  67.398  1.00  0.00    -0.275 OA 
BRANCH  11  13
HETATM   13  C   UNL     1      -8.028  11.833  68.032  1.00  0.00    -0.141 C  
HETATM   14  O   UNL     1      -8.376  11.471  69.373  1.00  0.00    -0.348 OA 
HETATM   15  H   UNL     1      -8.936  10.704  69.382  1.00  0.00     0.000 HD 
BRANCH  13  16
HETATM   16  C   UNL     1      -9.316  12.041  67.265  1.00  0.00    -0.180 A  
HETATM   17  C   UNL     1      -9.283  12.228  65.874  1.00  0.00    -0.031 A  
HETATM   18  C   UNL     1     -10.467  12.380  65.150  1.00  0.00    -0.321 A  
HETATM   19  C   UNL     1     -11.696  12.343  65.805  1.00  0.00    -0.470 A  
HETATM   20  C   UNL     1     -11.745  12.159  67.184  1.00  0.00    -0.372 A  
HETATM   21  C   UNL     1     -10.562  12.010  67.912  1.00  0.00    -0.227 A  
ENDBRANCH  13  16
ENDBRANCH  11  13
ENDBRANCH  10  11
ENDBRANCH   4  10
TORSDOF 4
ENDMDL
MODEL      136
REMARK 921   NORMALIZED FREE ENERGY PREDICTED BY IDOCK:   -4.29 KCAL/MOL
REMARK 922        TOTAL FREE ENERGY PREDICTED BY IDOCK:   -5.85 KCAL/MOL
REMARK 923 INTER-LIGAND FREE ENERGY PREDICTED BY IDOCK:   -4.94 KCAL/MOL
REMARK 924 INTRA-LIGAND FREE ENERGY PREDICTED BY IDOCK:   -0.91 KCAL/MOL
REMARK 927      BINDING AFFINITY PREDICTED BY RF-SCORE:    0.00 PKD
ROOT
HETATM    1  C   UNL     1      -9.689   8.483  66.536  1.00  0.00    -0.330 C  
HETATM    2  C   UNL     1      -8.436   7.683  66.896  1.00  0.00    -0.126 C  
HETATM    3  C   UNL     1      -8.192   7.660  68.410  1.00  0.00    -0.125 C  
HETATM    4  C   UNL     1      -9.117   6.682  69.146  1.00  0.00    -0.137 C  
HETATM    5  C   UNL     1      -8.943   5.268  68.578  1.00  0.00    -0.118 C  
HETATM    6  C   UNL     1      -8.817   3.799  66.537  1.00  0.00    -0.126 C  
HETATM    7  C   UNL     1      -9.240   5.187  67.063  1.00  0.00    -0.117 C  
HETATM    8  C   UNL     1     -10.751   5.323  66.795  1.00  0.00    -0.241 C  
HETATM    9  C   UNL     1      -8.422   6.263  66.304  1.00  0.00    -0.133 C  
ENDROOT
BRANCH   4  10
HETATM   10  O   UNL     1      -8.786   6.652  70.549  1.00  0.00    -0.149 OA 
BRANCH  10  11
HETATM   11  C   UNL     1      -9.837   6.861  71.397  1.00  0.00    -0.178 C  
HETATM   12  O   UNL     1     -10.711   6.039  71.660  1.00  0.00    -0.234 OA 
BRANCH  11  13
HETATM   13  C   UNL     1      -9.814   8.274  71.989  1.00  0.00    -0.257 C  
HETATM   14  O   UNL     1      -8.537   8.890  71.793  1.00  0.00    -0.318 OA 
HETATM   15  H   UNL     1      -8.522   9.765  72.160  1.00  0.00     0.000 HD 
BRANCH  13  16
HETATM   16  C   UNL     1     -10.860   9.183  71.378  1.00  0.00    -0.419 A  
HETATM   17  C   UNL     1     -12.083   9.389  72.035  1.00  0.00    -0.379 A  
HETATM   18  C   UNL     1     -13.038  10.256  71.503  1.00  0.00    -0.534 A  
HETATM   19  C   UNL     1     -12.782  10.929  70.310  1.00  0.00    -0.285 A  
HETATM   20  C   UNL     1     -11.574  10.733  69.645  1.00  0.00    -0.388 A  
HETATM   21  C   UNL     1     -10.618   9.865  70.174  1.00  0.00    -0.350 A  
ENDBRANCH  13  16
ENDBRANCH  11  13
ENDBRANCH  10  11
ENDBRANCH   4  10
TORSDOF 4
ENDMDL
MODEL      137
REMARK 921   NORMALIZED FREE ENERGY PREDICTED BY IDOCK:   -4.29 KCAL/MOL
REMARK 922        TOTAL FREE ENERGY PREDICTED BY IDOCK:   -5.85 KCAL/MOL
REMARK 923 INTER-LIGAND FREE ENERGY PREDICTED BY IDOCK:   -5.34 KCAL/MOL
REMARK 924 INTRA-LIGAND FREE ENERGY PREDICTED BY IDOCK:   -0.51 KCAL/MOL
REMARK 927      BINDING AFFINITY PREDICTED BY RF-SCORE:    0.00 PKD
ROOT
HETATM    1  C   UNL     1     -13.042   8.818  71.803  1.00  0.00    -0.406 C  
HETATM    2  C   UNL     1     -12.019   7.743  72.177  1.00  0.00    -0.362 C  
HETATM    3  C   UNL     1     -12.014   6.588  71.169  1.00  0.00    -0.365 C  
HETATM    4  C   UNL     1     -11.281   6.938  69.868  1.00  0.00    -0.285 C  
HETATM    5  C   UNL     1      -9.837   7.353  70.177  1.00  0.00    -0.180 C  
HETATM    6  C   UNL     1      -8.283   8.759  71.571  1.00  0.00    -0.190 C  
HETATM    7  C   UNL     1      -9.750   8.562  71.136  1.00  0.00    -0.257 C  
HETATM    8  C   UNL     1     -10.180   9.858  70.421  1.00  0.00    -0.299 C  
HETATM    9  C   UNL     1     -10.601   8.296  72.403  1.00  0.00    -0.408 C  
ENDROOT
BRANCH   4  10
HETATM   10  O   UNL     1     -11.247   5.789  68.997  1.00  0.00    -0.236 OA 
BRANCH  10  11
HETATM   11  C   UNL     1     -10.060   5.587  68.351  1.00  0.00    -0.178 C  
HETATM   12  O   UNL     1      -9.082   5.015  68.826  1.00  0.00    -0.103 OA 
BRANCH  11  13
HETATM   13  C   UNL     1     -10.077   6.178  66.937  1.00  0.00    -0.183 C  
HETATM   14  O   UNL     1     -11.401   6.160  66.392  1.00  0.00    -0.715 OA 
HETATM   15  H   UNL     1     -11.412   6.525  65.516  1.00  0.00     0.000 HD 
BRANCH  13  16
HETATM   16  C   UNL     1      -9.583   7.608  66.893  1.00  0.00    -0.249 A  
HETATM   17  C   UNL     1     -10.498   8.664  66.761  1.00  0.00    -0.298 A  
HETATM   18  C   UNL     1     -10.058   9.989  66.762  1.00  0.00    -0.286 A  
HETATM   19  C   UNL     1      -8.701  10.274  66.897  1.00  0.00    -0.131 A  
HETATM   20  C   UNL     1      -7.781   9.237  67.027  1.00  0.00    -0.095 A  
HETATM   21  C   UNL     1      -8.218   7.911  67.025  1.00  0.00    -0.117 A  
ENDBRANCH  13  16
ENDBRANCH  11  13
ENDBRANCH  10  11
ENDBRANCH   4  10
TORSDOF 4
ENDMDL
MODEL      138
REMARK 921   NORMALIZED FREE ENERGY PREDICTED BY IDOCK:   -4.29 KCAL/MOL
REMARK 922        TOTAL FREE ENERGY PREDICTED BY IDOCK:   -5.85 KCAL/MOL
REMARK 923 INTER-LIGAND FREE ENERGY PREDICTED BY IDOCK:   -5.39 KCAL/MOL
REMARK 924 INTRA-LIGAND FREE ENERGY PREDICTED BY IDOCK:   -0.45 KCAL/MOL
REMARK 927      BINDING AFFINITY PREDICTED BY RF-SCORE:    0.00 PKD
ROOT
HETATM    1  C   UNL     1      -9.732  14.665  66.175  1.00  0.00    -0.344 C  
HETATM    2  C   UNL     1     -11.222  14.616  66.520  1.00  0.00    -0.346 C  
HETATM    3  C   UNL     1     -11.721  13.175  66.679  1.00  0.00    -0.427 C  
HETATM    4  C   UNL     1     -11.315  12.551  68.020  1.00  0.00    -0.289 C  
HETATM    5  C   UNL     1     -11.845  13.407  69.178  1.00  0.00    -0.383 C  
HETATM    6  C   UNL     1     -12.089  15.702  70.184  1.00  0.00    -0.400 C  
HETATM    7  C   UNL     1     -11.331  14.865  69.132  1.00  0.00    -0.309 C  
HETATM    8  C   UNL     1      -9.837  14.929  69.506  1.00  0.00    -0.071 C  
HETATM    9  C   UNL     1     -11.600  15.479  67.736  1.00  0.00    -0.193 C  
ENDROOT
BRANCH   4  10
HETATM   10  O   UNL     1     -11.878  11.229  68.140  1.00  0.00    -0.553 OA 
BRANCH  10  11
HETATM   11  C   UNL     1     -10.990  10.204  67.974  1.00  0.00    -0.270 C  
HETATM   12  O   UNL     1     -10.612   9.762  66.892  1.00  0.00    -0.227 OA 
BRANCH  11  13
HETATM   13  C   UNL     1     -10.514   9.644  69.318  1.00  0.00    -0.217 C  
HETATM   14  O   UNL     1     -11.595   9.573  70.253  1.00  0.00    -0.351 OA 
HETATM   15  H   UNL     1     -11.300   9.226  71.087  1.00  0.00     0.000 HD 
BRANCH  13  16
HETATM   16  C   UNL     1      -9.921   8.256  69.197  1.00  0.00    -0.196 A  
HETATM   17  C   UNL     1      -8.530   8.078  69.252  1.00  0.00    -0.136 A  
HETATM   18  C   UNL     1      -7.974   6.800  69.183  1.00  0.00    -0.112 A  
HETATM   19  C   UNL     1      -8.800   5.685  69.060  1.00  0.00    -0.106 A  
HETATM   20  C   UNL     1     -10.182   5.845  69.002  1.00  0.00    -0.261 A  
HETATM   21  C   UNL     1     -10.741   7.122  69.069  1.00  0.00    -0.204 A  
ENDBRANCH  13  16
ENDBRANCH  11  13
ENDBRANCH  10  11
ENDBRANCH   4  10
TORSDOF 4
ENDMDL
MODEL      139
REMARK 921   NORMALIZED FREE ENERGY PREDICTED BY IDOCK:   -4.27 KCAL/MOL
REMARK 922        TOTAL FREE ENERGY PREDICTED BY IDOCK:   -5.82 KCAL/MOL
REMARK 923 INTER-LIGAND FREE ENERGY PREDICTED BY IDOCK:   -5.76 KCAL/MOL
REMARK 924 INTRA-LIGAND FREE ENERGY PREDICTED BY IDOCK:   -0.06 KCAL/MOL
REMARK 927      BINDING AFFINITY PREDICTED BY RF-SCORE:    0.00 PKD
ROOT
HETATM    1  C   UNL     1      -8.853   7.808  72.945  1.00  0.00    -0.233 C  
HETATM    2  C   UNL     1      -9.698   8.537  71.897  1.00  0.00    -0.358 C  
HETATM    3  C   UNL     1      -9.262   8.185  70.470  1.00  0.00    -0.157 C  
HETATM    4  C   UNL     1      -9.761   6.806  70.020  1.00  0.00    -0.163 C  
HETATM    5  C   UNL     1     -11.290   6.746  70.117  1.00  0.00    -0.404 C  
HETATM    6  C   UNL     1     -13.349   7.171  71.502  1.00  0.00    -0.413 C  
HETATM    7  C   UNL     1     -11.814   7.022  71.546  1.00  0.00    -0.351 C  
HETATM    8  C   UNL     1     -11.510   5.833  72.477  1.00  0.00    -0.349 C  
HETATM    9  C   UNL     1     -11.212   8.343  72.085  1.00  0.00    -0.431 C  
ENDROOT
BRANCH   4  10
HETATM   10  O   UNL     1      -9.383   6.568  68.649  1.00  0.00    -0.127 OA 
BRANCH  10  11
HETATM   11  C   UNL     1     -10.104   7.265  67.720  1.00  0.00    -0.180 C  
HETATM   12  O   UNL     1     -11.226   6.965  67.323  1.00  0.00    -0.317 OA 
BRANCH  11  13
HETATM   13  C   UNL     1      -9.334   8.487  67.207  1.00  0.00    -0.149 C  
HETATM   14  O   UNL     1      -8.833   8.256  65.886  1.00  0.00    -0.151 OA 
HETATM   15  H   UNL     1      -8.356   9.013  65.567  1.00  0.00     0.000 HD 
BRANCH  13  16
HETATM   16  C   UNL     1     -10.184   9.739  67.163  1.00  0.00    -0.288 A  
HETATM   17  C   UNL     1     -10.894  10.147  68.303  1.00  0.00    -0.297 A  
HETATM   18  C   UNL     1     -11.648  11.321  68.287  1.00  0.00    -0.370 A  
HETATM   19  C   UNL     1     -11.700  12.102  67.135  1.00  0.00    -0.372 A  
HETATM   20  C   UNL     1     -11.003  11.710  65.995  1.00  0.00    -0.338 A  
HETATM   21  C   UNL     1     -10.250  10.534  66.007  1.00  0.00    -0.310 A  
ENDBRANCH  13  16
ENDBRANCH  11  13
ENDBRANCH  10  11
ENDBRANCH   4  10
TORSDOF 4
ENDMDL
MODEL      140
REMARK 921   NORMALIZED FREE ENERGY PREDICTED BY IDOCK:   -4.26 KCAL/MOL
REMARK 922        TOTAL FREE ENERGY PREDICTED BY IDOCK:   -5.81 KCAL/MOL
REMARK 923 INTER-LIGAND FREE ENERGY PREDICTED BY IDOCK:   -5.11 KCAL/MOL
REMARK 924 INTRA-LIGAND FREE ENERGY PREDICTED BY IDOCK:   -0.70 KCAL/MOL
REMARK 927      BINDING AFFINITY PREDICTED BY RF-SCORE:    0.00 PKD
ROOT
HETATM    1  C   UNL     1      -5.572  16.672  69.020  1.00  0.00    -0.135 C  
HETATM    2  C   UNL     1      -5.365  17.323  67.651  1.00  0.00    -0.129 C  
HETATM    3  C   UNL     1      -6.489  16.961  66.673  1.00  0.00    -0.235 C  
HETATM    4  C   UNL     1      -7.779  17.748  66.934  1.00  0.00    -0.215 C  
HETATM    5  C   UNL     1      -7.498  19.254  66.856  1.00  0.00    -0.232 C  
HETATM    6  C   UNL     1      -6.040  21.182  67.557  1.00  0.00    -0.420 C  
HETATM    7  C   UNL     1      -6.421  19.718  67.863  1.00  0.00    -0.267 C  
HETATM    8  C   UNL     1      -6.973  19.695  69.302  1.00  0.00    -0.375 C  
HETATM    9  C   UNL     1      -5.150  18.845  67.720  1.00  0.00    -0.167 C  
ENDROOT
BRANCH   4  10
HETATM   10  O   UNL     1      -8.768  17.419  65.938  1.00  0.00    -0.522 OA 
BRANCH  10  11
HETATM   11  C   UNL     1      -9.777  16.604  66.369  1.00  0.00    -0.286 C  
HETATM   12  O   UNL     1     -10.729  16.234  65.688  1.00  0.00    -0.338 OA 
BRANCH  11  13
HETATM   13  C   UNL     1      -9.592  16.203  67.837  1.00  0.00    -0.223 C  
HETATM   14  O   UNL     1     -10.661  16.710  68.643  1.00  0.00    -0.295 OA 
HETATM   15  H   UNL     1     -10.546  16.461  69.552  1.00  0.00     0.000 HD 
BRANCH  13  16
HETATM   16  C   UNL     1      -9.543  14.702  68.031  1.00  0.00    -0.212 A  
HETATM   17  C   UNL     1     -10.724  13.987  68.287  1.00  0.00    -0.262 A  
HETATM   18  C   UNL     1     -10.698  12.599  68.427  1.00  0.00    -0.260 A  
HETATM   19  C   UNL     1      -9.493  11.908  68.311  1.00  0.00    -0.197 A  
HETATM   20  C   UNL     1      -8.313  12.603  68.059  1.00  0.00    -0.175 A  
HETATM   21  C   UNL     1      -8.336  13.992  67.921  1.00  0.00    -0.168 A  
ENDBRANCH  13  16
ENDBRANCH  11  13
ENDBRANCH  10  11
ENDBRANCH   4  10
TORSDOF 4
ENDMDL
MODEL      141
REMARK 921   NORMALIZED FREE ENERGY PREDICTED BY IDOCK:   -4.26 KCAL/MOL
REMARK 922        TOTAL FREE ENERGY PREDICTED BY IDOCK:   -5.80 KCAL/MOL
REMARK 923 INTER-LIGAND FREE ENERGY PREDICTED BY IDOCK:   -5.14 KCAL/MOL
REMARK 924 INTRA-LIGAND FREE ENERGY PREDICTED BY IDOCK:   -0.67 KCAL/MOL
REMARK 927      BINDING AFFINITY PREDICTED BY RF-SCORE:    0.00 PKD
ROOT
HETATM    1  C   UNL     1     -12.397   9.437  71.701  1.00  0.00    -0.465 C  
HETATM    2  C   UNL     1     -11.703   8.123  72.068  1.00  0.00    -0.389 C  
HETATM    3  C   UNL     1     -11.980   7.025  71.034  1.00  0.00    -0.406 C  
HETATM    4  C   UNL     1     -11.149   7.192  69.755  1.00  0.00    -0.210 C  
HETATM    5  C   UNL     1      -9.655   7.205  70.100  1.00  0.00    -0.168 C  
HETATM    6  C   UNL     1      -7.818   8.127  71.554  1.00  0.00    -0.122 C  
HETATM    7  C   UNL     1      -9.275   8.332  71.088  1.00  0.00    -0.200 C  
HETATM    8  C   UNL     1      -9.330   9.707  70.396  1.00  0.00    -0.268 C  
HETATM    9  C   UNL     1     -10.195   8.278  72.333  1.00  0.00    -0.397 C  
ENDROOT
BRANCH   4  10
HETATM   10  O   UNL     1     -11.398   6.090  68.858  1.00  0.00    -0.307 OA 
BRANCH  10  11
HETATM   11  C   UNL     1     -11.010   6.297  67.565  1.00  0.00    -0.350 C  
HETATM   12  O   UNL     1     -11.027   7.379  66.984  1.00  0.00    -0.332 OA 
BRANCH  11  13
HETATM   13  C   UNL     1     -10.550   4.997  66.897  1.00  0.00    -0.117 C  
HETATM   14  O   UNL     1     -11.188   4.822  65.627  1.00  0.00    -0.888 OA 
HETATM   15  H   UNL     1     -10.903   4.017  65.213  1.00  0.00     0.000 HD 
BRANCH  13  16
HETATM   16  C   UNL     1      -9.054   4.954  66.668  1.00  0.00    -0.119 A  
HETATM   17  C   UNL     1      -8.527   5.258  65.403  1.00  0.00    -0.145 A  
HETATM   18  C   UNL     1      -7.148   5.262  65.190  1.00  0.00    -0.065 A  
HETATM   19  C   UNL     1      -6.279   4.966  66.238  1.00  0.00    -0.035 A  
HETATM   20  C   UNL     1      -6.786   4.660  67.498  1.00  0.00    -0.051 A  
HETATM   21  C   UNL     1      -8.165   4.653  67.714  1.00  0.00    -0.099 A  
ENDBRANCH  13  16
ENDBRANCH  11  13
ENDBRANCH  10  11
ENDBRANCH   4  10
TORSDOF 4
ENDMDL
MODEL      142
REMARK 921   NORMALIZED FREE ENERGY PREDICTED BY IDOCK:   -4.24 KCAL/MOL
REMARK 922        TOTAL FREE ENERGY PREDICTED BY IDOCK:   -5.78 KCAL/MOL
REMARK 923 INTER-LIGAND FREE ENERGY PREDICTED BY IDOCK:   -5.08 KCAL/MOL
REMARK 924 INTRA-LIGAND FREE ENERGY PREDICTED BY IDOCK:   -0.71 KCAL/MOL
REMARK 927      BINDING AFFINITY PREDICTED BY RF-SCORE:    0.00 PKD
ROOT
HETATM    1  C   UNL     1     -12.265   6.303  70.908  1.00  0.00     0.102 C  
HETATM    2  C   UNL     1     -10.937   6.788  70.323  1.00  0.00    -0.339 C  
HETATM    3  C   UNL     1     -10.980   8.280  69.974  1.00  0.00    -0.197 C  
HETATM    4  C   UNL     1     -10.849   9.182  71.207  1.00  0.00    -0.332 C  
HETATM    5  C   UNL     1      -9.545   8.868  71.950  1.00  0.00    -0.326 C  
HETATM    6  C   UNL     1      -8.025   7.114  72.925  1.00  0.00    -0.114 C  
HETATM    7  C   UNL     1      -9.450   7.393  72.402  1.00  0.00    -0.189 C  
HETATM    8  C   UNL     1     -10.414   7.117  73.571  1.00  0.00    -0.422 C  
HETATM    9  C   UNL     1      -9.719   6.452  71.201  1.00  0.00    -0.191 C  
ENDROOT
BRANCH   4  10
HETATM   10  O   UNL     1     -10.820  10.567  70.805  1.00  0.00    -0.091 OA 
BRANCH  10  11
HETATM   11  C   UNL     1     -12.035  11.101  70.479  1.00  0.00    -0.380 C  
HETATM   12  O   UNL     1     -13.114  10.745  70.946  1.00  0.00    -0.331 OA 
BRANCH  11  13
HETATM   13  C   UNL     1     -11.903  12.213  69.433  1.00  0.00    -0.309 C  
HETATM   14  O   UNL     1     -11.511  13.446  70.045  1.00  0.00    -0.483 OA 
HETATM   15  H   UNL     1     -11.429  14.135  69.397  1.00  0.00     0.000 HD 
BRANCH  13  16
HETATM   16  C   UNL     1     -10.884  11.890  68.360  1.00  0.00    -0.263 A  
HETATM   17  C   UNL     1      -9.629  12.517  68.371  1.00  0.00    -0.176 A  
HETATM   18  C   UNL     1      -8.666  12.197  67.412  1.00  0.00    -0.177 A  
HETATM   19  C   UNL     1      -8.946  11.245  66.433  1.00  0.00    -0.194 A  
HETATM   20  C   UNL     1     -10.187  10.616  66.408  1.00  0.00    -0.291 A  
HETATM   21  C   UNL     1     -11.153  10.936  67.365  1.00  0.00    -0.373 A  
ENDBRANCH  13  16
ENDBRANCH  11  13
ENDBRANCH  10  11
ENDBRANCH   4  10
TORSDOF 4
ENDMDL
MODEL      143
REMARK 921   NORMALIZED FREE ENERGY PREDICTED BY IDOCK:   -4.23 KCAL/MOL
REMARK 922        TOTAL FREE ENERGY PREDICTED BY IDOCK:   -5.77 KCAL/MOL
REMARK 923 INTER-LIGAND FREE ENERGY PREDICTED BY IDOCK:   -4.86 KCAL/MOL
REMARK 924 INTRA-LIGAND FREE ENERGY PREDICTED BY IDOCK:   -0.92 KCAL/MOL
REMARK 927      BINDING AFFINITY PREDICTED BY RF-SCORE:    0.00 PKD
ROOT
HETATM    1  C   UNL     1     -10.803   9.801  67.909  1.00  0.00    -0.298 C  
HETATM    2  C   UNL     1      -9.411   9.390  67.423  1.00  0.00    -0.163 C  
HETATM    3  C   UNL     1      -8.467   9.087  68.593  1.00  0.00    -0.128 C  
HETATM    4  C   UNL     1      -8.730   7.716  69.228  1.00  0.00    -0.136 C  
HETATM    5  C   UNL     1      -8.602   6.615  68.168  1.00  0.00    -0.115 C  
HETATM    6  C   UNL     1      -9.216   5.799  65.867  1.00  0.00    -0.128 C  
HETATM    7  C   UNL     1      -9.573   6.806  66.981  1.00  0.00    -0.188 C  
HETATM    8  C   UNL     1     -11.022   6.502  67.407  1.00  0.00    -0.458 C  
HETATM    9  C   UNL     1      -9.431   8.237  66.405  1.00  0.00    -0.287 C  
ENDROOT
BRANCH   4  10
HETATM   10  O   UNL     1      -7.764   7.461  70.268  1.00  0.00    -0.090 OA 
BRANCH  10  11
HETATM   11  C   UNL     1      -8.212   6.682  71.297  1.00  0.00    -0.120 C  
HETATM   12  O   UNL     1      -8.079   5.464  71.374  1.00  0.00    -0.111 OA 
BRANCH  11  13
HETATM   13  C   UNL     1      -8.929   7.514  72.366  1.00  0.00    -0.135 C  
HETATM   14  O   UNL     1      -8.296   8.788  72.530  1.00  0.00    -0.398 OA 
HETATM   15  H   UNL     1      -8.740   9.304  73.192  1.00  0.00     0.000 HD 
BRANCH  13  16
HETATM   16  C   UNL     1     -10.385   7.764  72.035  1.00  0.00    -0.267 A  
HETATM   17  C   UNL     1     -10.836   9.070  71.791  1.00  0.00    -0.437 A  
HETATM   18  C   UNL     1     -12.167   9.309  71.445  1.00  0.00    -0.426 A  
HETATM   19  C   UNL     1     -13.061   8.246  71.336  1.00  0.00    -0.240 A  
HETATM   20  C   UNL     1     -12.629   6.944  71.577  1.00  0.00    -0.412 A  
HETATM   21  C   UNL     1     -11.299   6.703  71.926  1.00  0.00    -0.318 A  
ENDBRANCH  13  16
ENDBRANCH  11  13
ENDBRANCH  10  11
ENDBRANCH   4  10
TORSDOF 4
ENDMDL
MODEL      144
REMARK 921   NORMALIZED FREE ENERGY PREDICTED BY IDOCK:   -4.22 KCAL/MOL
REMARK 922        TOTAL FREE ENERGY PREDICTED BY IDOCK:   -5.76 KCAL/MOL
REMARK 923 INTER-LIGAND FREE ENERGY PREDICTED BY IDOCK:   -5.56 KCAL/MOL
REMARK 924 INTRA-LIGAND FREE ENERGY PREDICTED BY IDOCK:   -0.20 KCAL/MOL
REMARK 927      BINDING AFFINITY PREDICTED BY RF-SCORE:    0.00 PKD
ROOT
HETATM    1  C   UNL     1      -8.986   8.381  65.998  1.00  0.00    -0.228 C  
HETATM    2  C   UNL     1      -8.236   9.483  65.246  1.00  0.00    -0.131 C  
HETATM    3  C   UNL     1      -9.190  10.375  64.444  1.00  0.00    -0.291 C  
HETATM    4  C   UNL     1      -9.941  11.384  65.322  1.00  0.00    -0.258 C  
HETATM    5  C   UNL     1      -8.939  12.261  66.084  1.00  0.00    -0.009 C  
HETATM    6  C   UNL     1      -6.871  12.373  67.515  1.00  0.00    -0.143 C  
HETATM    7  C   UNL     1      -7.979  11.443  66.977  1.00  0.00    -0.158 C  
HETATM    8  C   UNL     1      -8.721  10.880  68.204  1.00  0.00    -0.133 C  
HETATM    9  C   UNL     1      -7.309  10.320  66.146  1.00  0.00    -0.122 C  
ENDROOT
BRANCH   4  10
HETATM   10  O   UNL     1     -10.761  12.239  64.501  1.00  0.00    -0.287 OA 
BRANCH  10  11
HETATM   11  C   UNL     1     -10.813  13.546  64.897  1.00  0.00    -0.362 C  
HETATM   12  O   UNL     1      -9.931  14.379  64.709  1.00  0.00    -0.269 OA 
BRANCH  11  13
HETATM   13  C   UNL     1     -12.120  13.864  65.631  1.00  0.00    -0.421 C  
HETATM   14  O   UNL     1     -13.138  12.913  65.297  1.00  0.00    -0.682 OA 
HETATM   15  H   UNL     1     -13.948  13.110  65.751  1.00  0.00     0.000 HD 
BRANCH  13  16
HETATM   16  C   UNL     1     -11.963  13.857  67.137  1.00  0.00    -0.455 A  
HETATM   17  C   UNL     1     -11.872  15.068  67.840  1.00  0.00    -0.243 A  
HETATM   18  C   UNL     1     -11.768  15.075  69.232  1.00  0.00    -0.349 A  
HETATM   19  C   UNL     1     -11.757  13.874  69.937  1.00  0.00    -0.358 A  
HETATM   20  C   UNL     1     -11.845  12.664  69.254  1.00  0.00    -0.358 A  
HETATM   21  C   UNL     1     -11.946  12.654  67.861  1.00  0.00    -0.307 A  
ENDBRANCH  13  16
ENDBRANCH  11  13
ENDBRANCH  10  11
ENDBRANCH   4  10
TORSDOF 4
ENDMDL
MODEL      145
REMARK 921   NORMALIZED FREE ENERGY PREDICTED BY IDOCK:   -4.19 KCAL/MOL
REMARK 922        TOTAL FREE ENERGY PREDICTED BY IDOCK:   -5.73 KCAL/MOL
REMARK 923 INTER-LIGAND FREE ENERGY PREDICTED BY IDOCK:   -4.82 KCAL/MOL
REMARK 924 INTRA-LIGAND FREE ENERGY PREDICTED BY IDOCK:   -0.90 KCAL/MOL
REMARK 927      BINDING AFFINITY PREDICTED BY RF-SCORE:    0.00 PKD
ROOT
HETATM    1  C   UNL     1     -12.009  11.855  66.973  1.00  0.00    -0.024 C  
HETATM    2  C   UNL     1     -11.777  13.254  67.550  1.00  0.00    -0.410 C  
HETATM    3  C   UNL     1     -10.454  13.340  68.319  1.00  0.00    -0.257 C  
HETATM    4  C   UNL     1      -9.235  13.440  67.393  1.00  0.00    -0.213 C  
HETATM    5  C   UNL     1      -9.373  14.661  66.475  1.00  0.00    -0.313 C  
HETATM    6  C   UNL     1     -10.827  15.979  64.899  1.00  0.00    -0.391 C  
HETATM    7  C   UNL     1     -10.653  14.620  65.608  1.00  0.00    -0.344 C  
HETATM    8  C   UNL     1     -10.529  13.554  64.502  1.00  0.00    -0.426 C  
HETATM    9  C   UNL     1     -11.893  14.377  66.504  1.00  0.00    -0.406 C  
ENDROOT
BRANCH   4  10
HETATM   10  O   UNL     1      -8.033  13.594  68.175  1.00  0.00    -0.127 OA 
BRANCH  10  11
HETATM   11  C   UNL     1      -6.979  12.822  67.777  1.00  0.00    -0.131 C  
HETATM   12  O   UNL     1      -6.013  13.219  67.132  1.00  0.00    -0.304 OA 
BRANCH  11  13
HETATM   13  C   UNL     1      -7.144  11.365  68.223  1.00  0.00    -0.078 C  
HETATM   14  O   UNL     1      -7.660  11.295  69.556  1.00  0.00    -0.348 OA 
HETATM   15  H   UNL     1      -7.762  10.392  69.833  1.00  0.00     0.000 HD 
BRANCH  13  16
HETATM   16  C   UNL     1      -8.080  10.581  67.327  1.00  0.00    -0.115 A  
HETATM   17  C   UNL     1      -8.960   9.639  67.883  1.00  0.00    -0.120 A  
HETATM   18  C   UNL     1      -9.856   8.940  67.072  1.00  0.00    -0.277 A  
HETATM   19  C   UNL     1      -9.885   9.175  65.699  1.00  0.00    -0.164 A  
HETATM   20  C   UNL     1      -9.017  10.104  65.133  1.00  0.00    -0.225 A  
HETATM   21  C   UNL     1      -8.118  10.804  65.941  1.00  0.00    -0.148 A  
ENDBRANCH  13  16
ENDBRANCH  11  13
ENDBRANCH  10  11
ENDBRANCH   4  10
TORSDOF 4
ENDMDL
MODEL      146
REMARK 921   NORMALIZED FREE ENERGY PREDICTED BY IDOCK:   -4.19 KCAL/MOL
REMARK 922        TOTAL FREE ENERGY PREDICTED BY IDOCK:   -5.72 KCAL/MOL
REMARK 923 INTER-LIGAND FREE ENERGY PREDICTED BY IDOCK:   -5.17 KCAL/MOL
REMARK 924 INTRA-LIGAND FREE ENERGY PREDICTED BY IDOCK:   -0.55 KCAL/MOL
REMARK 927      BINDING AFFINITY PREDICTED BY RF-SCORE:    0.00 PKD
ROOT
HETATM    1  C   UNL     1      -9.436   5.420  68.152  1.00  0.00    -0.142 C  
HETATM    2  C   UNL     1      -9.979   5.926  66.814  1.00  0.00    -0.212 C  
HETATM    3  C   UNL     1     -10.850   7.175  66.990  1.00  0.00    -0.382 C  
HETATM    4  C   UNL     1     -10.024   8.447  67.219  1.00  0.00    -0.227 C  
HETATM    5  C   UNL     1      -9.055   8.660  66.049  1.00  0.00    -0.255 C  
HETATM    6  C   UNL     1      -7.319   7.666  64.521  1.00  0.00    -0.086 C  
HETATM    7  C   UNL     1      -8.089   7.471  65.845  1.00  0.00    -0.127 C  
HETATM    8  C   UNL     1      -7.035   7.424  66.968  1.00  0.00    -0.082 C  
HETATM    9  C   UNL     1      -8.888   6.148  65.752  1.00  0.00    -0.133 C  
ENDROOT
BRANCH   4  10
HETATM   10  O   UNL     1     -10.896   9.594  67.300  1.00  0.00    -0.254 OA 
BRANCH  10  11
HETATM   11  C   UNL     1     -10.599  10.477  68.299  1.00  0.00    -0.206 C  
HETATM   12  O   UNL     1      -9.730  10.317  69.152  1.00  0.00    -0.195 OA 
BRANCH  11  13
HETATM   13  C   UNL     1     -11.499  11.717  68.245  1.00  0.00    -0.303 C  
HETATM   14  O   UNL     1     -11.335  12.518  69.420  1.00  0.00    -0.334 OA 
HETATM   15  H   UNL     1     -11.892  13.286  69.387  1.00  0.00     0.000 HD 
BRANCH  13  16
HETATM   16  C   UNL     1     -11.212  12.597  67.047  1.00  0.00    -0.348 A  
HETATM   17  C   UNL     1     -12.088  12.599  65.950  1.00  0.00    -0.459 A  
HETATM   18  C   UNL     1     -11.857  13.436  64.858  1.00  0.00    -0.403 A  
HETATM   19  C   UNL     1     -10.750  14.282  64.848  1.00  0.00    -0.448 A  
HETATM   20  C   UNL     1      -9.870  14.290  65.927  1.00  0.00    -0.322 A  
HETATM   21  C   UNL     1     -10.098  13.452  67.021  1.00  0.00    -0.247 A  
ENDBRANCH  13  16
ENDBRANCH  11  13
ENDBRANCH  10  11
ENDBRANCH   4  10
TORSDOF 4
ENDMDL
MODEL      147
REMARK 921   NORMALIZED FREE ENERGY PREDICTED BY IDOCK:   -4.18 KCAL/MOL
REMARK 922        TOTAL FREE ENERGY PREDICTED BY IDOCK:   -5.71 KCAL/MOL
REMARK 923 INTER-LIGAND FREE ENERGY PREDICTED BY IDOCK:   -5.99 KCAL/MOL
REMARK 924 INTRA-LIGAND FREE ENERGY PREDICTED BY IDOCK:    0.28 KCAL/MOL
REMARK 927      BINDING AFFINITY PREDICTED BY RF-SCORE:    0.00 PKD
ROOT
HETATM    1  C   UNL     1     -10.609   7.512  67.433  1.00  0.00    -0.364 C  
HETATM    2  C   UNL     1      -9.690   8.566  66.811  1.00  0.00    -0.303 C  
HETATM    3  C   UNL     1     -10.485   9.735  66.217  1.00  0.00    -0.160 C  
HETATM    4  C   UNL     1     -10.999  10.707  67.286  1.00  0.00    -0.284 C  
HETATM    5  C   UNL     1      -9.823  11.253  68.106  1.00  0.00    -0.190 C  
HETATM    6  C   UNL     1      -7.724  10.753  69.401  1.00  0.00    -0.107 C  
HETATM    7  C   UNL     1      -9.006  10.140  68.800  1.00  0.00    -0.147 C  
HETATM    8  C   UNL     1      -9.799   9.531  69.973  1.00  0.00    -0.269 C  
HETATM    9  C   UNL     1      -8.591   9.063  67.766  1.00  0.00    -0.121 C  
ENDROOT
BRANCH   4  10
HETATM   10  O   UNL     1     -11.670  11.820  66.659  1.00  0.00    -0.548 OA 
BRANCH  10  11
HETATM   11  C   UNL     1     -10.873  12.893  66.377  1.00  0.00    -0.274 C  
HETATM   12  O   UNL     1      -9.714  12.829  65.976  1.00  0.00    -0.259 OA 
BRANCH  11  13
HETATM   13  C   UNL     1     -11.596  14.219  66.634  1.00  0.00    -0.383 C  
HETATM   14  O   UNL     1     -12.959  14.149  66.202  1.00  0.00    -0.477 OA 
HETATM   15  H   UNL     1     -13.407  14.971  66.361  1.00  0.00     0.000 HD 
BRANCH  13  16
HETATM   16  C   UNL     1     -11.598  14.611  68.096  1.00  0.00    -0.362 A  
HETATM   17  C   UNL     1     -10.997  15.813  68.503  1.00  0.00    -0.312 A  
HETATM   18  C   UNL     1     -11.028  16.205  69.842  1.00  0.00    -0.362 A  
HETATM   19  C   UNL     1     -11.662  15.404  70.790  1.00  0.00    -0.385 A  
HETATM   20  C   UNL     1     -12.261  14.208  70.402  1.00  0.00    -0.427 A  
HETATM   21  C   UNL     1     -12.229  13.812  69.063  1.00  0.00    -0.259 A  
ENDBRANCH  13  16
ENDBRANCH  11  13
ENDBRANCH  10  11
ENDBRANCH   4  10
TORSDOF 4
ENDMDL
MODEL      148
REMARK 921   NORMALIZED FREE ENERGY PREDICTED BY IDOCK:   -4.14 KCAL/MOL
REMARK 922        TOTAL FREE ENERGY PREDICTED BY IDOCK:   -5.66 KCAL/MOL
REMARK 923 INTER-LIGAND FREE ENERGY PREDICTED BY IDOCK:   -5.73 KCAL/MOL
REMARK 924 INTRA-LIGAND FREE ENERGY PREDICTED BY IDOCK:    0.06 KCAL/MOL
REMARK 927      BINDING AFFINITY PREDICTED BY RF-SCORE:    0.00 PKD
ROOT
HETATM    1  C   UNL     1      -7.813   7.390  69.512  1.00  0.00    -0.121 C  
HETATM    2  C   UNL     1      -8.111   8.788  70.058  1.00  0.00    -0.111 C  
HETATM    3  C   UNL     1      -8.391   9.790  68.932  1.00  0.00    -0.120 C  
HETATM    4  C   UNL     1      -9.797   9.641  68.339  1.00  0.00    -0.153 C  
HETATM    5  C   UNL     1     -10.850   9.805  69.443  1.00  0.00    -0.256 C  
HETATM    6  C   UNL     1     -11.625   9.166  71.751  1.00  0.00    -0.457 C  
HETATM    7  C   UNL     1     -10.684   8.782  70.590  1.00  0.00    -0.267 C  
HETATM    8  C   UNL     1     -11.099   7.372  70.129  1.00  0.00    -0.265 C  
HETATM    9  C   UNL     1      -9.227   8.809  71.117  1.00  0.00    -0.299 C  
ENDROOT
BRANCH   4  10
HETATM   10  O   UNL     1     -10.023  10.657  67.342  1.00  0.00    -0.173 OA 
BRANCH  10  11
HETATM   11  C   UNL     1      -9.835  11.941  67.770  1.00  0.00    -0.184 C  
HETATM   12  O   UNL     1      -8.859  12.342  68.399  1.00  0.00    -0.182 OA 
BRANCH  11  13
HETATM   13  C   UNL     1     -11.009  12.846  67.381  1.00  0.00    -0.260 C  
HETATM   14  O   UNL     1     -12.071  12.083  66.800  1.00  0.00    -0.613 OA 
HETATM   15  H   UNL     1     -12.798  12.644  66.559  1.00  0.00     0.000 HD 
BRANCH  13  16
HETATM   16  C   UNL     1     -11.580  13.603  68.561  1.00  0.00    -0.371 A  
HETATM   17  C   UNL     1     -12.020  12.905  69.697  1.00  0.00    -0.358 A  
HETATM   18  C   UNL     1     -12.511  13.594  70.808  1.00  0.00    -0.432 A  
HETATM   19  C   UNL     1     -12.565  14.986  70.798  1.00  0.00    -0.429 A  
HETATM   20  C   UNL     1     -12.134  15.692  69.678  1.00  0.00    -0.329 A  
HETATM   21  C   UNL     1     -11.645  15.006  68.565  1.00  0.00    -0.348 A  
ENDBRANCH  13  16
ENDBRANCH  11  13
ENDBRANCH  10  11
ENDBRANCH   4  10
TORSDOF 4
ENDMDL
MODEL      149
REMARK 921   NORMALIZED FREE ENERGY PREDICTED BY IDOCK:   -4.13 KCAL/MOL
REMARK 922        TOTAL FREE ENERGY PREDICTED BY IDOCK:   -5.65 KCAL/MOL
REMARK 923 INTER-LIGAND FREE ENERGY PREDICTED BY IDOCK:   -5.44 KCAL/MOL
REMARK 924 INTRA-LIGAND FREE ENERGY PREDICTED BY IDOCK:   -0.21 KCAL/MOL
REMARK 927      BINDING AFFINITY PREDICTED BY RF-SCORE:    0.00 PKD
ROOT
HETATM    1  C   UNL     1     -11.713   6.907  70.670  1.00  0.00    -0.417 C  
HETATM    2  C   UNL     1     -10.513   7.042  69.730  1.00  0.00    -0.235 C  
HETATM    3  C   UNL     1     -10.509   8.391  69.003  1.00  0.00    -0.216 C  
HETATM    4  C   UNL     1     -10.033   9.545  69.894  1.00  0.00    -0.230 C  
HETATM    5  C   UNL     1      -8.627   9.248  70.429  1.00  0.00    -0.250 C  
HETATM    6  C   UNL     1      -7.078   7.599  71.533  1.00  0.00    -0.062 C  
HETATM    7  C   UNL     1      -8.555   7.933  71.238  1.00  0.00    -0.138 C  
HETATM    8  C   UNL     1      -9.255   8.093  72.602  1.00  0.00    -0.332 C  
HETATM    9  C   UNL     1      -9.162   6.770  70.415  1.00  0.00    -0.156 C  
ENDROOT
BRANCH   4  10
HETATM   10  O   UNL     1      -9.980  10.768  69.132  1.00  0.00    -0.208 OA 
BRANCH  10  11
HETATM   11  C   UNL     1     -11.194  11.261  68.743  1.00  0.00    -0.250 C  
HETATM   12  O   UNL     1     -12.260  11.053  69.316  1.00  0.00    -0.369 OA 
BRANCH  11  13
HETATM   13  C   UNL     1     -11.079  12.113  67.474  1.00  0.00    -0.275 C  
HETATM   14  O   UNL     1     -12.262  12.004  66.677  1.00  0.00    -0.550 OA 
HETATM   15  H   UNL     1     -12.191  12.531  65.891  1.00  0.00     0.000 HD 
BRANCH  13  16
HETATM   16  C   UNL     1     -10.861  13.582  67.773  1.00  0.00    -0.267 A  
HETATM   17  C   UNL     1      -9.914  14.315  67.041  1.00  0.00    -0.258 A  
HETATM   18  C   UNL     1      -9.734  15.679  67.279  1.00  0.00    -0.219 A  
HETATM   19  C   UNL     1     -10.499  16.326  68.248  1.00  0.00    -0.284 A  
HETATM   20  C   UNL     1     -11.441  15.611  68.983  1.00  0.00    -0.369 A  
HETATM   21  C   UNL     1     -11.622  14.246  68.749  1.00  0.00    -0.357 A  
ENDBRANCH  13  16
ENDBRANCH  11  13
ENDBRANCH  10  11
ENDBRANCH   4  10
TORSDOF 4
ENDMDL
MODEL      150
REMARK 921   NORMALIZED FREE ENERGY PREDICTED BY IDOCK:   -4.12 KCAL/MOL
REMARK 922        TOTAL FREE ENERGY PREDICTED BY IDOCK:   -5.64 KCAL/MOL
REMARK 923 INTER-LIGAND FREE ENERGY PREDICTED BY IDOCK:   -5.25 KCAL/MOL
REMARK 924 INTRA-LIGAND FREE ENERGY PREDICTED BY IDOCK:   -0.39 KCAL/MOL
REMARK 927      BINDING AFFINITY PREDICTED BY RF-SCORE:    0.00 PKD
ROOT
HETATM    1  C   UNL     1     -10.451  14.490  68.817  1.00  0.00    -0.246 C  
HETATM    2  C   UNL     1      -9.673  13.512  67.932  1.00  0.00    -0.225 C  
HETATM    3  C   UNL     1      -9.939  12.055  68.326  1.00  0.00    -0.203 C  
HETATM    4  C   UNL     1     -11.295  11.543  67.825  1.00  0.00    -0.296 C  
HETATM    5  C   UNL     1     -11.378  11.685  66.300  1.00  0.00    -0.293 C  
HETATM    6  C   UNL     1     -11.054  13.155  64.283  1.00  0.00    -0.426 C  
HETATM    7  C   UNL     1     -11.189  13.142  65.820  1.00  0.00    -0.309 C  
HETATM    8  C   UNL     1     -12.426  13.994  66.164  1.00  0.00    -0.467 C  
HETATM    9  C   UNL     1      -9.894  13.737  66.426  1.00  0.00    -0.305 C  
ENDROOT
BRANCH   4  10
HETATM   10  O   UNL     1     -11.451  10.149  68.160  1.00  0.00    -0.212 OA 
BRANCH  10  11
HETATM   11  C   UNL     1     -11.385   9.863  69.494  1.00  0.00    -0.124 C  
HETATM   12  O   UNL     1     -11.767  10.603  70.398  1.00  0.00    -0.299 OA 
BRANCH  11  13
HETATM   13  C   UNL     1     -10.755   8.489  69.749  1.00  0.00    -0.213 C  
HETATM   14  O   UNL     1     -11.746   7.542  70.162  1.00  0.00    -0.489 OA 
HETATM   15  H   UNL     1     -11.355   6.691  70.320  1.00  0.00     0.000 HD 
BRANCH  13  16
HETATM   16  C   UNL     1     -10.063   7.926  68.526  1.00  0.00    -0.216 A  
HETATM   17  C   UNL     1      -8.800   8.407  68.149  1.00  0.00    -0.142 A  
HETATM   18  C   UNL     1      -8.134   7.867  67.047  1.00  0.00    -0.116 A  
HETATM   19  C   UNL     1      -8.721   6.840  66.311  1.00  0.00    -0.152 A  
HETATM   20  C   UNL     1      -9.975   6.354  66.671  1.00  0.00    -0.207 A  
HETATM   21  C   UNL     1     -10.644   6.893  67.772  1.00  0.00    -0.305 A  
ENDBRANCH  13  16
ENDBRANCH  11  13
ENDBRANCH  10  11
ENDBRANCH   4  10
TORSDOF 4
ENDMDL
MODEL      151
REMARK 921   NORMALIZED FREE ENERGY PREDICTED BY IDOCK:   -4.11 KCAL/MOL
REMARK 922        TOTAL FREE ENERGY PREDICTED BY IDOCK:   -5.63 KCAL/MOL
REMARK 923 INTER-LIGAND FREE ENERGY PREDICTED BY IDOCK:   -5.18 KCAL/MOL
REMARK 924 INTRA-LIGAND FREE ENERGY PREDICTED BY IDOCK:   -0.45 KCAL/MOL
REMARK 927      BINDING AFFINITY PREDICTED BY RF-SCORE:    0.00 PKD
ROOT
HETATM    1  C   UNL     1      -9.207  13.341  68.210  1.00  0.00    -0.197 C  
HETATM    2  C   UNL     1      -8.547  12.114  67.577  1.00  0.00    -0.171 C  
HETATM    3  C   UNL     1      -8.757  10.854  68.425  1.00  0.00    -0.147 C  
HETATM    4  C   UNL     1     -10.165  10.265  68.273  1.00  0.00    -0.159 C  
HETATM    5  C   UNL     1     -10.442   9.943  66.800  1.00  0.00    -0.261 C  
HETATM    6  C   UNL     1     -10.382  10.722  64.407  1.00  0.00    -0.405 C  
HETATM    7  C   UNL     1     -10.319  11.179  65.880  1.00  0.00    -0.314 C  
HETATM    8  C   UNL     1     -11.504  12.140  66.097  1.00  0.00    -0.429 C  
HETATM    9  C   UNL     1      -8.959  11.881  66.113  1.00  0.00    -0.116 C  
ENDROOT
BRANCH   4  10
HETATM   10  O   UNL     1     -10.273   9.044  69.034  1.00  0.00    -0.194 OA 
BRANCH  10  11
HETATM   11  C   UNL     1     -10.264   9.204  70.390  1.00  0.00    -0.222 C  
HETATM   12  O   UNL     1     -11.006   9.952  71.021  1.00  0.00    -0.335 OA 
BRANCH  11  13
HETATM   13  C   UNL     1      -9.191   8.335  71.056  1.00  0.00    -0.158 C  
HETATM   14  O   UNL     1      -8.291   9.137  71.827  1.00  0.00    -0.340 OA 
HETATM   15  H   UNL     1      -7.626   8.599  72.239  1.00  0.00     0.000 HD 
BRANCH  13  16
HETATM   16  C   UNL     1      -9.776   7.287  71.979  1.00  0.00    -0.177 A  
HETATM   17  C   UNL     1     -10.164   6.038  71.468  1.00  0.00    -0.249 A  
HETATM   18  C   UNL     1     -10.666   5.050  72.316  1.00  0.00    -0.246 A  
HETATM   19  C   UNL     1     -10.784   5.295  73.682  1.00  0.00    -0.343 A  
HETATM   20  C   UNL     1     -10.406   6.529  74.203  1.00  0.00    -0.351 A  
HETATM   21  C   UNL     1      -9.905   7.521  73.358  1.00  0.00    -0.365 A  
ENDBRANCH  13  16
ENDBRANCH  11  13
ENDBRANCH  10  11
ENDBRANCH   4  10
TORSDOF 4
ENDMDL
MODEL      152
REMARK 921   NORMALIZED FREE ENERGY PREDICTED BY IDOCK:   -4.10 KCAL/MOL
REMARK 922        TOTAL FREE ENERGY PREDICTED BY IDOCK:   -5.61 KCAL/MOL
REMARK 923 INTER-LIGAND FREE ENERGY PREDICTED BY IDOCK:   -5.73 KCAL/MOL
REMARK 924 INTRA-LIGAND FREE ENERGY PREDICTED BY IDOCK:    0.12 KCAL/MOL
REMARK 927      BINDING AFFINITY PREDICTED BY RF-SCORE:    0.00 PKD
ROOT
HETATM    1  C   UNL     1      -9.073  10.355  66.243  1.00  0.00    -0.180 C  
HETATM    2  C   UNL     1     -10.367  11.121  66.529  1.00  0.00    -0.290 C  
HETATM    3  C   UNL     1     -10.088  12.554  66.997  1.00  0.00    -0.222 C  
HETATM    4  C   UNL     1      -9.702  13.490  65.846  1.00  0.00    -0.181 C  
HETATM    5  C   UNL     1     -10.812  13.505  64.788  1.00  0.00    -0.392 C  
HETATM    6  C   UNL     1     -12.382  12.175  63.338  1.00  0.00    -0.648 C  
HETATM    7  C   UNL     1     -11.111  12.103  64.209  1.00  0.00    -0.403 C  
HETATM    8  C   UNL     1      -9.966  11.639  63.287  1.00  0.00    -0.442 C  
HETATM    9  C   UNL     1     -11.366  11.097  65.359  1.00  0.00     0.124 C  
ENDROOT
BRANCH   4  10
HETATM   10  O   UNL     1      -9.528  14.834  66.340  1.00  0.00    -0.271 OA 
BRANCH  10  11
HETATM   11  C   UNL     1     -10.453  15.237  67.260  1.00  0.00    -0.275 C  
HETATM   12  O   UNL     1     -11.539  15.749  66.997  1.00  0.00     0.009 OA 
BRANCH  11  13
HETATM   13  C   UNL     1      -9.973  14.987  68.694  1.00  0.00    -0.220 C  
HETATM   14  O   UNL     1      -9.060  16.007  69.112  1.00  0.00    -0.229 OA 
HETATM   15  H   UNL     1      -8.763  15.852  70.000  1.00  0.00     0.000 HD 
BRANCH  13  16
HETATM   16  C   UNL     1     -11.109  14.950  69.694  1.00  0.00    -0.298 A  
HETATM   17  C   UNL     1     -12.071  13.930  69.628  1.00  0.00    -0.404 A  
HETATM   18  C   UNL     1     -13.100  13.861  70.569  1.00  0.00    -0.056 A  
HETATM   19  C   UNL     1     -13.178  14.808  71.588  1.00  0.00    -0.431 A  
HETATM   20  C   UNL     1     -12.232  15.828  71.666  1.00  0.00    -0.523 A  
HETATM   21  C   UNL     1     -11.203  15.900  70.724  1.00  0.00    -0.398 A  
ENDBRANCH  13  16
ENDBRANCH  11  13
ENDBRANCH  10  11
ENDBRANCH   4  10
TORSDOF 4
ENDMDL
MODEL      153
REMARK 921   NORMALIZED FREE ENERGY PREDICTED BY IDOCK:   -4.09 KCAL/MOL
REMARK 922        TOTAL FREE ENERGY PREDICTED BY IDOCK:   -5.60 KCAL/MOL
REMARK 923 INTER-LIGAND FREE ENERGY PREDICTED BY IDOCK:   -4.59 KCAL/MOL
REMARK 924 INTRA-LIGAND FREE ENERGY PREDICTED BY IDOCK:   -1.01 KCAL/MOL
REMARK 927      BINDING AFFINITY PREDICTED BY RF-SCORE:    0.00 PKD
ROOT
HETATM    1  C   UNL     1     -10.926   6.570  69.170  1.00  0.00    -0.380 C  
HETATM    2  C   UNL     1     -11.525   6.197  70.528  1.00  0.00    -0.330 C  
HETATM    3  C   UNL     1     -10.440   5.993  71.592  1.00  0.00    -0.276 C  
HETATM    4  C   UNL     1      -9.874   7.316  72.123  1.00  0.00    -0.160 C  
HETATM    5  C   UNL     1     -11.005   8.174  72.703  1.00  0.00    -0.440 C  
HETATM    6  C   UNL     1     -13.306   9.147  72.395  1.00  0.00    -0.527 C  
HETATM    7  C   UNL     1     -12.113   8.488  71.672  1.00  0.00    -0.373 C  
HETATM    8  C   UNL     1     -11.613   9.501  70.625  1.00  0.00    -0.350 C  
HETATM    9  C   UNL     1     -12.608   7.177  71.011  1.00  0.00    -0.335 C  
ENDROOT
BRANCH   4  10
HETATM   10  O   UNL     1      -8.917   7.057  73.171  1.00  0.00    -0.124 OA 
BRANCH  10  11
HETATM   11  C   UNL     1      -7.868   7.931  73.226  1.00  0.00    -0.148 C  
HETATM   12  O   UNL     1      -7.756   8.855  74.027  1.00  0.00    -0.402 OA 
BRANCH  11  13
HETATM   13  C   UNL     1      -6.825   7.632  72.144  1.00  0.00    -0.061 C  
HETATM   14  O   UNL     1      -6.634   6.221  71.994  1.00  0.00    -0.056 OA 
HETATM   15  H   UNL     1      -5.988   6.035  71.324  1.00  0.00     0.000 HD 
BRANCH  13  16
HETATM   16  C   UNL     1      -7.210   8.188  70.789  1.00  0.00    -0.050 A  
HETATM   17  C   UNL     1      -7.161   7.367  69.652  1.00  0.00    -0.072 A  
HETATM   18  C   UNL     1      -7.553   7.857  68.405  1.00  0.00    -0.108 A  
HETATM   19  C   UNL     1      -8.000   9.170  68.280  1.00  0.00    -0.103 A  
HETATM   20  C   UNL     1      -8.053   9.998  69.398  1.00  0.00    -0.150 A  
HETATM   21  C   UNL     1      -7.659   9.511  70.647  1.00  0.00    -0.145 A  
ENDBRANCH  13  16
ENDBRANCH  11  13
ENDBRANCH  10  11
ENDBRANCH   4  10
TORSDOF 4
ENDMDL
MODEL      154
REMARK 921   NORMALIZED FREE ENERGY PREDICTED BY IDOCK:   -4.09 KCAL/MOL
REMARK 922        TOTAL FREE ENERGY PREDICTED BY IDOCK:   -5.60 KCAL/MOL
REMARK 923 INTER-LIGAND FREE ENERGY PREDICTED BY IDOCK:   -5.66 KCAL/MOL
REMARK 924 INTRA-LIGAND FREE ENERGY PREDICTED BY IDOCK:    0.06 KCAL/MOL
REMARK 927      BINDING AFFINITY PREDICTED BY RF-SCORE:    0.00 PKD
ROOT
HETATM    1  C   UNL     1     -12.066  11.536  63.611  1.00  0.00    -0.174 C  
HETATM    2  C   UNL     1     -10.570  11.852  63.537  1.00  0.00    -0.507 C  
HETATM    3  C   UNL     1     -10.223  13.141  64.291  1.00  0.00    -0.283 C  
HETATM    4  C   UNL     1     -10.182  12.948  65.812  1.00  0.00    -0.288 C  
HETATM    5  C   UNL     1      -9.167  11.855  66.173  1.00  0.00    -0.204 C  
HETATM    6  C   UNL     1      -8.300   9.533  65.735  1.00  0.00    -0.132 C  
HETATM    7  C   UNL     1      -9.484  10.496  65.508  1.00  0.00    -0.265 C  
HETATM    8  C   UNL     1     -10.718   9.843  66.161  1.00  0.00     0.063 C  
HETATM    9  C   UNL     1      -9.673  10.683  63.982  1.00  0.00    -0.373 C  
ENDROOT
BRANCH   4  10
HETATM   10  O   UNL     1      -9.777  14.174  66.454  1.00  0.00    -0.278 OA 
BRANCH  10  11
HETATM   11  C   UNL     1     -10.535  15.267  66.146  1.00  0.00    -0.309 C  
HETATM   12  O   UNL     1     -10.185  16.187  65.410  1.00  0.00    -0.479 OA 
BRANCH  11  13
HETATM   13  C   UNL     1     -11.898  15.227  66.844  1.00  0.00     0.110 C  
HETATM   14  O   UNL     1     -12.720  14.189  66.301  1.00  0.00    -0.514 OA 
HETATM   15  H   UNL     1     -13.565  14.164  66.733  1.00  0.00     0.000 HD 
BRANCH  13  16
HETATM   16  C   UNL     1     -11.785  14.990  68.335  1.00  0.00    -0.341 A  
HETATM   17  C   UNL     1     -11.638  16.077  69.211  1.00  0.00    -0.331 A  
HETATM   18  C   UNL     1     -11.575  15.873  70.591  1.00  0.00    -0.426 A  
HETATM   19  C   UNL     1     -11.660  14.584  71.111  1.00  0.00    -0.201 A  
HETATM   20  C   UNL     1     -11.804  13.495  70.255  1.00  0.00    -0.327 A  
HETATM   21  C   UNL     1     -11.866  13.695  68.874  1.00  0.00    -0.402 A  
ENDBRANCH  13  16
ENDBRANCH  11  13
ENDBRANCH  10  11
ENDBRANCH   4  10
TORSDOF 4
ENDMDL
MODEL      155
REMARK 921   NORMALIZED FREE ENERGY PREDICTED BY IDOCK:   -4.08 KCAL/MOL
REMARK 922        TOTAL FREE ENERGY PREDICTED BY IDOCK:   -5.59 KCAL/MOL
REMARK 923 INTER-LIGAND FREE ENERGY PREDICTED BY IDOCK:   -5.13 KCAL/MOL
REMARK 924 INTRA-LIGAND FREE ENERGY PREDICTED BY IDOCK:   -0.46 KCAL/MOL
REMARK 927      BINDING AFFINITY PREDICTED BY RF-SCORE:    0.00 PKD
ROOT
HETATM    1  C   UNL     1      -9.390  15.947  65.772  1.00  0.00    -0.280 C  
HETATM    2  C   UNL     1     -10.785  15.318  65.799  1.00  0.00    -0.357 C  
HETATM    3  C   UNL     1     -10.815  13.968  65.073  1.00  0.00    -0.401 C  
HETATM    4  C   UNL     1     -10.207  12.833  65.906  1.00  0.00    -0.287 C  
HETATM    5  C   UNL     1     -10.948  12.711  67.244  1.00  0.00    -0.291 C  
HETATM    6  C   UNL     1     -11.862  13.876  69.280  1.00  0.00    -0.394 C  
HETATM    7  C   UNL     1     -10.907  14.014  68.075  1.00  0.00    -0.257 C  
HETATM    8  C   UNL     1      -9.497  14.250  68.651  1.00  0.00    -0.178 C  
HETATM    9  C   UNL     1     -11.383  15.209  67.212  1.00  0.00    -0.305 C  
ENDROOT
BRANCH   4  10
HETATM   10  O   UNL     1     -10.334  11.581  65.202  1.00  0.00    -0.254 OA 
BRANCH  10  11
HETATM   11  C   UNL     1      -9.272  10.732  65.333  1.00  0.00    -0.205 C  
HETATM   12  O   UNL     1      -8.100  11.077  65.462  1.00  0.00    -0.083 OA 
BRANCH  11  13
HETATM   13  C   UNL     1      -9.711   9.264  65.288  1.00  0.00    -0.018 C  
HETATM   14  O   UNL     1      -8.714   8.453  64.658  1.00  0.00    -0.388 OA 
HETATM   15  H   UNL     1      -8.986   7.543  64.630  1.00  0.00     0.000 HD 
BRANCH  13  16
HETATM   16  C   UNL     1      -9.970   8.688  66.664  1.00  0.00    -0.357 A  
HETATM   17  C   UNL     1      -9.618   7.359  66.947  1.00  0.00    -0.240 A  
HETATM   18  C   UNL     1      -9.814   6.829  68.223  1.00  0.00    -0.144 A  
HETATM   19  C   UNL     1     -10.360   7.620  69.232  1.00  0.00    -0.218 A  
HETATM   20  C   UNL     1     -10.716   8.940  68.966  1.00  0.00    -0.148 A  
HETATM   21  C   UNL     1     -10.523   9.472  67.689  1.00  0.00    -0.321 A  
ENDBRANCH  13  16
ENDBRANCH  11  13
ENDBRANCH  10  11
ENDBRANCH   4  10
TORSDOF 4
ENDMDL
MODEL      156
REMARK 921   NORMALIZED FREE ENERGY PREDICTED BY IDOCK:   -4.06 KCAL/MOL
REMARK 922        TOTAL FREE ENERGY PREDICTED BY IDOCK:   -5.57 KCAL/MOL
REMARK 923 INTER-LIGAND FREE ENERGY PREDICTED BY IDOCK:   -5.30 KCAL/MOL
REMARK 924 INTRA-LIGAND FREE ENERGY PREDICTED BY IDOCK:   -0.27 KCAL/MOL
REMARK 927      BINDING AFFINITY PREDICTED BY RF-SCORE:    0.00 PKD
ROOT
HETATM    1  C   UNL     1     -10.756   6.431  71.413  1.00  0.00    -0.290 C  
HETATM    2  C   UNL     1     -10.463   5.899  70.008  1.00  0.00    -0.334 C  
HETATM    3  C   UNL     1     -11.034   6.819  68.921  1.00  0.00    -0.272 C  
HETATM    4  C   UNL     1     -10.184   8.076  68.702  1.00  0.00    -0.206 C  
HETATM    5  C   UNL     1      -8.748   7.681  68.336  1.00  0.00    -0.127 C  
HETATM    6  C   UNL     1      -6.733   6.268  68.865  1.00  0.00    -0.060 C  
HETATM    7  C   UNL     1      -8.070   6.806  69.415  1.00  0.00    -0.123 C  
HETATM    8  C   UNL     1      -7.732   7.644  70.663  1.00  0.00    -0.088 C  
HETATM    9  C   UNL     1      -8.975   5.597  69.763  1.00  0.00    -0.140 C  
ENDROOT
BRANCH   4  10
HETATM   10  O   UNL     1     -10.730   8.858  67.620  1.00  0.00    -0.244 OA 
BRANCH  10  11
HETATM   11  C   UNL     1     -10.550  10.208  67.732  1.00  0.00    -0.256 C  
HETATM   12  O   UNL     1      -9.472  10.789  67.640  1.00  0.00    -0.153 OA 
BRANCH  11  13
HETATM   13  C   UNL     1     -11.871  10.935  68.005  1.00  0.00     0.012 C  
HETATM   14  O   UNL     1     -12.434  10.519  69.254  1.00  0.00    -0.714 OA 
HETATM   15  H   UNL     1     -13.252  10.970  69.423  1.00  0.00     0.000 HD 
BRANCH  13  16
HETATM   16  C   UNL     1     -11.712  12.440  68.052  1.00  0.00    -0.414 A  
HETATM   17  C   UNL     1     -11.766  13.189  66.866  1.00  0.00    -0.441 A  
HETATM   18  C   UNL     1     -11.663  14.581  66.901  1.00  0.00    -0.399 A  
HETATM   19  C   UNL     1     -11.507  15.240  68.118  1.00  0.00    -0.357 A  
HETATM   20  C   UNL     1     -11.449  14.510  69.303  1.00  0.00    -0.322 A  
HETATM   21  C   UNL     1     -11.550  13.118  69.271  1.00  0.00    -0.370 A  
ENDBRANCH  13  16
ENDBRANCH  11  13
ENDBRANCH  10  11
ENDBRANCH   4  10
TORSDOF 4
ENDMDL
MODEL      157
REMARK 921   NORMALIZED FREE ENERGY PREDICTED BY IDOCK:   -4.05 KCAL/MOL
REMARK 922        TOTAL FREE ENERGY PREDICTED BY IDOCK:   -5.55 KCAL/MOL
REMARK 923 INTER-LIGAND FREE ENERGY PREDICTED BY IDOCK:   -4.90 KCAL/MOL
REMARK 924 INTRA-LIGAND FREE ENERGY PREDICTED BY IDOCK:   -0.65 KCAL/MOL
REMARK 927      BINDING AFFINITY PREDICTED BY RF-SCORE:    0.00 PKD
ROOT
HETATM    1  C   UNL     1     -10.889   8.234  72.010  1.00  0.00    -0.370 C  
HETATM    2  C   UNL     1     -11.342   7.290  70.893  1.00  0.00    -0.308 C  
HETATM    3  C   UNL     1     -10.770   7.704  69.532  1.00  0.00    -0.211 C  
HETATM    4  C   UNL     1      -9.296   7.314  69.364  1.00  0.00    -0.151 C  
HETATM    5  C   UNL     1      -9.130   5.801  69.550  1.00  0.00    -0.143 C  
HETATM    6  C   UNL     1      -9.633   3.764  70.941  1.00  0.00    -0.256 C  
HETATM    7  C   UNL     1      -9.619   5.307  70.931  1.00  0.00    -0.233 C  
HETATM    8  C   UNL     1      -8.650   5.751  72.044  1.00  0.00    -0.130 C  
HETATM    9  C   UNL     1     -11.062   5.807  71.192  1.00  0.00    -0.257 C  
ENDROOT
BRANCH   4  10
HETATM   10  O   UNL     1      -8.842   7.661  68.040  1.00  0.00    -0.128 OA 
BRANCH  10  11
HETATM   11  C   UNL     1      -8.547   8.982  67.856  1.00  0.00    -0.125 C  
HETATM   12  O   UNL     1      -7.802   9.648  68.571  1.00  0.00    -0.084 OA 
BRANCH  11  13
HETATM   13  C   UNL     1      -9.274   9.562  66.638  1.00  0.00    -0.152 C  
HETATM   14  O   UNL     1     -10.157   8.593  66.062  1.00  0.00    -0.458 OA 
HETATM   15  H   UNL     1     -10.608   8.952  65.308  1.00  0.00     0.000 HD 
BRANCH  13  16
HETATM   16  C   UNL     1     -10.095  10.788  66.975  1.00  0.00    -0.249 A  
HETATM   17  C   UNL     1      -9.969  11.953  66.202  1.00  0.00    -0.254 A  
HETATM   18  C   UNL     1     -10.750  13.076  66.477  1.00  0.00    -0.290 A  
HETATM   19  C   UNL     1     -11.668  13.049  67.525  1.00  0.00    -0.421 A  
HETATM   20  C   UNL     1     -11.803  11.902  68.302  1.00  0.00    -0.343 A  
HETATM   21  C   UNL     1     -11.021  10.777  68.031  1.00  0.00    -0.336 A  
ENDBRANCH  13  16
ENDBRANCH  11  13
ENDBRANCH  10  11
ENDBRANCH   4  10
TORSDOF 4
ENDMDL
MODEL      158
REMARK 921   NORMALIZED FREE ENERGY PREDICTED BY IDOCK:   -4.05 KCAL/MOL
REMARK 922        TOTAL FREE ENERGY PREDICTED BY IDOCK:   -5.55 KCAL/MOL
REMARK 923 INTER-LIGAND FREE ENERGY PREDICTED BY IDOCK:   -4.80 KCAL/MOL
REMARK 924 INTRA-LIGAND FREE ENERGY PREDICTED BY IDOCK:   -0.74 KCAL/MOL
REMARK 927      BINDING AFFINITY PREDICTED BY RF-SCORE:    0.00 PKD
ROOT
HETATM    1  C   UNL     1      -9.178  10.708  66.733  1.00  0.00    -0.174 C  
HETATM    2  C   UNL     1     -10.694  10.855  66.878  1.00  0.00    -0.318 C  
HETATM    3  C   UNL     1     -11.212  10.181  68.153  1.00  0.00    -0.245 C  
HETATM    4  C   UNL     1     -10.938  11.008  69.415  1.00  0.00    -0.248 C  
HETATM    5  C   UNL     1     -11.572  12.398  69.278  1.00  0.00    -0.379 C  
HETATM    6  C   UNL     1     -11.903  14.451  67.860  1.00  0.00    -0.384 C  
HETATM    7  C   UNL     1     -11.051  13.179  68.050  1.00  0.00    -0.290 C  
HETATM    8  C   UNL     1      -9.599  13.645  68.276  1.00  0.00    -0.215 C  
HETATM    9  C   UNL     1     -11.183  12.310  66.774  1.00  0.00    -0.371 C  
ENDROOT
BRANCH   4  10
HETATM   10  O   UNL     1     -11.515  10.357  70.566  1.00  0.00    -0.304 OA 
BRANCH  10  11
HETATM   11  C   UNL     1     -11.112   9.068  70.766  1.00  0.00    -0.272 C  
HETATM   12  O   UNL     1     -11.846   8.083  70.740  1.00  0.00    -0.261 OA 
BRANCH  11  13
HETATM   13  C   UNL     1      -9.607   8.981  71.045  1.00  0.00    -0.279 C  
HETATM   14  O   UNL     1      -9.356   8.831  72.447  1.00  0.00    -0.331 OA 
HETATM   15  H   UNL     1      -8.424   8.778  72.620  1.00  0.00     0.000 HD 
BRANCH  13  16
HETATM   16  C   UNL     1      -8.945   7.820  70.334  1.00  0.00    -0.147 A  
HETATM   17  C   UNL     1      -8.569   6.676  71.055  1.00  0.00    -0.137 A  
HETATM   18  C   UNL     1      -7.996   5.583  70.404  1.00  0.00    -0.102 A  
HETATM   19  C   UNL     1      -7.794   5.618  69.026  1.00  0.00    -0.096 A  
HETATM   20  C   UNL     1      -8.160   6.747  68.297  1.00  0.00    -0.115 A  
HETATM   21  C   UNL     1      -8.732   7.843  68.946  1.00  0.00    -0.135 A  
ENDBRANCH  13  16
ENDBRANCH  11  13
ENDBRANCH  10  11
ENDBRANCH   4  10
TORSDOF 4
ENDMDL
MODEL      159
REMARK 921   NORMALIZED FREE ENERGY PREDICTED BY IDOCK:   -4.04 KCAL/MOL
REMARK 922        TOTAL FREE ENERGY PREDICTED BY IDOCK:   -5.54 KCAL/MOL
REMARK 923 INTER-LIGAND FREE ENERGY PREDICTED BY IDOCK:   -4.71 KCAL/MOL
REMARK 924 INTRA-LIGAND FREE ENERGY PREDICTED BY IDOCK:   -0.83 KCAL/MOL
REMARK 927      BINDING AFFINITY PREDICTED BY RF-SCORE:    0.00 PKD
ROOT
HETATM    1  C   UNL     1      -6.041  12.554  69.969  1.00  0.00    -0.117 C  
HETATM    2  C   UNL     1      -5.807  11.372  69.025  1.00  0.00    -0.048 C  
HETATM    3  C   UNL     1      -6.138  10.034  69.697  1.00  0.00    -0.044 C  
HETATM    4  C   UNL     1      -7.646   9.767  69.777  1.00  0.00    -0.137 C  
HETATM    5  C   UNL     1      -8.259   9.799  68.372  1.00  0.00    -0.105 C  
HETATM    6  C   UNL     1      -8.469  11.006  66.173  1.00  0.00    -0.168 C  
HETATM    7  C   UNL     1      -8.031  11.145  67.646  1.00  0.00    -0.116 C  
HETATM    8  C   UNL     1      -8.903  12.253  68.267  1.00  0.00    -0.178 C  
HETATM    9  C   UNL     1      -6.527  11.514  67.673  1.00  0.00    -0.067 C  
ENDROOT
BRANCH   4  10
HETATM   10  O   UNL     1      -7.887   8.464  70.348  1.00  0.00    -0.083 OA 
BRANCH  10  11
HETATM   11  C   UNL     1      -8.801   8.436  71.362  1.00  0.00    -0.181 C  
HETATM   12  O   UNL     1      -8.579   8.760  72.526  1.00  0.00    -0.403 OA 
BRANCH  11  13
HETATM   13  C   UNL     1     -10.166   7.932  70.881  1.00  0.00    -0.198 C  
HETATM   14  O   UNL     1     -10.499   6.687  71.504  1.00  0.00    -0.212 OA 
HETATM   15  H   UNL     1     -11.344   6.374  71.206  1.00  0.00     0.000 HD 
BRANCH  13  16
HETATM   16  C   UNL     1     -11.287   8.906  71.176  1.00  0.00    -0.357 A  
HETATM   17  C   UNL     1     -12.352   8.521  72.005  1.00  0.00    -0.423 A  
HETATM   18  C   UNL     1     -13.370   9.424  72.318  1.00  0.00    -0.539 A  
HETATM   19  C   UNL     1     -13.335  10.720  71.808  1.00  0.00    -0.429 A  
HETATM   20  C   UNL     1     -12.286  11.116  70.983  1.00  0.00    -0.487 A  
HETATM   21  C   UNL     1     -11.267  10.215  70.667  1.00  0.00    -0.418 A  
ENDBRANCH  13  16
ENDBRANCH  11  13
ENDBRANCH  10  11
ENDBRANCH   4  10
TORSDOF 4
ENDMDL
MODEL      160
REMARK 921   NORMALIZED FREE ENERGY PREDICTED BY IDOCK:   -4.04 KCAL/MOL
REMARK 922        TOTAL FREE ENERGY PREDICTED BY IDOCK:   -5.54 KCAL/MOL
REMARK 923 INTER-LIGAND FREE ENERGY PREDICTED BY IDOCK:   -5.06 KCAL/MOL
REMARK 924 INTRA-LIGAND FREE ENERGY PREDICTED BY IDOCK:   -0.48 KCAL/MOL
REMARK 927      BINDING AFFINITY PREDICTED BY RF-SCORE:    0.00 PKD
ROOT
HETATM    1  C   UNL     1     -12.597  11.966  63.950  1.00  0.00    -0.450 C  
HETATM    2  C   UNL     1     -11.199  12.535  63.697  1.00  0.00    -0.545 C  
HETATM    3  C   UNL     1     -10.967  13.839  64.469  1.00  0.00    -0.399 C  
HETATM    4  C   UNL     1     -10.683  13.605  65.958  1.00  0.00    -0.280 C  
HETATM    5  C   UNL     1      -9.463  12.691  66.121  1.00  0.00    -0.177 C  
HETATM    6  C   UNL     1      -8.293  10.567  65.442  1.00  0.00    -0.165 C  
HETATM    7  C   UNL     1      -9.640  11.320  65.428  1.00  0.00    -0.261 C  
HETATM    8  C   UNL     1     -10.647  10.445  66.200  1.00  0.00    -0.160 C  
HETATM    9  C   UNL     1     -10.068  11.523  63.953  1.00  0.00    -0.388 C  
ENDROOT
BRANCH   4  10
HETATM   10  O   UNL     1     -10.400  14.860  66.609  1.00  0.00    -0.273 OA 
BRANCH  10  11
HETATM   11  C   UNL     1     -11.157  15.123  67.716  1.00  0.00    -0.313 C  
HETATM   12  O   UNL     1     -12.337  15.464  67.703  1.00  0.00     0.350 OA 
BRANCH  11  13
HETATM   13  C   UNL     1     -10.351  14.952  69.008  1.00  0.00    -0.245 C  
HETATM   14  O   UNL     1     -10.010  13.578  69.219  1.00  0.00    -0.399 OA 
HETATM   15  H   UNL     1      -9.511  13.472  70.020  1.00  0.00     0.000 HD 
BRANCH  13  16
HETATM   16  C   UNL     1      -9.064  15.749  69.004  1.00  0.00    -0.245 A  
HETATM   17  C   UNL     1      -7.846  15.118  69.304  1.00  0.00    -0.206 A  
HETATM   18  C   UNL     1      -6.648  15.833  69.263  1.00  0.00    -0.160 A  
HETATM   19  C   UNL     1      -6.651  17.183  68.920  1.00  0.00    -0.199 A  
HETATM   20  C   UNL     1      -7.851  17.823  68.621  1.00  0.00    -0.278 A  
HETATM   21  C   UNL     1      -9.052  17.111  68.663  1.00  0.00    -0.268 A  
ENDBRANCH  13  16
ENDBRANCH  11  13
ENDBRANCH  10  11
ENDBRANCH   4  10
TORSDOF 4
ENDMDL
MODEL      161
REMARK 921   NORMALIZED FREE ENERGY PREDICTED BY IDOCK:   -4.03 KCAL/MOL
REMARK 922        TOTAL FREE ENERGY PREDICTED BY IDOCK:   -5.52 KCAL/MOL
REMARK 923 INTER-LIGAND FREE ENERGY PREDICTED BY IDOCK:   -5.99 KCAL/MOL
REMARK 924 INTRA-LIGAND FREE ENERGY PREDICTED BY IDOCK:    0.47 KCAL/MOL
REMARK 927      BINDING AFFINITY PREDICTED BY RF-SCORE:    0.00 PKD
ROOT
HETATM    1  C   UNL     1      -9.847  15.509  65.767  1.00  0.00    -0.392 C  
HETATM    2  C   UNL     1     -11.069  14.924  66.480  1.00  0.00    -0.341 C  
HETATM    3  C   UNL     1     -10.876  13.440  66.813  1.00  0.00    -0.286 C  
HETATM    4  C   UNL     1      -9.969  13.218  68.029  1.00  0.00    -0.233 C  
HETATM    5  C   UNL     1     -10.543  13.946  69.251  1.00  0.00    -0.062 C  
HETATM    6  C   UNL     1     -11.496  16.073  70.202  1.00  0.00    -0.350 C  
HETATM    7  C   UNL     1     -10.705  15.466  69.024  1.00  0.00    -0.242 C  
HETATM    8  C   UNL     1      -9.331  16.165  69.005  1.00  0.00    -0.248 C  
HETATM    9  C   UNL     1     -11.499  15.726  67.720  1.00  0.00    -0.175 C  
ENDROOT
BRANCH   4  10
HETATM   10  O   UNL     1      -9.890  11.810  68.335  1.00  0.00    -0.193 OA 
BRANCH  10  11
HETATM   11  C   UNL     1     -10.799  11.024  67.685  1.00  0.00    -0.256 C  
HETATM   12  O   UNL     1     -12.009  11.228  67.640  1.00  0.00    -0.634 OA 
BRANCH  11  13
HETATM   13  C   UNL     1     -10.128   9.823  67.010  1.00  0.00    -0.218 C  
HETATM   14  O   UNL     1     -10.965   8.664  67.083  1.00  0.00    -0.387 OA 
HETATM   15  H   UNL     1     -10.550   7.919  66.665  1.00  0.00     0.000 HD 
BRANCH  13  16
HETATM   16  C   UNL     1      -9.815  10.071  65.550  1.00  0.00    -0.373 A  
HETATM   17  C   UNL     1      -8.830   9.309  64.903  1.00  0.00    -0.233 A  
HETATM   18  C   UNL     1      -8.561   9.500  63.546  1.00  0.00    -0.221 A  
HETATM   19  C   UNL     1      -9.274  10.451  62.820  1.00  0.00    -0.323 A  
HETATM   20  C   UNL     1     -10.253  11.217  63.448  1.00  0.00    -0.435 A  
HETATM   21  C   UNL     1     -10.523  11.029  64.806  1.00  0.00    -0.384 A  
ENDBRANCH  13  16
ENDBRANCH  11  13
ENDBRANCH  10  11
ENDBRANCH   4  10
TORSDOF 4
ENDMDL
MODEL      162
REMARK 921   NORMALIZED FREE ENERGY PREDICTED BY IDOCK:   -4.01 KCAL/MOL
REMARK 922        TOTAL FREE ENERGY PREDICTED BY IDOCK:   -5.50 KCAL/MOL
REMARK 923 INTER-LIGAND FREE ENERGY PREDICTED BY IDOCK:   -4.95 KCAL/MOL
REMARK 924 INTRA-LIGAND FREE ENERGY PREDICTED BY IDOCK:   -0.55 KCAL/MOL
REMARK 927      BINDING AFFINITY PREDICTED BY RF-SCORE:    0.00 PKD
ROOT
HETATM    1  C   UNL     1      -8.526  10.660  65.188  1.00  0.00    -0.146 C  
HETATM    2  C   UNL     1     -10.030  10.386  65.115  1.00  0.00    -0.390 C  
HETATM    3  C   UNL     1     -10.526   9.602  66.336  1.00  0.00    -0.181 C  
HETATM    4  C   UNL     1     -10.672  10.479  67.585  1.00  0.00    -0.275 C  
HETATM    5  C   UNL     1     -11.632  11.641  67.299  1.00  0.00    -0.316 C  
HETATM    6  C   UNL     1     -12.296  13.518  65.757  1.00  0.00    -0.516 C  
HETATM    7  C   UNL     1     -11.169  12.529  66.121  1.00  0.00    -0.362 C  
HETATM    8  C   UNL     1      -9.947  13.376  66.523  1.00  0.00    -0.286 C  
HETATM    9  C   UNL     1     -10.875  11.650  64.879  1.00  0.00    -0.359 C  
ENDROOT
BRANCH   4  10
HETATM   10  O   UNL     1     -11.212   9.702  68.673  1.00  0.00    -0.100 OA 
BRANCH  10  11
HETATM   11  C   UNL     1     -10.577   9.865  69.872  1.00  0.00    -0.273 C  
HETATM   12  O   UNL     1     -11.066  10.394  70.867  1.00  0.00    -0.264 OA 
BRANCH  11  13
HETATM   13  C   UNL     1      -9.149   9.311  69.836  1.00  0.00    -0.191 C  
HETATM   14  O   UNL     1      -8.237  10.211  70.475  1.00  0.00    -0.397 OA 
HETATM   15  H   UNL     1      -7.351   9.869  70.452  1.00  0.00     0.000 HD 
BRANCH  13  16
HETATM   16  C   UNL     1      -9.024   7.968  70.523  1.00  0.00    -0.152 A  
HETATM   17  C   UNL     1      -9.212   6.785  69.792  1.00  0.00    -0.146 A  
HETATM   18  C   UNL     1      -9.058   5.540  70.404  1.00  0.00    -0.164 A  
HETATM   19  C   UNL     1      -8.713   5.462  71.752  1.00  0.00    -0.138 A  
HETATM   20  C   UNL     1      -8.525   6.627  72.491  1.00  0.00    -0.123 A  
HETATM   21  C   UNL     1      -8.680   7.874  71.881  1.00  0.00    -0.168 A  
ENDBRANCH  13  16
ENDBRANCH  11  13
ENDBRANCH  10  11
ENDBRANCH   4  10
TORSDOF 4
ENDMDL
MODEL      163
REMARK 921   NORMALIZED FREE ENERGY PREDICTED BY IDOCK:   -4.01 KCAL/MOL
REMARK 922        TOTAL FREE ENERGY PREDICTED BY IDOCK:   -5.50 KCAL/MOL
REMARK 923 INTER-LIGAND FREE ENERGY PREDICTED BY IDOCK:   -4.82 KCAL/MOL
REMARK 924 INTRA-LIGAND FREE ENERGY PREDICTED BY IDOCK:   -0.68 KCAL/MOL
REMARK 927      BINDING AFFINITY PREDICTED BY RF-SCORE:    0.00 PKD
ROOT
HETATM    1  C   UNL     1     -10.877   7.092  69.512  1.00  0.00    -0.244 C  
HETATM    2  C   UNL     1     -10.965   6.288  68.213  1.00  0.00    -0.408 C  
HETATM    3  C   UNL     1     -10.711   7.166  66.982  1.00  0.00    -0.420 C  
HETATM    4  C   UNL     1      -9.224   7.479  66.773  1.00  0.00    -0.156 C  
HETATM    5  C   UNL     1      -8.428   6.175  66.644  1.00  0.00    -0.116 C  
HETATM    6  C   UNL     1      -7.938   3.885  67.568  1.00  0.00    -0.090 C  
HETATM    7  C   UNL     1      -8.573   5.257  67.879  1.00  0.00    -0.103 C  
HETATM    8  C   UNL     1      -7.807   5.837  69.084  1.00  0.00    -0.090 C  
HETATM    9  C   UNL     1     -10.072   5.036  68.203  1.00  0.00    -0.167 C  
ENDROOT
BRANCH   4  10
HETATM   10  O   UNL     1      -9.046   8.242  65.562  1.00  0.00    -0.126 OA 
BRANCH  10  11
HETATM   11  C   UNL     1      -8.465   9.467  65.729  1.00  0.00    -0.132 C  
HETATM   12  O   UNL     1      -7.399   9.674  66.304  1.00  0.00    -0.092 OA 
BRANCH  11  13
HETATM   13  C   UNL     1      -9.314  10.585  65.115  1.00  0.00    -0.216 C  
HETATM   14  O   UNL     1     -10.165  10.073  64.084  1.00  0.00    -0.446 OA 
HETATM   15  H   UNL     1     -10.691  10.766  63.704  1.00  0.00     0.000 HD 
BRANCH  13  16
HETATM   16  C   UNL     1     -10.194  11.278  66.134  1.00  0.00    -0.291 A  
HETATM   17  C   UNL     1     -11.050  12.316  65.733  1.00  0.00    -0.362 A  
HETATM   18  C   UNL     1     -11.895  12.935  66.655  1.00  0.00    -0.461 A  
HETATM   19  C   UNL     1     -11.898  12.523  67.986  1.00  0.00    -0.382 A  
HETATM   20  C   UNL     1     -11.054  11.496  68.399  1.00  0.00    -0.288 A  
HETATM   21  C   UNL     1     -10.205  10.877  67.480  1.00  0.00    -0.224 A  
ENDBRANCH  13  16
ENDBRANCH  11  13
ENDBRANCH  10  11
ENDBRANCH   4  10
TORSDOF 4
ENDMDL
MODEL      164
REMARK 921   NORMALIZED FREE ENERGY PREDICTED BY IDOCK:   -3.99 KCAL/MOL
REMARK 922        TOTAL FREE ENERGY PREDICTED BY IDOCK:   -5.48 KCAL/MOL
REMARK 923 INTER-LIGAND FREE ENERGY PREDICTED BY IDOCK:   -4.89 KCAL/MOL
REMARK 924 INTRA-LIGAND FREE ENERGY PREDICTED BY IDOCK:   -0.59 KCAL/MOL
REMARK 927      BINDING AFFINITY PREDICTED BY RF-SCORE:    0.00 PKD
ROOT
HETATM    1  C   UNL     1      -9.800   4.653  69.685  1.00  0.00    -0.293 C  
HETATM    2  C   UNL     1      -9.124   5.744  70.518  1.00  0.00    -0.161 C  
HETATM    3  C   UNL     1      -8.492   6.825  69.634  1.00  0.00    -0.133 C  
HETATM    4  C   UNL     1      -9.525   7.801  69.059  1.00  0.00    -0.150 C  
HETATM    5  C   UNL     1     -10.308   8.466  70.199  1.00  0.00    -0.214 C  
HETATM    6  C   UNL     1     -11.598   8.176  72.341  1.00  0.00    -0.463 C  
HETATM    7  C   UNL     1     -11.038   7.446  71.102  1.00  0.00    -0.271 C  
HETATM    8  C   UNL     1     -12.244   6.830  70.367  1.00  0.00    -0.180 C  
HETATM    9  C   UNL     1     -10.045   6.360  71.586  1.00  0.00    -0.209 C  
ENDROOT
BRANCH   4  10
HETATM   10  O   UNL     1      -8.861   8.834  68.303  1.00  0.00    -0.140 OA 
BRANCH  10  11
HETATM   11  C   UNL     1      -9.579   9.337  67.255  1.00  0.00    -0.155 C  
HETATM   12  O   UNL     1     -10.487   8.751  66.672  1.00  0.00    -0.264 OA 
BRANCH  11  13
HETATM   13  C   UNL     1      -9.108  10.743  66.868  1.00  0.00    -0.149 C  
HETATM   14  O   UNL     1      -8.782  10.807  65.475  1.00  0.00    -0.184 OA 
HETATM   15  H   UNL     1      -8.490  11.678  65.235  1.00  0.00     0.000 HD 
BRANCH  13  16
HETATM   16  C   UNL     1     -10.149  11.807  67.144  1.00  0.00    -0.224 A  
HETATM   17  C   UNL     1     -10.320  12.301  68.447  1.00  0.00    -0.231 A  
HETATM   18  C   UNL     1     -11.248  13.311  68.707  1.00  0.00    -0.317 A  
HETATM   19  C   UNL     1     -12.013  13.840  67.670  1.00  0.00    -0.392 A  
HETATM   20  C   UNL     1     -11.857  13.359  66.372  1.00  0.00    -0.441 A  
HETATM   21  C   UNL     1     -10.930  12.347  66.110  1.00  0.00    -0.321 A  
ENDBRANCH  13  16
ENDBRANCH  11  13
ENDBRANCH  10  11
ENDBRANCH   4  10
TORSDOF 4
ENDMDL
MODEL      165
REMARK 921   NORMALIZED FREE ENERGY PREDICTED BY IDOCK:   -3.99 KCAL/MOL
REMARK 922        TOTAL FREE ENERGY PREDICTED BY IDOCK:   -5.48 KCAL/MOL
REMARK 923 INTER-LIGAND FREE ENERGY PREDICTED BY IDOCK:   -4.98 KCAL/MOL
REMARK 924 INTRA-LIGAND FREE ENERGY PREDICTED BY IDOCK:   -0.50 KCAL/MOL
REMARK 927      BINDING AFFINITY PREDICTED BY RF-SCORE:    0.00 PKD
ROOT
HETATM    1  C   UNL     1      -8.942  10.915  64.734  1.00  0.00    -0.155 C  
HETATM    2  C   UNL     1      -9.977  10.102  65.515  1.00  0.00    -0.363 C  
HETATM    3  C   UNL     1      -9.314   9.112  66.479  1.00  0.00    -0.244 C  
HETATM    4  C   UNL     1      -8.780   9.787  67.748  1.00  0.00    -0.129 C  
HETATM    5  C   UNL     1      -9.917  10.520  68.470  1.00  0.00    -0.181 C  
HETATM    6  C   UNL     1     -11.865  12.106  68.304  1.00  0.00    -0.361 C  
HETATM    7  C   UNL     1     -10.598  11.591  67.588  1.00  0.00    -0.235 C  
HETATM    8  C   UNL     1      -9.672  12.807  67.393  1.00  0.00    -0.197 C  
HETATM    9  C   UNL     1     -11.024  10.970  66.234  1.00  0.00    -0.184 C  
ENDROOT
BRANCH   4  10
HETATM   10  O   UNL     1      -8.239   8.794  68.644  1.00  0.00    -0.114 OA 
BRANCH  10  11
HETATM   11  C   UNL     1      -7.802   9.275  69.846  1.00  0.00    -0.109 C  
HETATM   12  O   UNL     1      -7.207  10.337  70.010  1.00  0.00    -0.146 OA 
BRANCH  11  13
HETATM   13  C   UNL     1      -8.133   8.316  70.994  1.00  0.00    -0.110 C  
HETATM   14  O   UNL     1      -7.703   8.855  72.249  1.00  0.00    -0.354 OA 
HETATM   15  H   UNL     1      -7.908   8.261  72.961  1.00  0.00     0.000 HD 
BRANCH  13  16
HETATM   16  C   UNL     1      -9.615   8.024  71.104  1.00  0.00    -0.189 A  
HETATM   17  C   UNL     1     -10.180   6.970  70.370  1.00  0.00    -0.209 A  
HETATM   18  C   UNL     1     -11.536   6.664  70.494  1.00  0.00    -0.448 A  
HETATM   19  C   UNL     1     -12.343   7.406  71.355  1.00  0.00    -0.394 A  
HETATM   20  C   UNL     1     -11.797   8.456  72.089  1.00  0.00    -0.441 A  
HETATM   21  C   UNL     1     -10.441   8.765  71.964  1.00  0.00    -0.414 A  
ENDBRANCH  13  16
ENDBRANCH  11  13
ENDBRANCH  10  11
ENDBRANCH   4  10
TORSDOF 4
ENDMDL
MODEL      166
REMARK 921   NORMALIZED FREE ENERGY PREDICTED BY IDOCK:   -3.97 KCAL/MOL
REMARK 922        TOTAL FREE ENERGY PREDICTED BY IDOCK:   -5.45 KCAL/MOL
REMARK 923 INTER-LIGAND FREE ENERGY PREDICTED BY IDOCK:   -5.09 KCAL/MOL
REMARK 924 INTRA-LIGAND FREE ENERGY PREDICTED BY IDOCK:   -0.37 KCAL/MOL
REMARK 927      BINDING AFFINITY PREDICTED BY RF-SCORE:    0.00 PKD
ROOT
HETATM    1  C   UNL     1      -8.722  17.122  66.289  1.00  0.00    -0.268 C  
HETATM    2  C   UNL     1     -10.239  17.193  66.480  1.00  0.00    -0.322 C  
HETATM    3  C   UNL     1     -10.958  16.055  65.748  1.00  0.00    -0.142 C  
HETATM    4  C   UNL     1     -10.855  14.715  66.486  1.00  0.00    -0.315 C  
HETATM    5  C   UNL     1     -11.426  14.853  67.903  1.00  0.00    -0.357 C  
HETATM    6  C   UNL     1     -11.488  16.167  70.050  1.00  0.00    -0.294 C  
HETATM    7  C   UNL     1     -10.707  15.937  68.739  1.00  0.00    -0.265 C  
HETATM    8  C   UNL     1      -9.294  15.470  69.140  1.00  0.00    -0.250 C  
HETATM    9  C   UNL     1     -10.670  17.273  67.955  1.00  0.00    -0.351 C  
ENDROOT
BRANCH   4  10
HETATM   10  O   UNL     1     -11.614  13.707  65.788  1.00  0.00    -0.319 OA 
BRANCH  10  11
HETATM   11  C   UNL     1     -11.536  12.451  66.320  1.00  0.00    -0.371 C  
HETATM   12  O   UNL     1     -12.373  11.941  67.060  1.00  0.00    -0.245 OA 
BRANCH  11  13
HETATM   13  C   UNL     1     -10.251  11.733  65.892  1.00  0.00    -0.237 C  
HETATM   14  O   UNL     1      -9.436  12.586  65.081  1.00  0.00    -0.453 OA 
HETATM   15  H   UNL     1      -8.640  12.141  64.816  1.00  0.00     0.000 HD 
BRANCH  13  16
HETATM   16  C   UNL     1      -9.413  11.282  67.070  1.00  0.00    -0.186 A  
HETATM   17  C   UNL     1      -9.549   9.977  67.571  1.00  0.00    -0.178 A  
HETATM   18  C   UNL     1      -8.753   9.537  68.629  1.00  0.00    -0.127 A  
HETATM   19  C   UNL     1      -7.811  10.391  69.197  1.00  0.00    -0.134 A  
HETATM   20  C   UNL     1      -7.665  11.688  68.712  1.00  0.00    -0.111 A  
HETATM   21  C   UNL     1      -8.462  12.133  67.655  1.00  0.00    -0.163 A  
ENDBRANCH  13  16
ENDBRANCH  11  13
ENDBRANCH  10  11
ENDBRANCH   4  10
TORSDOF 4
ENDMDL
MODEL      167
REMARK 921   NORMALIZED FREE ENERGY PREDICTED BY IDOCK:   -3.96 KCAL/MOL
REMARK 922        TOTAL FREE ENERGY PREDICTED BY IDOCK:   -5.44 KCAL/MOL
REMARK 923 INTER-LIGAND FREE ENERGY PREDICTED BY IDOCK:   -5.09 KCAL/MOL
REMARK 924 INTRA-LIGAND FREE ENERGY PREDICTED BY IDOCK:   -0.35 KCAL/MOL
REMARK 927      BINDING AFFINITY PREDICTED BY RF-SCORE:    0.00 PKD
ROOT
HETATM    1  C   UNL     1     -10.117  10.678  64.684  1.00  0.00    -0.417 C  
HETATM    2  C   UNL     1      -9.610  10.326  66.084  1.00  0.00    -0.248 C  
HETATM    3  C   UNL     1      -8.454  11.237  66.516  1.00  0.00    -0.171 C  
HETATM    4  C   UNL     1      -8.927  12.627  66.957  1.00  0.00    -0.216 C  
HETATM    5  C   UNL     1      -9.934  12.498  68.107  1.00  0.00    -0.224 C  
HETATM    6  C   UNL     1     -12.004  11.380  69.002  1.00  0.00    -0.387 C  
HETATM    7  C   UNL     1     -11.170  11.649  67.732  1.00  0.00    -0.333 C  
HETATM    8  C   UNL     1     -12.083  12.416  66.756  1.00  0.00    -0.118 C  
HETATM    9  C   UNL     1     -10.721  10.287  67.148  1.00  0.00    -0.303 C  
ENDROOT
BRANCH   4  10
HETATM   10  O   UNL     1      -7.805  13.406  67.421  1.00  0.00    -0.161 OA 
BRANCH  10  11
HETATM   11  C   UNL     1      -7.980  14.760  67.373  1.00  0.00    -0.197 C  
HETATM   12  O   UNL     1      -8.298  15.398  66.372  1.00  0.00    -0.226 OA 
BRANCH  11  13
HETATM   13  C   UNL     1      -7.718  15.415  68.733  1.00  0.00    -0.150 C  
HETATM   14  O   UNL     1      -6.363  15.205  69.148  1.00  0.00    -0.101 OA 
HETATM   15  H   UNL     1      -6.201  15.611  69.991  1.00  0.00     0.000 HD 
BRANCH  13  16
HETATM   16  C   UNL     1      -7.968  16.908  68.723  1.00  0.00    -0.254 A  
HETATM   17  C   UNL     1      -6.887  17.802  68.735  1.00  0.00    -0.247 A  
HETATM   18  C   UNL     1      -7.104  19.180  68.684  1.00  0.00    -0.353 A  
HETATM   19  C   UNL     1      -8.403  19.680  68.617  1.00  0.00    -0.306 A  
HETATM   20  C   UNL     1      -9.486  18.805  68.605  1.00  0.00    -0.412 A  
HETATM   21  C   UNL     1      -9.272  17.427  68.659  1.00  0.00    -0.265 A  
ENDBRANCH  13  16
ENDBRANCH  11  13
ENDBRANCH  10  11
ENDBRANCH   4  10
TORSDOF 4
ENDMDL
MODEL      168
REMARK 921   NORMALIZED FREE ENERGY PREDICTED BY IDOCK:   -3.91 KCAL/MOL
REMARK 922        TOTAL FREE ENERGY PREDICTED BY IDOCK:   -5.38 KCAL/MOL
REMARK 923 INTER-LIGAND FREE ENERGY PREDICTED BY IDOCK:   -4.23 KCAL/MOL
REMARK 924 INTRA-LIGAND FREE ENERGY PREDICTED BY IDOCK:   -1.15 KCAL/MOL
REMARK 927      BINDING AFFINITY PREDICTED BY RF-SCORE:    0.00 PKD
ROOT
HETATM    1  C   UNL     1     -10.364   6.663  69.528  1.00  0.00    -0.232 C  
HETATM    2  C   UNL     1     -11.311   6.238  70.652  1.00  0.00    -0.409 C  
HETATM    3  C   UNL     1     -10.563   6.012  71.971  1.00  0.00    -0.267 C  
HETATM    4  C   UNL     1     -10.195   7.323  72.677  1.00  0.00    -0.212 C  
HETATM    5  C   UNL     1     -11.461   8.147  72.942  1.00  0.00    -0.274 C  
HETATM    6  C   UNL     1     -13.605   9.101  72.030  1.00  0.00    -0.520 C  
HETATM    7  C   UNL     1     -12.243   8.481  71.651  1.00  0.00    -0.371 C  
HETATM    8  C   UNL     1     -11.492   9.536  70.815  1.00  0.00    -0.378 C  
HETATM    9  C   UNL     1     -12.507   7.187  70.841  1.00  0.00    -0.302 C  
ENDROOT
BRANCH   4  10
HETATM   10  O   UNL     1      -9.564   7.041  73.943  1.00  0.00    -0.214 OA 
BRANCH  10  11
HETATM   11  C   UNL     1      -8.302   7.545  74.085  1.00  0.00    -0.201 C  
HETATM   12  O   UNL     1      -8.030   8.717  74.331  1.00  0.00    -0.369 OA 
BRANCH  11  13
HETATM   13  C   UNL     1      -7.234   6.463  73.888  1.00  0.00    -0.085 C  
HETATM   14  O   UNL     1      -7.604   5.253  74.558  1.00  0.00    -0.088 OA 
HETATM   15  H   UNL     1      -6.942   4.583  74.436  1.00  0.00     0.000 HD 
BRANCH  13  16
HETATM   16  C   UNL     1      -7.004   6.128  72.430  1.00  0.00    -0.079 A  
HETATM   17  C   UNL     1      -6.662   7.141  71.520  1.00  0.00    -0.051 A  
HETATM   18  C   UNL     1      -6.407   6.838  70.182  1.00  0.00    -0.039 A  
HETATM   19  C   UNL     1      -6.487   5.520  69.737  1.00  0.00    -0.041 A  
HETATM   20  C   UNL     1      -6.827   4.504  70.626  1.00  0.00    -0.037 A  
HETATM   21  C   UNL     1      -7.085   4.805  71.965  1.00  0.00    -0.062 A  
ENDBRANCH  13  16
ENDBRANCH  11  13
ENDBRANCH  10  11
ENDBRANCH   4  10
TORSDOF 4
ENDMDL
MODEL      169
REMARK 921   NORMALIZED FREE ENERGY PREDICTED BY IDOCK:   -3.91 KCAL/MOL
REMARK 922        TOTAL FREE ENERGY PREDICTED BY IDOCK:   -5.37 KCAL/MOL
REMARK 923 INTER-LIGAND FREE ENERGY PREDICTED BY IDOCK:   -5.31 KCAL/MOL
REMARK 924 INTRA-LIGAND FREE ENERGY PREDICTED BY IDOCK:   -0.06 KCAL/MOL
REMARK 927      BINDING AFFINITY PREDICTED BY RF-SCORE:    0.00 PKD
ROOT
HETATM    1  C   UNL     1      -5.913  10.391  64.951  1.00  0.00    -0.122 C  
HETATM    2  C   UNL     1      -6.669  10.202  66.268  1.00  0.00    -0.102 C  
HETATM    3  C   UNL     1      -7.686  11.324  66.506  1.00  0.00    -0.125 C  
HETATM    4  C   UNL     1      -8.959  11.159  65.666  1.00  0.00    -0.184 C  
HETATM    5  C   UNL     1      -9.612   9.804  65.967  1.00  0.00    -0.296 C  
HETATM    6  C   UNL     1      -9.322   7.318  66.231  1.00  0.00    -0.160 C  
HETATM    7  C   UNL     1      -8.674   8.608  65.686  1.00  0.00    -0.214 C  
HETATM    8  C   UNL     1      -8.487   8.405  64.170  1.00  0.00    -0.018 C  
HETATM    9  C   UNL     1      -7.320   8.815  66.410  1.00  0.00    -0.084 C  
ENDROOT
BRANCH   4  10
HETATM   10  O   UNL     1      -9.903  12.200  65.991  1.00  0.00    -0.235 OA 
BRANCH  10  11
HETATM   11  C   UNL     1     -10.730  12.572  64.968  1.00  0.00    -0.294 C  
HETATM   12  O   UNL     1     -10.814  12.003  63.883  1.00  0.00    -0.324 OA 
BRANCH  11  13
HETATM   13  C   UNL     1     -11.552  13.814  65.327  1.00  0.00    -0.321 C  
HETATM   14  O   UNL     1     -12.934  13.620  65.011  1.00  0.00    -0.724 OA 
HETATM   15  H   UNL     1     -13.444  14.390  65.234  1.00  0.00     0.000 HD 
BRANCH  13  16
HETATM   16  C   UNL     1     -11.463  14.171  66.796  1.00  0.00    -0.383 A  
HETATM   17  C   UNL     1     -10.978  15.429  67.186  1.00  0.00    -0.317 A  
HETATM   18  C   UNL     1     -10.930  15.784  68.535  1.00  0.00    -0.312 A  
HETATM   19  C   UNL     1     -11.367  14.890  69.509  1.00  0.00    -0.307 A  
HETATM   20  C   UNL     1     -11.849  13.637  69.138  1.00  0.00    -0.394 A  
HETATM   21  C   UNL     1     -11.897  13.278  67.790  1.00  0.00    -0.394 A  
ENDBRANCH  13  16
ENDBRANCH  11  13
ENDBRANCH  10  11
ENDBRANCH   4  10
TORSDOF 4
ENDMDL
MODEL      170
REMARK 921   NORMALIZED FREE ENERGY PREDICTED BY IDOCK:   -3.88 KCAL/MOL
REMARK 922        TOTAL FREE ENERGY PREDICTED BY IDOCK:   -5.34 KCAL/MOL
REMARK 923 INTER-LIGAND FREE ENERGY PREDICTED BY IDOCK:   -4.83 KCAL/MOL
REMARK 924 INTRA-LIGAND FREE ENERGY PREDICTED BY IDOCK:   -0.51 KCAL/MOL
REMARK 927      BINDING AFFINITY PREDICTED BY RF-SCORE:    0.00 PKD
ROOT
HETATM    1  C   UNL     1     -11.501   5.273  72.951  1.00  0.00    -0.339 C  
HETATM    2  C   UNL     1     -10.406   5.107  71.895  1.00  0.00    -0.275 C  
HETATM    3  C   UNL     1     -10.683   5.956  70.649  1.00  0.00    -0.353 C  
HETATM    4  C   UNL     1     -10.358   7.440  70.859  1.00  0.00    -0.200 C  
HETATM    5  C   UNL     1      -8.889   7.601  71.271  1.00  0.00    -0.139 C  
HETATM    6  C   UNL     1      -7.010   6.855  72.771  1.00  0.00    -0.070 C  
HETATM    7  C   UNL     1      -8.539   6.829  72.564  1.00  0.00    -0.127 C  
HETATM    8  C   UNL     1      -9.166   7.513  73.794  1.00  0.00    -0.327 C  
HETATM    9  C   UNL     1      -8.987   5.352  72.437  1.00  0.00    -0.139 C  
ENDROOT
BRANCH   4  10
HETATM   10  O   UNL     1     -10.567   8.169  69.632  1.00  0.00    -0.227 OA 
BRANCH  10  11
HETATM   11  C   UNL     1     -10.946   9.472  69.789  1.00  0.00    -0.223 C  
HETATM   12  O   UNL     1     -11.260   9.995  70.856  1.00  0.00    -0.323 OA 
BRANCH  11  13
HETATM   13  C   UNL     1     -10.949  10.227  68.456  1.00  0.00    -0.247 C  
HETATM   14  O   UNL     1     -12.186  10.921  68.265  1.00  0.00    -0.804 OA 
HETATM   15  H   UNL     1     -12.188  11.388  67.438  1.00  0.00     0.000 HD 
BRANCH  13  16
HETATM   16  C   UNL     1      -9.832  11.245  68.357  1.00  0.00    -0.200 A  
HETATM   17  C   UNL     1      -8.522  10.887  68.708  1.00  0.00    -0.150 A  
HETATM   18  C   UNL     1      -7.477  11.805  68.582  1.00  0.00    -0.120 A  
HETATM   19  C   UNL     1      -7.729  13.088  68.101  1.00  0.00    -0.143 A  
HETATM   20  C   UNL     1      -9.024  13.458  67.749  1.00  0.00    -0.205 A  
HETATM   21  C   UNL     1     -10.071  12.543  67.877  1.00  0.00    -0.214 A  
ENDBRANCH  13  16
ENDBRANCH  11  13
ENDBRANCH  10  11
ENDBRANCH   4  10
TORSDOF 4
ENDMDL
MODEL      171
REMARK 921   NORMALIZED FREE ENERGY PREDICTED BY IDOCK:   -3.85 KCAL/MOL
REMARK 922        TOTAL FREE ENERGY PREDICTED BY IDOCK:   -5.31 KCAL/MOL
REMARK 923 INTER-LIGAND FREE ENERGY PREDICTED BY IDOCK:   -4.88 KCAL/MOL
REMARK 924 INTRA-LIGAND FREE ENERGY PREDICTED BY IDOCK:   -0.43 KCAL/MOL
REMARK 927      BINDING AFFINITY PREDICTED BY RF-SCORE:    0.00 PKD
ROOT
HETATM    1  C   UNL     1     -10.213  13.920  65.622  1.00  0.00    -0.344 C  
HETATM    2  C   UNL     1     -11.623  13.646  66.150  1.00  0.00    -0.369 C  
HETATM    3  C   UNL     1     -11.825  12.164  66.488  1.00  0.00    -0.322 C  
HETATM    4  C   UNL     1     -11.170  11.764  67.816  1.00  0.00    -0.266 C  
HETATM    5  C   UNL     1     -11.725  12.629  68.955  1.00  0.00    -0.370 C  
HETATM    6  C   UNL     1     -12.286  14.936  69.790  1.00  0.00    -0.328 C  
HETATM    7  C   UNL     1     -11.500  14.141  68.727  1.00  0.00    -0.333 C  
HETATM    8  C   UNL     1     -10.014  14.505  68.908  1.00  0.00    -0.206 C  
HETATM    9  C   UNL     1     -12.025  14.550  67.328  1.00  0.00    -0.375 C  
ENDROOT
BRANCH   4  10
HETATM   10  O   UNL     1     -11.461  10.382  68.113  1.00  0.00    -0.315 OA 
BRANCH  10  11
HETATM   11  C   UNL     1     -10.482   9.718  68.796  1.00  0.00    -0.218 C  
HETATM   12  O   UNL     1      -9.881  10.153  69.775  1.00  0.00    -0.232 OA 
BRANCH  11  13
HETATM   13  C   UNL     1     -10.198   8.342  68.184  1.00  0.00    -0.208 C  
HETATM   14  O   UNL     1     -11.075   8.082  67.083  1.00  0.00    -0.447 OA 
HETATM   15  H   UNL     1     -10.899   7.229  66.705  1.00  0.00     0.000 HD 
BRANCH  13  16
HETATM   16  C   UNL     1      -8.777   8.208  67.680  1.00  0.00    -0.130 A  
HETATM   17  C   UNL     1      -7.955   7.176  68.159  1.00  0.00    -0.119 A  
HETATM   18  C   UNL     1      -6.657   7.016  67.671  1.00  0.00    -0.055 A  
HETATM   19  C   UNL     1      -6.166   7.884  66.698  1.00  0.00    -0.050 A  
HETATM   20  C   UNL     1      -6.968   8.913  66.213  1.00  0.00    -0.079 A  
HETATM   21  C   UNL     1      -8.266   9.076  66.701  1.00  0.00    -0.118 A  
ENDBRANCH  13  16
ENDBRANCH  11  13
ENDBRANCH  10  11
ENDBRANCH   4  10
TORSDOF 4
ENDMDL
MODEL      172
REMARK 921   NORMALIZED FREE ENERGY PREDICTED BY IDOCK:   -3.83 KCAL/MOL
REMARK 922        TOTAL FREE ENERGY PREDICTED BY IDOCK:   -5.28 KCAL/MOL
REMARK 923 INTER-LIGAND FREE ENERGY PREDICTED BY IDOCK:   -4.78 KCAL/MOL
REMARK 924 INTRA-LIGAND FREE ENERGY PREDICTED BY IDOCK:   -0.50 KCAL/MOL
REMARK 927      BINDING AFFINITY PREDICTED BY RF-SCORE:    0.00 PKD
ROOT
HETATM    1  C   UNL     1     -10.090  11.218  68.829  1.00  0.00    -0.204 C  
HETATM    2  C   UNL     1     -10.966  11.035  67.587  1.00  0.00    -0.332 C  
HETATM    3  C   UNL     1     -11.164  12.353  66.831  1.00  0.00    -0.359 C  
HETATM    4  C   UNL     1      -9.939  12.750  65.998  1.00  0.00    -0.271 C  
HETATM    5  C   UNL     1      -9.600  11.635  65.001  1.00  0.00    -0.187 C  
HETATM    6  C   UNL     1      -9.216   9.178  64.613  1.00  0.00    -0.029 C  
HETATM    7  C   UNL     1      -9.315  10.280  65.688  1.00  0.00    -0.241 C  
HETATM    8  C   UNL     1      -7.958  10.312  66.417  1.00  0.00    -0.121 C  
HETATM    9  C   UNL     1     -10.475   9.918  66.649  1.00  0.00    -0.239 C  
ENDROOT
BRANCH   4  10
HETATM   10  O   UNL     1     -10.217  13.955  65.255  1.00  0.00    -0.336 OA 
BRANCH  10  11
HETATM   11  C   UNL     1     -10.261  15.099  66.000  1.00  0.00    -0.307 C  
HETATM   12  O   UNL     1     -11.238  15.500  66.627  1.00  0.00    -0.252 OA 
BRANCH  11  13
HETATM   13  C   UNL     1      -8.928  15.853  65.959  1.00  0.00    -0.302 C  
HETATM   14  O   UNL     1      -9.140  17.253  65.745  1.00  0.00    -0.523 OA 
HETATM   15  H   UNL     1      -8.314  17.721  65.719  1.00  0.00     0.000 HD 
BRANCH  13  16
HETATM   16  C   UNL     1      -8.128  15.700  67.235  1.00  0.00    -0.224 A  
HETATM   17  C   UNL     1      -7.942  16.802  68.084  1.00  0.00    -0.181 A  
HETATM   18  C   UNL     1      -7.242  16.664  69.284  1.00  0.00    -0.200 A  
HETATM   19  C   UNL     1      -6.723  15.424  69.651  1.00  0.00    -0.184 A  
HETATM   20  C   UNL     1      -6.898  14.322  68.818  1.00  0.00    -0.099 A  
HETATM   21  C   UNL     1      -7.596  14.458  67.616  1.00  0.00    -0.195 A  
ENDBRANCH  13  16
ENDBRANCH  11  13
ENDBRANCH  10  11
ENDBRANCH   4  10
TORSDOF 4
ENDMDL
MODEL      173
REMARK 921   NORMALIZED FREE ENERGY PREDICTED BY IDOCK:   -3.82 KCAL/MOL
REMARK 922        TOTAL FREE ENERGY PREDICTED BY IDOCK:   -5.27 KCAL/MOL
REMARK 923 INTER-LIGAND FREE ENERGY PREDICTED BY IDOCK:   -4.95 KCAL/MOL
REMARK 924 INTRA-LIGAND FREE ENERGY PREDICTED BY IDOCK:   -0.32 KCAL/MOL
REMARK 927      BINDING AFFINITY PREDICTED BY RF-SCORE:    0.00 PKD
ROOT
HETATM    1  C   UNL     1      -6.045   9.799  68.559  1.00  0.00    -0.042 C  
HETATM    2  C   UNL     1      -6.449   9.165  69.892  1.00  0.00    -0.042 C  
HETATM    3  C   UNL     1      -7.641   9.889  70.528  1.00  0.00    -0.034 C  
HETATM    4  C   UNL     1      -8.977   9.526  69.867  1.00  0.00    -0.212 C  
HETATM    5  C   UNL     1      -9.201   8.010  69.938  1.00  0.00    -0.152 C  
HETATM    6  C   UNL     1      -8.259   5.704  69.575  1.00  0.00    -0.103 C  
HETATM    7  C   UNL     1      -8.074   7.203  69.255  1.00  0.00    -0.120 C  
HETATM    8  C   UNL     1      -8.154   7.343  67.722  1.00  0.00    -0.119 C  
HETATM    9  C   UNL     1      -6.695   7.649  69.802  1.00  0.00    -0.039 C  
ENDROOT
BRANCH   4  10
HETATM   10  O   UNL     1     -10.062  10.178  70.558  1.00  0.00    -0.142 OA 
BRANCH  10  11
HETATM   11  C   UNL     1     -11.080  10.612  69.757  1.00  0.00    -0.295 C  
HETATM   12  O   UNL     1     -10.996  10.811  68.548  1.00  0.00    -0.206 OA 
BRANCH  11  13
HETATM   13  C   UNL     1     -12.369  10.842  70.554  1.00  0.00    -0.374 C  
HETATM   14  O   UNL     1     -12.383  10.046  71.743  1.00  0.00    -0.390 OA 
HETATM   15  H   UNL     1     -13.182  10.188  72.237  1.00  0.00     0.000 HD 
BRANCH  13  16
HETATM   16  C   UNL     1     -12.552  12.287  70.968  1.00  0.00    -0.352 A  
HETATM   17  C   UNL     1     -13.390  12.609  72.047  1.00  0.00    -0.555 A  
HETATM   18  C   UNL     1     -13.534  13.933  72.464  1.00  0.00    -0.676 A  
HETATM   19  C   UNL     1     -12.841  14.950  71.811  1.00  0.00    -0.404 A  
HETATM   20  C   UNL     1     -12.008  14.647  70.737  1.00  0.00    -0.380 A  
HETATM   21  C   UNL     1     -11.863  13.324  70.316  1.00  0.00    -0.307 A  
ENDBRANCH  13  16
ENDBRANCH  11  13
ENDBRANCH  10  11
ENDBRANCH   4  10
TORSDOF 4
ENDMDL
MODEL      174
REMARK 921   NORMALIZED FREE ENERGY PREDICTED BY IDOCK:   -3.81 KCAL/MOL
REMARK 922        TOTAL FREE ENERGY PREDICTED BY IDOCK:   -5.25 KCAL/MOL
REMARK 923 INTER-LIGAND FREE ENERGY PREDICTED BY IDOCK:   -4.98 KCAL/MOL
REMARK 924 INTRA-LIGAND FREE ENERGY PREDICTED BY IDOCK:   -0.27 KCAL/MOL
REMARK 927      BINDING AFFINITY PREDICTED BY RF-SCORE:    0.00 PKD
ROOT
HETATM    1  C   UNL     1      -8.557   9.106  63.640  1.00  0.00    -0.180 C  
HETATM    2  C   UNL     1      -7.578   9.699  64.656  1.00  0.00    -0.126 C  
HETATM    3  C   UNL     1      -8.197  10.870  65.427  1.00  0.00    -0.016 C  
HETATM    4  C   UNL     1      -9.170  10.412  66.521  1.00  0.00    -0.160 C  
HETATM    5  C   UNL     1      -8.451   9.477  67.502  1.00  0.00    -0.126 C  
HETATM    6  C   UNL     1      -6.961   7.473  67.822  1.00  0.00    -0.080 C  
HETATM    7  C   UNL     1      -7.854   8.228  66.815  1.00  0.00    -0.095 C  
HETATM    8  C   UNL     1      -8.970   7.252  66.392  1.00  0.00    -0.184 C  
HETATM    9  C   UNL     1      -6.976   8.653  65.611  1.00  0.00    -0.075 C  
ENDROOT
BRANCH   4  10
HETATM   10  O   UNL     1      -9.657  11.553  67.257  1.00  0.00    -0.171 OA 
BRANCH  10  11
HETATM   11  C   UNL     1     -11.016  11.635  67.366  1.00  0.00    -0.261 C  
HETATM   12  O   UNL     1     -11.799  11.719  66.423  1.00  0.00    -0.534 OA 
BRANCH  11  13
HETATM   13  C   UNL     1     -11.470  11.622  68.830  1.00  0.00    -0.285 C  
HETATM   14  O   UNL     1     -10.448  11.083  69.675  1.00  0.00    -0.420 OA 
HETATM   15  H   UNL     1     -10.729  11.075  70.582  1.00  0.00     0.000 HD 
BRANCH  13  16
HETATM   16  C   UNL     1     -11.814  13.002  69.348  1.00  0.00    -0.380 A  
HETATM   17  C   UNL     1     -11.631  14.127  68.528  1.00  0.00    -0.351 A  
HETATM   18  C   UNL     1     -11.983  15.399  68.980  1.00  0.00    -0.313 A  
HETATM   19  C   UNL     1     -12.524  15.563  70.254  1.00  0.00    -0.403 A  
HETATM   20  C   UNL     1     -12.709  14.458  71.080  1.00  0.00    -0.416 A  
HETATM   21  C   UNL     1     -12.356  13.183  70.631  1.00  0.00    -0.405 A  
ENDBRANCH  13  16
ENDBRANCH  11  13
ENDBRANCH  10  11
ENDBRANCH   4  10
TORSDOF 4
ENDMDL
MODEL      175
REMARK 921   NORMALIZED FREE ENERGY PREDICTED BY IDOCK:   -3.80 KCAL/MOL
REMARK 922        TOTAL FREE ENERGY PREDICTED BY IDOCK:   -5.24 KCAL/MOL
REMARK 923 INTER-LIGAND FREE ENERGY PREDICTED BY IDOCK:   -4.30 KCAL/MOL
REMARK 924 INTRA-LIGAND FREE ENERGY PREDICTED BY IDOCK:   -0.95 KCAL/MOL
REMARK 927      BINDING AFFINITY PREDICTED BY RF-SCORE:    0.00 PKD
ROOT
HETATM    1  C   UNL     1     -12.135   7.216  71.153  1.00  0.00    -0.397 C  
HETATM    2  C   UNL     1     -11.750   8.621  71.623  1.00  0.00    -0.380 C  
HETATM    3  C   UNL     1     -10.406   8.625  72.360  1.00  0.00    -0.317 C  
HETATM    4  C   UNL     1      -9.206   8.534  71.409  1.00  0.00    -0.210 C  
HETATM    5  C   UNL     1      -9.244   9.695  70.407  1.00  0.00    -0.258 C  
HETATM    6  C   UNL     1     -10.596  11.041  68.765  1.00  0.00    -0.232 C  
HETATM    7  C   UNL     1     -10.541   9.724  69.568  1.00  0.00    -0.253 C  
HETATM    8  C   UNL     1     -10.553   8.576  68.540  1.00  0.00    -0.154 C  
HETATM    9  C   UNL     1     -11.777   9.673  70.500  1.00  0.00    -0.312 C  
ENDROOT
BRANCH   4  10
HETATM   10  O   UNL     1      -7.976   8.620  72.157  1.00  0.00    -0.277 OA 
BRANCH  10  11
HETATM   11  C   UNL     1      -7.200   7.496  72.125  1.00  0.00    -0.068 C  
HETATM   12  O   UNL     1      -6.488   7.153  71.185  1.00  0.00    -0.043 OA 
BRANCH  11  13
HETATM   13  C   UNL     1      -7.326   6.683  73.418  1.00  0.00    -0.080 C  
HETATM   14  O   UNL     1      -7.549   7.542  74.541  1.00  0.00    -0.127 OA 
HETATM   15  H   UNL     1      -7.627   7.039  75.343  1.00  0.00     0.000 HD 
BRANCH  13  16
HETATM   16  C   UNL     1      -8.462   5.684  73.372  1.00  0.00    -0.116 A  
HETATM   17  C   UNL     1      -9.640   5.925  74.096  1.00  0.00    -0.170 A  
HETATM   18  C   UNL     1     -10.711   5.031  74.029  1.00  0.00    -0.341 A  
HETATM   19  C   UNL     1     -10.618   3.889  73.237  1.00  0.00    -0.272 A  
HETATM   20  C   UNL     1      -9.455   3.634  72.515  1.00  0.00    -0.178 A  
HETATM   21  C   UNL     1      -8.382   4.525  72.582  1.00  0.00    -0.110 A  
ENDBRANCH  13  16
ENDBRANCH  11  13
ENDBRANCH  10  11
ENDBRANCH   4  10
TORSDOF 4
ENDMDL
MODEL      176
REMARK 921   NORMALIZED FREE ENERGY PREDICTED BY IDOCK:   -3.79 KCAL/MOL
REMARK 922        TOTAL FREE ENERGY PREDICTED BY IDOCK:   -5.23 KCAL/MOL
REMARK 923 INTER-LIGAND FREE ENERGY PREDICTED BY IDOCK:   -4.86 KCAL/MOL
REMARK 924 INTRA-LIGAND FREE ENERGY PREDICTED BY IDOCK:   -0.37 KCAL/MOL
REMARK 927      BINDING AFFINITY PREDICTED BY RF-SCORE:    0.00 PKD
ROOT
HETATM    1  C   UNL     1     -11.010  14.926  65.481  1.00  0.00    -0.355 C  
HETATM    2  C   UNL     1      -9.673  15.085  66.209  1.00  0.00    -0.316 C  
HETATM    3  C   UNL     1      -9.095  16.494  66.035  1.00  0.00    -0.290 C  
HETATM    4  C   UNL     1      -9.787  17.534  66.925  1.00  0.00    -0.302 C  
HETATM    5  C   UNL     1      -9.681  17.116  68.397  1.00  0.00    -0.284 C  
HETATM    6  C   UNL     1      -9.951  15.294  70.112  1.00  0.00    -0.051 C  
HETATM    7  C   UNL     1     -10.306  15.730  68.675  1.00  0.00    -0.225 C  
HETATM    8  C   UNL     1     -11.844  15.799  68.600  1.00  0.00    -0.287 C  
HETATM    9  C   UNL     1      -9.729  14.681  67.692  1.00  0.00    -0.214 C  
ENDROOT
BRANCH   4  10
HETATM   10  O   UNL     1      -9.149  18.818  66.770  1.00  0.00    -0.291 OA 
BRANCH  10  11
HETATM   11  C   UNL     1      -7.842  18.772  66.374  1.00  0.00    -0.278 C  
HETATM   12  O   UNL     1      -7.456  18.537  65.231  1.00  0.00    -0.366 OA 
BRANCH  11  13
HETATM   13  C   UNL     1      -6.886  19.039  67.540  1.00  0.00    -0.204 C  
HETATM   14  O   UNL     1      -7.539  19.780  68.577  1.00  0.00    -0.331 OA 
HETATM   15  H   UNL     1      -6.946  19.946  69.300  1.00  0.00     0.000 HD 
BRANCH  13  16
HETATM   16  C   UNL     1      -6.345  17.767  68.158  1.00  0.00    -0.182 A  
HETATM   17  C   UNL     1      -6.081  17.711  69.535  1.00  0.00    -0.250 A  
HETATM   18  C   UNL     1      -5.621  16.531  70.122  1.00  0.00    -0.200 A  
HETATM   19  C   UNL     1      -5.424  15.393  69.342  1.00  0.00    -0.098 A  
HETATM   20  C   UNL     1      -5.680  15.434  67.974  1.00  0.00    -0.146 A  
HETATM   21  C   UNL     1      -6.137  16.613  67.383  1.00  0.00    -0.191 A  
ENDBRANCH  13  16
ENDBRANCH  11  13
ENDBRANCH  10  11
ENDBRANCH   4  10
TORSDOF 4
ENDMDL
MODEL      177
REMARK 921   NORMALIZED FREE ENERGY PREDICTED BY IDOCK:   -3.78 KCAL/MOL
REMARK 922        TOTAL FREE ENERGY PREDICTED BY IDOCK:   -5.22 KCAL/MOL
REMARK 923 INTER-LIGAND FREE ENERGY PREDICTED BY IDOCK:   -4.72 KCAL/MOL
REMARK 924 INTRA-LIGAND FREE ENERGY PREDICTED BY IDOCK:   -0.50 KCAL/MOL
REMARK 927      BINDING AFFINITY PREDICTED BY RF-SCORE:    0.00 PKD
ROOT
HETATM    1  C   UNL     1     -10.276  14.255  65.408  1.00  0.00    -0.395 C  
HETATM    2  C   UNL     1     -11.688  13.902  65.884  1.00  0.00    -0.372 C  
HETATM    3  C   UNL     1     -11.887  12.386  65.996  1.00  0.00    -0.459 C  
HETATM    4  C   UNL     1     -11.236  11.793  67.252  1.00  0.00    -0.305 C  
HETATM    5  C   UNL     1     -11.797  12.477  68.505  1.00  0.00    -0.341 C  
HETATM    6  C   UNL     1     -12.366  14.633  69.673  1.00  0.00    -0.270 C  
HETATM    7  C   UNL     1     -11.575  14.007  68.506  1.00  0.00    -0.357 C  
HETATM    8  C   UNL     1     -10.090  14.342  68.746  1.00  0.00    -0.234 C  
HETATM    9  C   UNL     1     -12.096  14.619  67.182  1.00  0.00    -0.218 C  
ENDROOT
BRANCH   4  10
HETATM   10  O   UNL     1     -11.524  10.382  67.338  1.00  0.00    -0.354 OA 
BRANCH  10  11
HETATM   11  C   UNL     1     -10.433   9.577  67.501  1.00  0.00    -0.275 C  
HETATM   12  O   UNL     1      -9.993   8.800  66.658  1.00  0.00    -0.239 OA 
BRANCH  11  13
HETATM   13  C   UNL     1      -9.809   9.744  68.891  1.00  0.00    -0.173 C  
HETATM   14  O   UNL     1      -9.855   8.514  69.622  1.00  0.00    -0.178 OA 
HETATM   15  H   UNL     1      -9.469   8.617  70.483  1.00  0.00     0.000 HD 
BRANCH  13  16
HETATM   16  C   UNL     1      -8.363  10.189  68.834  1.00  0.00    -0.130 A  
HETATM   17  C   UNL     1      -7.922  11.014  67.787  1.00  0.00    -0.115 A  
HETATM   18  C   UNL     1      -6.602  11.465  67.746  1.00  0.00    -0.069 A  
HETATM   19  C   UNL     1      -5.708  11.100  68.750  1.00  0.00    -0.043 A  
HETATM   20  C   UNL     1      -6.130  10.280  69.794  1.00  0.00    -0.054 A  
HETATM   21  C   UNL     1      -7.449   9.826  69.837  1.00  0.00    -0.142 A  
ENDBRANCH  13  16
ENDBRANCH  11  13
ENDBRANCH  10  11
ENDBRANCH   4  10
TORSDOF 4
ENDMDL
MODEL      178
REMARK 921   NORMALIZED FREE ENERGY PREDICTED BY IDOCK:   -3.78 KCAL/MOL
REMARK 922        TOTAL FREE ENERGY PREDICTED BY IDOCK:   -5.22 KCAL/MOL
REMARK 923 INTER-LIGAND FREE ENERGY PREDICTED BY IDOCK:   -4.67 KCAL/MOL
REMARK 924 INTRA-LIGAND FREE ENERGY PREDICTED BY IDOCK:   -0.54 KCAL/MOL
REMARK 927      BINDING AFFINITY PREDICTED BY RF-SCORE:    0.00 PKD
ROOT
HETATM    1  C   UNL     1     -12.250   8.312  72.329  1.00  0.00    -0.428 C  
HETATM    2  C   UNL     1     -12.229   6.951  71.629  1.00  0.00    -0.403 C  
HETATM    3  C   UNL     1     -11.218   6.920  70.477  1.00  0.00    -0.353 C  
HETATM    4  C   UNL     1      -9.770   6.776  70.961  1.00  0.00    -0.174 C  
HETATM    5  C   UNL     1      -9.624   5.503  71.804  1.00  0.00    -0.183 C  
HETATM    6  C   UNL     1     -10.518   4.085  73.682  1.00  0.00    -0.261 C  
HETATM    7  C   UNL     1     -10.562   5.484  73.032  1.00  0.00    -0.274 C  
HETATM    8  C   UNL     1     -10.082   6.485  74.101  1.00  0.00    -0.374 C  
HETATM    9  C   UNL     1     -12.019   5.769  72.591  1.00  0.00    -0.130 C  
ENDROOT
BRANCH   4  10
HETATM   10  O   UNL     1      -8.879   6.676  69.830  1.00  0.00    -0.142 OA 
BRANCH  10  11
HETATM   11  C   UNL     1      -8.053   7.749  69.647  1.00  0.00    -0.122 C  
HETATM   12  O   UNL     1      -6.900   7.692  69.228  1.00  0.00    -0.050 OA 
BRANCH  11  13
HETATM   13  C   UNL     1      -8.735   9.063  70.044  1.00  0.00    -0.157 C  
HETATM   14  O   UNL     1      -7.846   9.890  70.803  1.00  0.00    -0.391 OA 
HETATM   15  H   UNL     1      -8.268  10.704  71.049  1.00  0.00     0.000 HD 
BRANCH  13  16
HETATM   16  C   UNL     1      -9.199   9.867  68.848  1.00  0.00    -0.160 A  
HETATM   17  C   UNL     1     -10.150   9.330  67.966  1.00  0.00    -0.234 A  
HETATM   18  C   UNL     1     -10.616  10.077  66.884  1.00  0.00    -0.261 A  
HETATM   19  C   UNL     1     -10.140  11.368  66.670  1.00  0.00    -0.247 A  
HETATM   20  C   UNL     1      -9.195  11.914  67.534  1.00  0.00    -0.177 A  
HETATM   21  C   UNL     1      -8.725  11.169  68.617  1.00  0.00    -0.153 A  
ENDBRANCH  13  16
ENDBRANCH  11  13
ENDBRANCH  10  11
ENDBRANCH   4  10
TORSDOF 4
ENDMDL
MODEL      179
REMARK 921   NORMALIZED FREE ENERGY PREDICTED BY IDOCK:   -3.78 KCAL/MOL
REMARK 922        TOTAL FREE ENERGY PREDICTED BY IDOCK:   -5.21 KCAL/MOL
REMARK 923 INTER-LIGAND FREE ENERGY PREDICTED BY IDOCK:   -4.36 KCAL/MOL
REMARK 924 INTRA-LIGAND FREE ENERGY PREDICTED BY IDOCK:   -0.85 KCAL/MOL
REMARK 927      BINDING AFFINITY PREDICTED BY RF-SCORE:    0.00 PKD
ROOT
HETATM    1  C   UNL     1      -6.829   9.835  67.108  1.00  0.00    -0.083 C  
HETATM    2  C   UNL     1      -6.860  11.247  66.518  1.00  0.00    -0.101 C  
HETATM    3  C   UNL     1      -8.292  11.774  66.378  1.00  0.00    -0.040 C  
HETATM    4  C   UNL     1      -8.887  12.240  67.713  1.00  0.00    -0.174 C  
HETATM    5  C   UNL     1      -7.999  13.328  68.330  1.00  0.00    -0.144 C  
HETATM    6  C   UNL     1      -5.680  14.068  68.969  1.00  0.00    -0.088 C  
HETATM    7  C   UNL     1      -6.548  12.856  68.571  1.00  0.00    -0.087 C  
HETATM    8  C   UNL     1      -6.486  11.861  69.746  1.00  0.00    -0.077 C  
HETATM    9  C   UNL     1      -5.965  12.247  67.272  1.00  0.00    -0.150 C  
ENDROOT
BRANCH   4  10
HETATM   10  O   UNL     1     -10.202  12.793  67.501  1.00  0.00    -0.213 OA 
BRANCH  10  11
HETATM   11  C   UNL     1     -11.213  11.876  67.437  1.00  0.00    -0.305 C  
HETATM   12  O   UNL     1     -12.045  11.800  66.537  1.00  0.00    -0.498 OA 
BRANCH  11  13
HETATM   13  C   UNL     1     -11.203  10.937  68.648  1.00  0.00    -0.267 C  
HETATM   14  O   UNL     1     -12.535  10.677  69.103  1.00  0.00    -0.752 OA 
HETATM   15  H   UNL     1     -12.530  10.095  69.853  1.00  0.00     0.000 HD 
BRANCH  13  16
HETATM   16  C   UNL     1     -10.552   9.603  68.349  1.00  0.00    -0.264 A  
HETATM   17  C   UNL     1      -9.987   8.848  69.389  1.00  0.00    -0.192 A  
HETATM   18  C   UNL     1      -9.421   7.598  69.132  1.00  0.00    -0.154 A  
HETATM   19  C   UNL     1      -9.415   7.087  67.836  1.00  0.00    -0.128 A  
HETATM   20  C   UNL     1      -9.970   7.825  66.794  1.00  0.00    -0.331 A  
HETATM   21  C   UNL     1     -10.535   9.076  67.047  1.00  0.00    -0.316 A  
ENDBRANCH  13  16
ENDBRANCH  11  13
ENDBRANCH  10  11
ENDBRANCH   4  10
TORSDOF 4
ENDMDL
MODEL      180
REMARK 921   NORMALIZED FREE ENERGY PREDICTED BY IDOCK:   -3.77 KCAL/MOL
REMARK 922        TOTAL FREE ENERGY PREDICTED BY IDOCK:   -5.21 KCAL/MOL
REMARK 923 INTER-LIGAND FREE ENERGY PREDICTED BY IDOCK:   -4.79 KCAL/MOL
REMARK 924 INTRA-LIGAND FREE ENERGY PREDICTED BY IDOCK:   -0.41 KCAL/MOL
REMARK 927      BINDING AFFINITY PREDICTED BY RF-SCORE:    0.00 PKD
ROOT
HETATM    1  C   UNL     1      -8.379  17.438  67.321  1.00  0.00    -0.221 C  
HETATM    2  C   UNL     1      -9.729  16.936  66.806  1.00  0.00    -0.274 C  
HETATM    3  C   UNL     1      -9.598  15.585  66.092  1.00  0.00    -0.362 C  
HETATM    4  C   UNL     1      -9.451  14.410  67.067  1.00  0.00    -0.248 C  
HETATM    5  C   UNL     1     -10.649  14.370  68.024  1.00  0.00    -0.241 C  
HETATM    6  C   UNL     1     -12.161  15.635  69.590  1.00  0.00    -0.329 C  
HETATM    7  C   UNL     1     -10.813  15.673  68.838  1.00  0.00    -0.252 C  
HETATM    8  C   UNL     1      -9.711  15.791  69.908  1.00  0.00    -0.089 C  
HETATM    9  C   UNL     1     -10.823  16.896  67.887  1.00  0.00    -0.310 C  
ENDROOT
BRANCH   4  10
HETATM   10  O   UNL     1      -9.409  13.166  66.338  1.00  0.00    -0.246 OA 
BRANCH  10  11
HETATM   11  C   UNL     1      -9.326  12.044  67.113  1.00  0.00    -0.187 C  
HETATM   12  O   UNL     1      -8.486  11.846  67.987  1.00  0.00    -0.146 OA 
BRANCH  11  13
HETATM   13  C   UNL     1     -10.415  11.027  66.755  1.00  0.00    -0.251 C  
HETATM   14  O   UNL     1     -11.245  11.518  65.697  1.00  0.00    -0.253 OA 
HETATM   15  H   UNL     1     -11.920  10.888  65.475  1.00  0.00     0.000 HD 
BRANCH  13  16
HETATM   16  C   UNL     1      -9.849   9.694  66.313  1.00  0.00    -0.323 A  
HETATM   17  C   UNL     1      -8.940   9.636  65.245  1.00  0.00    -0.246 A  
HETATM   18  C   UNL     1      -8.379   8.419  64.855  1.00  0.00    -0.159 A  
HETATM   19  C   UNL     1      -8.718   7.246  65.528  1.00  0.00    -0.047 A  
HETATM   20  C   UNL     1      -9.620   7.287  66.588  1.00  0.00    -0.236 A  
HETATM   21  C   UNL     1     -10.184   8.504  66.979  1.00  0.00    -0.371 A  
ENDBRANCH  13  16
ENDBRANCH  11  13
ENDBRANCH  10  11
ENDBRANCH   4  10
TORSDOF 4
ENDMDL
MODEL      181
REMARK 921   NORMALIZED FREE ENERGY PREDICTED BY IDOCK:   -3.76 KCAL/MOL
REMARK 922        TOTAL FREE ENERGY PREDICTED BY IDOCK:   -5.19 KCAL/MOL
REMARK 923 INTER-LIGAND FREE ENERGY PREDICTED BY IDOCK:   -4.55 KCAL/MOL
REMARK 924 INTRA-LIGAND FREE ENERGY PREDICTED BY IDOCK:   -0.64 KCAL/MOL
REMARK 927      BINDING AFFINITY PREDICTED BY RF-SCORE:    0.00 PKD
ROOT
HETATM    1  C   UNL     1      -8.263  11.875  68.550  1.00  0.00    -0.126 C  
HETATM    2  C   UNL     1      -8.285  11.696  67.030  1.00  0.00    -0.170 C  
HETATM    3  C   UNL     1      -8.212  10.218  66.631  1.00  0.00    -0.125 C  
HETATM    4  C   UNL     1      -9.549   9.488  66.810  1.00  0.00    -0.176 C  
HETATM    5  C   UNL     1     -10.641  10.187  65.989  1.00  0.00    -0.071 C  
HETATM    6  C   UNL     1     -11.768  12.347  65.357  1.00  0.00    -0.452 C  
HETATM    7  C   UNL     1     -10.829  11.671  66.379  1.00  0.00    -0.333 C  
HETATM    8  C   UNL     1     -11.510  11.792  67.756  1.00  0.00    -0.381 C  
HETATM    9  C   UNL     1      -9.466  12.405  66.345  1.00  0.00    -0.240 C  
ENDROOT
BRANCH   4  10
HETATM   10  O   UNL     1      -9.435   8.127  66.346  1.00  0.00    -0.204 OA 
BRANCH  10  11
HETATM   11  C   UNL     1     -10.124   7.205  67.082  1.00  0.00    -0.225 C  
HETATM   12  O   UNL     1     -11.265   6.818  66.843  1.00  0.00    -0.375 OA 
BRANCH  11  13
HETATM   13  C   UNL     1      -9.303   6.702  68.274  1.00  0.00    -0.119 C  
HETATM   14  O   UNL     1      -7.901   6.838  68.021  1.00  0.00    -0.109 OA 
HETATM   15  H   UNL     1      -7.392   6.526  68.760  1.00  0.00     0.000 HD 
BRANCH  13  16
HETATM   16  C   UNL     1      -9.613   7.448  69.554  1.00  0.00    -0.155 A  
HETATM   17  C   UNL     1      -8.589   7.718  70.476  1.00  0.00    -0.132 A  
HETATM   18  C   UNL     1      -8.855   8.441  71.640  1.00  0.00    -0.246 A  
HETATM   19  C   UNL     1     -10.143   8.903  71.896  1.00  0.00    -0.393 A  
HETATM   20  C   UNL     1     -11.170   8.641  70.993  1.00  0.00    -0.321 A  
HETATM   21  C   UNL     1     -10.908   7.917  69.828  1.00  0.00    -0.202 A  
ENDBRANCH  13  16
ENDBRANCH  11  13
ENDBRANCH  10  11
ENDBRANCH   4  10
TORSDOF 4
ENDMDL
MODEL      182
REMARK 921   NORMALIZED FREE ENERGY PREDICTED BY IDOCK:   -3.75 KCAL/MOL
REMARK 922        TOTAL FREE ENERGY PREDICTED BY IDOCK:   -5.18 KCAL/MOL
REMARK 923 INTER-LIGAND FREE ENERGY PREDICTED BY IDOCK:   -4.65 KCAL/MOL
REMARK 924 INTRA-LIGAND FREE ENERGY PREDICTED BY IDOCK:   -0.54 KCAL/MOL
REMARK 927      BINDING AFFINITY PREDICTED BY RF-SCORE:    0.00 PKD
ROOT
HETATM    1  C   UNL     1      -7.736  16.938  68.303  1.00  0.00    -0.205 C  
HETATM    2  C   UNL     1      -8.506  15.941  69.173  1.00  0.00    -0.254 C  
HETATM    3  C   UNL     1      -9.729  15.375  68.442  1.00  0.00    -0.211 C  
HETATM    4  C   UNL     1      -9.360  14.302  67.410  1.00  0.00    -0.203 C  
HETATM    5  C   UNL     1      -8.598  13.159  68.093  1.00  0.00    -0.181 C  
HETATM    6  C   UNL     1      -6.737  12.476  69.644  1.00  0.00     0.079 C  
HETATM    7  C   UNL     1      -7.307  13.634  68.798  1.00  0.00    -0.093 C  
HETATM    8  C   UNL     1      -6.225  14.004  67.765  1.00  0.00    -0.152 C  
HETATM    9  C   UNL     1      -7.625  14.817  69.746  1.00  0.00     0.025 C  
ENDROOT
BRANCH   4  10
HETATM   10  O   UNL     1     -10.556  13.758  66.815  1.00  0.00    -0.271 OA 
BRANCH  10  11
HETATM   11  C   UNL     1     -10.721  14.036  65.488  1.00  0.00    -0.313 C  
HETATM   12  O   UNL     1     -10.399  15.086  64.939  1.00  0.00    -0.383 OA 
BRANCH  11  13
HETATM   13  C   UNL     1     -11.380  12.870  64.742  1.00  0.00    -0.315 C  
HETATM   14  O   UNL     1     -11.395  13.111  63.331  1.00  0.00    -0.613 OA 
HETATM   15  H   UNL     1     -11.803  12.389  62.869  1.00  0.00     0.000 HD 
BRANCH  13  16
HETATM   16  C   UNL     1     -10.673  11.552  64.975  1.00  0.00    -0.350 A  
HETATM   17  C   UNL     1      -9.710  11.099  64.060  1.00  0.00    -0.323 A  
HETATM   18  C   UNL     1      -9.022   9.906  64.285  1.00  0.00    -0.278 A  
HETATM   19  C   UNL     1      -9.286   9.153  65.427  1.00  0.00    -0.266 A  
HETATM   20  C   UNL     1     -10.239   9.587  66.344  1.00  0.00    -0.302 A  
HETATM   21  C   UNL     1     -10.931  10.780  66.120  1.00  0.00    -0.037 A  
ENDBRANCH  13  16
ENDBRANCH  11  13
ENDBRANCH  10  11
ENDBRANCH   4  10
TORSDOF 4
ENDMDL
MODEL      183
REMARK 921   NORMALIZED FREE ENERGY PREDICTED BY IDOCK:   -3.75 KCAL/MOL
REMARK 922        TOTAL FREE ENERGY PREDICTED BY IDOCK:   -5.18 KCAL/MOL
REMARK 923 INTER-LIGAND FREE ENERGY PREDICTED BY IDOCK:   -4.59 KCAL/MOL
REMARK 924 INTRA-LIGAND FREE ENERGY PREDICTED BY IDOCK:   -0.59 KCAL/MOL
REMARK 927      BINDING AFFINITY PREDICTED BY RF-SCORE:    0.00 PKD
ROOT
HETATM    1  C   UNL     1     -11.550  13.151  68.338  1.00  0.00    -0.372 C  
HETATM    2  C   UNL     1     -10.373  13.810  67.614  1.00  0.00    -0.239 C  
HETATM    3  C   UNL     1      -9.538  12.785  66.837  1.00  0.00    -0.235 C  
HETATM    4  C   UNL     1     -10.200  12.353  65.523  1.00  0.00    -0.274 C  
HETATM    5  C   UNL     1     -10.457  13.580  64.638  1.00  0.00    -0.439 C  
HETATM    6  C   UNL     1     -11.366  15.921  64.465  1.00  0.00    -0.316 C  
HETATM    7  C   UNL     1     -11.354  14.637  65.322  1.00  0.00    -0.354 C  
HETATM    8  C   UNL     1     -12.812  14.145  65.405  1.00  0.00    -0.393 C  
HETATM    9  C   UNL     1     -10.786  14.991  66.719  1.00  0.00    -0.318 C  
ENDROOT
BRANCH   4  10
HETATM   10  O   UNL     1      -9.332  11.451  64.807  1.00  0.00    -0.194 OA 
BRANCH  10  11
HETATM   11  C   UNL     1      -9.216  10.204  65.352  1.00  0.00    -0.202 C  
HETATM   12  O   UNL     1     -10.149   9.526  65.776  1.00  0.00    -0.288 OA 
BRANCH  11  13
HETATM   13  C   UNL     1      -7.758   9.735  65.390  1.00  0.00    -0.123 C  
HETATM   14  O   UNL     1      -6.863  10.852  65.393  1.00  0.00    -0.358 OA 
HETATM   15  H   UNL     1      -5.959  10.562  65.416  1.00  0.00     0.000 HD 
BRANCH  13  16
HETATM   16  C   UNL     1      -7.445   8.893  66.609  1.00  0.00    -0.086 A  
HETATM   17  C   UNL     1      -7.135   9.512  67.830  1.00  0.00    -0.081 A  
HETATM   18  C   UNL     1      -6.885   8.748  68.970  1.00  0.00    -0.059 A  
HETATM   19  C   UNL     1      -6.945   7.357  68.906  1.00  0.00    -0.078 A  
HETATM   20  C   UNL     1      -7.249   6.728  67.702  1.00  0.00    -0.094 A  
HETATM   21  C   UNL     1      -7.497   7.491  66.558  1.00  0.00    -0.084 A  
ENDBRANCH  13  16
ENDBRANCH  11  13
ENDBRANCH  10  11
ENDBRANCH   4  10
TORSDOF 4
ENDMDL
MODEL      184
REMARK 921   NORMALIZED FREE ENERGY PREDICTED BY IDOCK:   -3.74 KCAL/MOL
REMARK 922        TOTAL FREE ENERGY PREDICTED BY IDOCK:   -5.16 KCAL/MOL
REMARK 923 INTER-LIGAND FREE ENERGY PREDICTED BY IDOCK:   -4.79 KCAL/MOL
REMARK 924 INTRA-LIGAND FREE ENERGY PREDICTED BY IDOCK:   -0.37 KCAL/MOL
REMARK 927      BINDING AFFINITY PREDICTED BY RF-SCORE:    0.00 PKD
ROOT
HETATM    1  C   UNL     1      -6.634   6.815  66.674  1.00  0.00    -0.044 C  
HETATM    2  C   UNL     1      -6.554   5.659  67.674  1.00  0.00    -0.053 C  
HETATM    3  C   UNL     1      -7.142   6.043  69.036  1.00  0.00    -0.073 C  
HETATM    4  C   UNL     1      -8.676   6.040  69.043  1.00  0.00    -0.122 C  
HETATM    5  C   UNL     1      -9.198   4.657  68.632  1.00  0.00    -0.173 C  
HETATM    6  C   UNL     1      -9.083   2.741  67.004  1.00  0.00    -0.184 C  
HETATM    7  C   UNL     1      -8.707   4.220  67.233  1.00  0.00    -0.111 C  
HETATM    8  C   UNL     1      -9.411   5.033  66.129  1.00  0.00    -0.157 C  
HETATM    9  C   UNL     1      -7.166   4.348  67.148  1.00  0.00    -0.069 C  
ENDROOT
BRANCH   4  10
HETATM   10  O   UNL     1      -9.164   6.334  70.368  1.00  0.00    -0.152 OA 
BRANCH  10  11
HETATM   11  C   UNL     1      -9.557   7.627  70.567  1.00  0.00    -0.167 C  
HETATM   12  O   UNL     1      -8.943   8.460  71.230  1.00  0.00    -0.148 OA 
BRANCH  11  13
HETATM   13  C   UNL     1     -10.885   7.930  69.867  1.00  0.00    -0.221 C  
HETATM   14  O   UNL     1     -11.760   6.798  69.919  1.00  0.00    -0.575 OA 
HETATM   15  H   UNL     1     -12.583   6.985  69.485  1.00  0.00     0.000 HD 
BRANCH  13  16
HETATM   16  C   UNL     1     -11.617   9.103  70.483  1.00  0.00    -0.238 A  
HETATM   17  C   UNL     1     -11.380  10.405  70.014  1.00  0.00    -0.384 A  
HETATM   18  C   UNL     1     -12.079  11.490  70.546  1.00  0.00    -0.472 A  
HETATM   19  C   UNL     1     -13.024  11.287  71.549  1.00  0.00    -0.520 A  
HETATM   20  C   UNL     1     -13.270  10.002  72.026  1.00  0.00    -0.545 A  
HETATM   21  C   UNL     1     -12.571   8.915  71.498  1.00  0.00    -0.385 A  
ENDBRANCH  13  16
ENDBRANCH  11  13
ENDBRANCH  10  11
ENDBRANCH   4  10
TORSDOF 4
ENDMDL
MODEL      185
REMARK 921   NORMALIZED FREE ENERGY PREDICTED BY IDOCK:   -3.72 KCAL/MOL
REMARK 922        TOTAL FREE ENERGY PREDICTED BY IDOCK:   -5.14 KCAL/MOL
REMARK 923 INTER-LIGAND FREE ENERGY PREDICTED BY IDOCK:   -4.89 KCAL/MOL
REMARK 924 INTRA-LIGAND FREE ENERGY PREDICTED BY IDOCK:   -0.25 KCAL/MOL
REMARK 927      BINDING AFFINITY PREDICTED BY RF-SCORE:    0.00 PKD
ROOT
HETATM    1  C   UNL     1      -8.703  14.109  68.286  1.00  0.00    -0.181 C  
HETATM    2  C   UNL     1      -8.705  13.179  67.070  1.00  0.00    -0.193 C  
HETATM    3  C   UNL     1      -8.533  11.711  67.477  1.00  0.00    -0.150 C  
HETATM    4  C   UNL     1      -9.820  11.096  68.041  1.00  0.00    -0.174 C  
HETATM    5  C   UNL     1     -10.951  11.213  67.011  1.00  0.00    -0.348 C  
HETATM    6  C   UNL     1     -12.215  12.679  65.402  1.00  0.00    -0.517 C  
HETATM    7  C   UNL     1     -11.239  12.674  66.597  1.00  0.00    -0.346 C  
HETATM    8  C   UNL     1     -11.933  13.440  67.740  1.00  0.00    -0.363 C  
HETATM    9  C   UNL     1      -9.927  13.369  66.154  1.00  0.00    -0.299 C  
ENDROOT
BRANCH   4  10
HETATM   10  O   UNL     1      -9.614   9.699  68.331  1.00  0.00    -0.143 OA 
BRANCH  10  11
HETATM   11  C   UNL     1     -10.344   9.211  69.378  1.00  0.00    -0.216 C  
HETATM   12  O   UNL     1     -10.404   9.714  70.496  1.00  0.00    -0.263 OA 
BRANCH  11  13
HETATM   13  C   UNL     1     -11.089   7.927  68.998  1.00  0.00     0.232 C  
HETATM   14  O   UNL     1     -11.074   7.728  67.581  1.00  0.00    -0.508 OA 
HETATM   15  H   UNL     1     -11.536   6.932  67.345  1.00  0.00     0.000 HD 
BRANCH  13  16
HETATM   16  C   UNL     1     -10.493   6.692  69.641  1.00  0.00    -0.249 A  
HETATM   17  C   UNL     1     -10.246   5.547  68.868  1.00  0.00    -0.284 A  
HETATM   18  C   UNL     1      -9.659   4.417  69.440  1.00  0.00    -0.269 A  
HETATM   19  C   UNL     1      -9.309   4.419  70.788  1.00  0.00    -0.224 A  
HETATM   20  C   UNL     1      -9.550   5.546  71.569  1.00  0.00    -0.188 A  
HETATM   21  C   UNL     1     -10.139   6.677  71.000  1.00  0.00    -0.207 A  
ENDBRANCH  13  16
ENDBRANCH  11  13
ENDBRANCH  10  11
ENDBRANCH   4  10
TORSDOF 4
ENDMDL
MODEL      186
REMARK 921   NORMALIZED FREE ENERGY PREDICTED BY IDOCK:   -3.70 KCAL/MOL
REMARK 922        TOTAL FREE ENERGY PREDICTED BY IDOCK:   -5.12 KCAL/MOL
REMARK 923 INTER-LIGAND FREE ENERGY PREDICTED BY IDOCK:   -4.30 KCAL/MOL
REMARK 924 INTRA-LIGAND FREE ENERGY PREDICTED BY IDOCK:   -0.82 KCAL/MOL
REMARK 927      BINDING AFFINITY PREDICTED BY RF-SCORE:    0.00 PKD
ROOT
HETATM    1  C   UNL     1      -9.586   7.808  67.135  1.00  0.00    -0.220 C  
HETATM    2  C   UNL     1      -8.523   6.710  67.205  1.00  0.00    -0.120 C  
HETATM    3  C   UNL     1      -7.372   7.092  68.143  1.00  0.00    -0.097 C  
HETATM    4  C   UNL     1      -7.736   6.935  69.625  1.00  0.00    -0.110 C  
HETATM    5  C   UNL     1      -8.169   5.491  69.907  1.00  0.00    -0.105 C  
HETATM    6  C   UNL     1      -9.590   3.528  69.227  1.00  0.00    -0.161 C  
HETATM    7  C   UNL     1      -9.376   5.045  69.050  1.00  0.00    -0.176 C  
HETATM    8  C   UNL     1     -10.668   5.736  69.526  1.00  0.00    -0.408 C  
HETATM    9  C   UNL     1      -9.093   5.324  67.552  1.00  0.00    -0.110 C  
ENDROOT
BRANCH   4  10
HETATM   10  O   UNL     1      -6.591   7.235  70.449  1.00  0.00    -0.045 OA 
BRANCH  10  11
HETATM   11  C   UNL     1      -6.861   7.392  71.779  1.00  0.00    -0.058 C  
HETATM   12  O   UNL     1      -6.577   6.585  72.660  1.00  0.00    -0.062 OA 
BRANCH  11  13
HETATM   13  C   UNL     1      -7.584   8.714  72.059  1.00  0.00    -0.038 C  
HETATM   14  O   UNL     1      -7.238   9.702  71.082  1.00  0.00    -0.328 OA 
HETATM   15  H   UNL     1      -7.686  10.521  71.255  1.00  0.00     0.000 HD 
BRANCH  13  16
HETATM   16  C   UNL     1      -9.091   8.570  72.051  1.00  0.00    -0.317 A  
HETATM   17  C   UNL     1      -9.724   7.756  73.003  1.00  0.00    -0.329 A  
HETATM   18  C   UNL     1     -11.116   7.648  73.032  1.00  0.00    -0.437 A  
HETATM   19  C   UNL     1     -11.890   8.352  72.112  1.00  0.00    -0.441 A  
HETATM   20  C   UNL     1     -11.277   9.161  71.160  1.00  0.00    -0.395 A  
HETATM   21  C   UNL     1      -9.885   9.270  71.127  1.00  0.00    -0.342 A  
ENDBRANCH  13  16
ENDBRANCH  11  13
ENDBRANCH  10  11
ENDBRANCH   4  10
TORSDOF 4
ENDMDL
MODEL      187
REMARK 921   NORMALIZED FREE ENERGY PREDICTED BY IDOCK:   -3.69 KCAL/MOL
REMARK 922        TOTAL FREE ENERGY PREDICTED BY IDOCK:   -5.11 KCAL/MOL
REMARK 923 INTER-LIGAND FREE ENERGY PREDICTED BY IDOCK:   -4.87 KCAL/MOL
REMARK 924 INTRA-LIGAND FREE ENERGY PREDICTED BY IDOCK:   -0.24 KCAL/MOL
REMARK 927      BINDING AFFINITY PREDICTED BY RF-SCORE:    0.00 PKD
ROOT
HETATM    1  C   UNL     1      -6.919   4.933  73.276  1.00  0.00    -0.071 C  
HETATM    2  C   UNL     1      -7.943   6.070  73.263  1.00  0.00    -0.108 C  
HETATM    3  C   UNL     1      -7.870   6.886  71.967  1.00  0.00    -0.095 C  
HETATM    4  C   UNL     1      -8.534   6.177  70.780  1.00  0.00    -0.131 C  
HETATM    5  C   UNL     1     -10.000   5.867  71.108  1.00  0.00    -0.236 C  
HETATM    6  C   UNL     1     -11.655   4.921  72.752  1.00  0.00    -0.147 C  
HETATM    7  C   UNL     1     -10.162   4.985  72.367  1.00  0.00    -0.254 C  
HETATM    8  C   UNL     1      -9.714   3.539  72.082  1.00  0.00    -0.230 C  
HETATM    9  C   UNL     1      -9.381   5.605  73.553  1.00  0.00    -0.138 C  
ENDROOT
BRANCH   4  10
HETATM   10  O   UNL     1      -8.499   7.026  69.615  1.00  0.00    -0.131 OA 
BRANCH  10  11
HETATM   11  C   UNL     1      -9.610   7.799  69.428  1.00  0.00    -0.156 C  
HETATM   12  O   UNL     1     -10.562   7.509  68.708  1.00  0.00    -0.206 OA 
BRANCH  11  13
HETATM   13  C   UNL     1      -9.532   9.105  70.225  1.00  0.00    -0.219 C  
HETATM   14  O   UNL     1      -9.056  10.177  69.404  1.00  0.00    -0.188 OA 
HETATM   15  H   UNL     1      -9.007  10.986  69.898  1.00  0.00     0.000 HD 
BRANCH  13  16
HETATM   16  C   UNL     1     -10.871   9.524  70.795  1.00  0.00    -0.386 A  
HETATM   17  C   UNL     1     -11.445   8.797  71.849  1.00  0.00    -0.428 A  
HETATM   18  C   UNL     1     -12.659   9.198  72.410  1.00  0.00    -0.381 A  
HETATM   19  C   UNL     1     -13.312  10.330  71.926  1.00  0.00    -0.487 A  
HETATM   20  C   UNL     1     -12.756  11.060  70.879  1.00  0.00    -0.452 A  
HETATM   21  C   UNL     1     -11.543  10.661  70.315  1.00  0.00    -0.424 A  
ENDBRANCH  13  16
ENDBRANCH  11  13
ENDBRANCH  10  11
ENDBRANCH   4  10
TORSDOF 4
ENDMDL
MODEL      188
REMARK 921   NORMALIZED FREE ENERGY PREDICTED BY IDOCK:   -3.69 KCAL/MOL
REMARK 922        TOTAL FREE ENERGY PREDICTED BY IDOCK:   -5.10 KCAL/MOL
REMARK 923 INTER-LIGAND FREE ENERGY PREDICTED BY IDOCK:   -4.14 KCAL/MOL
REMARK 924 INTRA-LIGAND FREE ENERGY PREDICTED BY IDOCK:   -0.96 KCAL/MOL
REMARK 927      BINDING AFFINITY PREDICTED BY RF-SCORE:    0.00 PKD
ROOT
HETATM    1  C   UNL     1     -10.020   5.744  68.707  1.00  0.00    -0.207 C  
HETATM    2  C   UNL     1     -10.564   6.030  67.306  1.00  0.00    -0.367 C  
HETATM    3  C   UNL     1     -10.400   7.505  66.922  1.00  0.00    -0.379 C  
HETATM    4  C   UNL     1      -8.963   7.856  66.516  1.00  0.00    -0.161 C  
HETATM    5  C   UNL     1      -8.519   6.971  65.345  1.00  0.00    -0.093 C  
HETATM    6  C   UNL     1      -8.351   4.652  64.380  1.00  0.00    -0.118 C  
HETATM    7  C   UNL     1      -8.587   5.462  65.672  1.00  0.00    -0.146 C  
HETATM    8  C   UNL     1      -7.469   5.065  66.655  1.00  0.00    -0.087 C  
HETATM    9  C   UNL     1      -9.990   5.101  66.222  1.00  0.00    -0.232 C  
ENDROOT
BRANCH   4  10
HETATM   10  O   UNL     1      -8.892   9.234  66.095  1.00  0.00    -0.141 OA 
BRANCH  10  11
HETATM   11  C   UNL     1      -7.898   9.968  66.678  1.00  0.00    -0.111 C  
HETATM   12  O   UNL     1      -6.705   9.674  66.675  1.00  0.00    -0.076 OA 
BRANCH  11  13
HETATM   13  C   UNL     1      -8.447  11.222  67.366  1.00  0.00    -0.137 C  
HETATM   14  O   UNL     1      -9.197  12.022  66.445  1.00  0.00    -0.216 OA 
HETATM   15  H   UNL     1      -9.538  12.799  66.871  1.00  0.00     0.000 HD 
BRANCH  13  16
HETATM   16  C   UNL     1      -9.352  10.899  68.536  1.00  0.00    -0.181 A  
HETATM   17  C   UNL     1     -10.621  11.493  68.628  1.00  0.00    -0.236 A  
HETATM   18  C   UNL     1     -11.481  11.172  69.680  1.00  0.00    -0.383 A  
HETATM   19  C   UNL     1     -11.085  10.253  70.650  1.00  0.00    -0.358 A  
HETATM   20  C   UNL     1      -9.829   9.657  70.573  1.00  0.00    -0.294 A  
HETATM   21  C   UNL     1      -8.966   9.978  69.523  1.00  0.00    -0.220 A  
ENDBRANCH  13  16
ENDBRANCH  11  13
ENDBRANCH  10  11
ENDBRANCH   4  10
TORSDOF 4
ENDMDL
MODEL      189
REMARK 921   NORMALIZED FREE ENERGY PREDICTED BY IDOCK:   -3.68 KCAL/MOL
REMARK 922        TOTAL FREE ENERGY PREDICTED BY IDOCK:   -5.10 KCAL/MOL
REMARK 923 INTER-LIGAND FREE ENERGY PREDICTED BY IDOCK:   -4.28 KCAL/MOL
REMARK 924 INTRA-LIGAND FREE ENERGY PREDICTED BY IDOCK:   -0.82 KCAL/MOL
REMARK 927      BINDING AFFINITY PREDICTED BY RF-SCORE:    0.00 PKD
ROOT
HETATM    1  C   UNL     1      -7.416   7.062  71.207  1.00  0.00    -0.081 C  
HETATM    2  C   UNL     1      -8.765   7.780  71.282  1.00  0.00    -0.140 C  
HETATM    3  C   UNL     1      -9.352   8.035  69.889  1.00  0.00    -0.156 C  
HETATM    4  C   UNL     1      -9.973   6.779  69.266  1.00  0.00    -0.160 C  
HETATM    5  C   UNL     1     -11.066   6.223  70.188  1.00  0.00    -0.443 C  
HETATM    6  C   UNL     1     -11.739   5.546  72.517  1.00  0.00    -0.222 C  
HETATM    7  C   UNL     1     -10.542   5.871  71.599  1.00  0.00    -0.295 C  
HETATM    8  C   UNL     1      -9.660   4.608  71.555  1.00  0.00    -0.225 C  
HETATM    9  C   UNL     1      -9.783   7.080  72.200  1.00  0.00    -0.161 C  
ENDROOT
BRANCH   4  10
HETATM   10  O   UNL     1     -10.572   7.102  67.995  1.00  0.00    -0.200 OA 
BRANCH  10  11
HETATM   11  C   UNL     1     -10.039   6.449  66.920  1.00  0.00    -0.187 C  
HETATM   12  O   UNL     1      -9.200   6.915  66.153  1.00  0.00    -0.152 OA 
BRANCH  11  13
HETATM   13  C   UNL     1     -10.624   5.041  66.764  1.00  0.00    -0.157 C  
HETATM   14  O   UNL     1     -11.345   4.922  65.533  1.00  0.00    -0.906 OA 
HETATM   15  H   UNL     1     -11.707   4.050  65.436  1.00  0.00     0.000 HD 
BRANCH  13  16
HETATM   16  C   UNL     1      -9.564   3.961  66.782  1.00  0.00    -0.222 A  
HETATM   17  C   UNL     1      -9.133   3.419  68.003  1.00  0.00    -0.208 A  
HETATM   18  C   UNL     1      -8.186   2.394  68.030  1.00  0.00    -0.075 A  
HETATM   19  C   UNL     1      -7.661   1.897  66.839  1.00  0.00    -0.065 A  
HETATM   20  C   UNL     1      -8.076   2.426  65.620  1.00  0.00    -0.084 A  
HETATM   21  C   UNL     1      -9.022   3.453  65.590  1.00  0.00    -0.142 A  
ENDBRANCH  13  16
ENDBRANCH  11  13
ENDBRANCH  10  11
ENDBRANCH   4  10
TORSDOF 4
ENDMDL
MODEL      190
REMARK 921   NORMALIZED FREE ENERGY PREDICTED BY IDOCK:   -3.68 KCAL/MOL
REMARK 922        TOTAL FREE ENERGY PREDICTED BY IDOCK:   -5.09 KCAL/MOL
REMARK 923 INTER-LIGAND FREE ENERGY PREDICTED BY IDOCK:   -4.41 KCAL/MOL
REMARK 924 INTRA-LIGAND FREE ENERGY PREDICTED BY IDOCK:   -0.68 KCAL/MOL
REMARK 927      BINDING AFFINITY PREDICTED BY RF-SCORE:    0.00 PKD
ROOT
HETATM    1  C   UNL     1      -6.605   9.240  64.697  1.00  0.00    -0.077 C  
HETATM    2  C   UNL     1      -8.052   8.844  64.392  1.00  0.00    -0.153 C  
HETATM    3  C   UNL     1      -8.357   7.411  64.845  1.00  0.00    -0.029 C  
HETATM    4  C   UNL     1      -8.568   7.299  66.360  1.00  0.00    -0.138 C  
HETATM    5  C   UNL     1      -9.707   8.228  66.800  1.00  0.00    -0.307 C  
HETATM    6  C   UNL     1     -10.730  10.526  66.707  1.00  0.00    -0.252 C  
HETATM    7  C   UNL     1      -9.447   9.709  66.443  1.00  0.00    -0.244 C  
HETATM    8  C   UNL     1      -8.348  10.304  67.345  1.00  0.00    -0.118 C  
HETATM    9  C   UNL     1      -9.090   9.839  64.941  1.00  0.00    -0.278 C  
ENDROOT
BRANCH   4  10
HETATM   10  O   UNL     1      -8.924   5.946  66.709  1.00  0.00    -0.116 OA 
BRANCH  10  11
HETATM   11  C   UNL     1      -8.581   5.566  67.976  1.00  0.00    -0.100 C  
HETATM   12  O   UNL     1      -7.556   5.901  68.563  1.00  0.00    -0.087 OA 
BRANCH  11  13
HETATM   13  C   UNL     1      -9.635   4.641  68.595  1.00  0.00    -0.162 C  
HETATM   14  O   UNL     1      -9.048   3.403  69.008  1.00  0.00    -0.115 OA 
HETATM   15  H   UNL     1      -9.701   2.829  69.391  1.00  0.00     0.000 HD 
BRANCH  13  16
HETATM   16  C   UNL     1     -10.313   5.252  69.803  1.00  0.00    -0.369 A  
HETATM   17  C   UNL     1     -11.278   6.258  69.634  1.00  0.00    -0.506 A  
HETATM   18  C   UNL     1     -11.939   6.800  70.737  1.00  0.00    -0.433 A  
HETATM   19  C   UNL     1     -11.647   6.343  72.020  1.00  0.00    -0.368 A  
HETATM   20  C   UNL     1     -10.691   5.347  72.205  1.00  0.00    -0.286 A  
HETATM   21  C   UNL     1     -10.026   4.805  71.103  1.00  0.00    -0.273 A  
ENDBRANCH  13  16
ENDBRANCH  11  13
ENDBRANCH  10  11
ENDBRANCH   4  10
TORSDOF 4
ENDMDL
MODEL      191
REMARK 921   NORMALIZED FREE ENERGY PREDICTED BY IDOCK:   -3.68 KCAL/MOL
REMARK 922        TOTAL FREE ENERGY PREDICTED BY IDOCK:   -5.09 KCAL/MOL
REMARK 923 INTER-LIGAND FREE ENERGY PREDICTED BY IDOCK:   -4.52 KCAL/MOL
REMARK 924 INTRA-LIGAND FREE ENERGY PREDICTED BY IDOCK:   -0.58 KCAL/MOL
REMARK 927      BINDING AFFINITY PREDICTED BY RF-SCORE:    0.00 PKD
ROOT
HETATM    1  C   UNL     1      -9.217   7.732  73.463  1.00  0.00    -0.350 C  
HETATM    2  C   UNL     1     -10.088   8.549  72.505  1.00  0.00    -0.320 C  
HETATM    3  C   UNL     1      -9.560   8.490  71.067  1.00  0.00    -0.241 C  
HETATM    4  C   UNL     1      -9.898   7.169  70.364  1.00  0.00    -0.176 C  
HETATM    5  C   UNL     1     -11.416   6.951  70.362  1.00  0.00    -0.387 C  
HETATM    6  C   UNL     1     -13.563   6.938  71.677  1.00  0.00    -0.275 C  
HETATM    7  C   UNL     1     -12.023   6.926  71.783  1.00  0.00    -0.372 C  
HETATM    8  C   UNL     1     -11.638   5.628  72.519  1.00  0.00    -0.303 C  
HETATM    9  C   UNL     1     -11.581   8.185  72.571  1.00  0.00    -0.468 C  
ENDROOT
BRANCH   4  10
HETATM   10  O   UNL     1      -9.443   7.208  68.996  1.00  0.00    -0.144 OA 
BRANCH  10  11
HETATM   11  C   UNL     1      -8.355   6.427  68.725  1.00  0.00    -0.121 C  
HETATM   12  O   UNL     1      -7.221   6.616  69.158  1.00  0.00    -0.085 OA 
BRANCH  11  13
HETATM   13  C   UNL     1      -8.710   5.266  67.790  1.00  0.00    -0.103 C  
HETATM   14  O   UNL     1      -7.683   5.066  66.812  1.00  0.00    -0.091 OA 
HETATM   15  H   UNL     1      -7.902   4.347  66.232  1.00  0.00     0.000 HD 
BRANCH  13  16
HETATM   16  C   UNL     1      -8.901   3.957  68.527  1.00  0.00    -0.148 A  
HETATM   17  C   UNL     1      -8.704   3.897  69.915  1.00  0.00    -0.123 A  
HETATM   18  C   UNL     1      -8.918   2.707  70.612  1.00  0.00    -0.163 A  
HETATM   19  C   UNL     1      -9.334   1.564  69.931  1.00  0.00    -0.162 A  
HETATM   20  C   UNL     1      -9.532   1.608  68.554  1.00  0.00    -0.234 A  
HETATM   21  C   UNL     1      -9.317   2.797  67.854  1.00  0.00    -0.251 A  
ENDBRANCH  13  16
ENDBRANCH  11  13
ENDBRANCH  10  11
ENDBRANCH   4  10
TORSDOF 4
ENDMDL
MODEL      192
REMARK 921   NORMALIZED FREE ENERGY PREDICTED BY IDOCK:   -3.68 KCAL/MOL
REMARK 922        TOTAL FREE ENERGY PREDICTED BY IDOCK:   -5.09 KCAL/MOL
REMARK 923 INTER-LIGAND FREE ENERGY PREDICTED BY IDOCK:   -4.94 KCAL/MOL
REMARK 924 INTRA-LIGAND FREE ENERGY PREDICTED BY IDOCK:   -0.16 KCAL/MOL
REMARK 927      BINDING AFFINITY PREDICTED BY RF-SCORE:    0.00 PKD
ROOT
HETATM    1  C   UNL     1      -7.601  20.362  65.194  1.00  0.00     0.299 C  
HETATM    2  C   UNL     1      -8.215  20.290  66.593  1.00  0.00    -0.294 C  
HETATM    3  C   UNL     1      -9.502  19.458  66.607  1.00  0.00    -0.416 C  
HETATM    4  C   UNL     1      -9.234  17.948  66.568  1.00  0.00    -0.273 C  
HETATM    5  C   UNL     1      -8.349  17.543  67.754  1.00  0.00    -0.220 C  
HETATM    6  C   UNL     1      -6.279  17.997  69.113  1.00  0.00    -0.237 C  
HETATM    7  C   UNL     1      -6.995  18.288  67.777  1.00  0.00    -0.212 C  
HETATM    8  C   UNL     1      -6.070  17.774  66.657  1.00  0.00    -0.207 C  
HETATM    9  C   UNL     1      -7.228  19.816  67.674  1.00  0.00    -0.295 C  
ENDROOT
BRANCH   4  10
HETATM   10  O   UNL     1     -10.477  17.223  66.661  1.00  0.00    -0.313 OA 
BRANCH  10  11
HETATM   11  C   UNL     1     -10.657  16.259  65.710  1.00  0.00    -0.324 C  
HETATM   12  O   UNL     1     -10.815  16.467  64.510  1.00  0.00    -0.802 OA 
BRANCH  11  13
HETATM   13  C   UNL     1     -10.653  14.853  66.320  1.00  0.00    -0.308 C  
HETATM   14  O   UNL     1      -9.349  14.266  66.240  1.00  0.00    -0.395 OA 
HETATM   15  H   UNL     1      -9.346  13.395  66.618  1.00  0.00     0.000 HD 
BRANCH  13  16
HETATM   16  C   UNL     1     -11.070  14.845  67.775  1.00  0.00    -0.313 A  
HETATM   17  C   UNL     1     -10.142  15.176  68.775  1.00  0.00    -0.226 A  
HETATM   18  C   UNL     1     -10.526  15.213  70.116  1.00  0.00    -0.192 A  
HETATM   19  C   UNL     1     -11.841  14.922  70.475  1.00  0.00    -0.358 A  
HETATM   20  C   UNL     1     -12.773  14.590  69.495  1.00  0.00     0.120 A  
HETATM   21  C   UNL     1     -12.391  14.551  68.152  1.00  0.00     0.030 A  
ENDBRANCH  13  16
ENDBRANCH  11  13
ENDBRANCH  10  11
ENDBRANCH   4  10
TORSDOF 4
ENDMDL
MODEL      193
REMARK 921   NORMALIZED FREE ENERGY PREDICTED BY IDOCK:   -3.68 KCAL/MOL
REMARK 922        TOTAL FREE ENERGY PREDICTED BY IDOCK:   -5.09 KCAL/MOL
REMARK 923 INTER-LIGAND FREE ENERGY PREDICTED BY IDOCK:   -5.91 KCAL/MOL
REMARK 924 INTRA-LIGAND FREE ENERGY PREDICTED BY IDOCK:    0.82 KCAL/MOL
REMARK 927      BINDING AFFINITY PREDICTED BY RF-SCORE:    0.00 PKD
ROOT
HETATM    1  C   UNL     1      -8.844  17.260  66.824  1.00  0.00    -0.269 C  
HETATM    2  C   UNL     1     -10.341  16.975  66.688  1.00  0.00    -0.299 C  
HETATM    3  C   UNL     1     -10.628  15.953  65.581  1.00  0.00    -0.393 C  
HETATM    4  C   UNL     1     -10.318  14.513  66.008  1.00  0.00    -0.309 C  
HETATM    5  C   UNL     1     -11.128  14.152  67.259  1.00  0.00    -0.315 C  
HETATM    6  C   UNL     1     -11.862  14.806  69.577  1.00  0.00    -0.366 C  
HETATM    7  C   UNL     1     -10.845  15.094  68.452  1.00  0.00    -0.255 C  
HETATM    8  C   UNL     1      -9.446  14.828  69.039  1.00  0.00    -0.167 C  
HETATM    9  C   UNL     1     -11.013  16.570  68.012  1.00  0.00    -0.320 C  
ENDROOT
BRANCH   4  10
HETATM   10  O   UNL     1     -10.679  13.597  64.954  1.00  0.00    -0.343 OA 
BRANCH  10  11
HETATM   11  C   UNL     1     -10.868  12.303  65.350  1.00  0.00    -0.286 C  
HETATM   12  O   UNL     1     -10.998  11.930  66.513  1.00  0.00    -0.266 OA 
BRANCH  11  13
HETATM   13  C   UNL     1     -10.889  11.343  64.156  1.00  0.00    -0.365 C  
HETATM   14  O   UNL     1     -11.345  12.008  62.973  1.00  0.00    -0.671 OA 
HETATM   15  H   UNL     1     -11.358  11.413  62.234  1.00  0.00     0.000 HD 
BRANCH  13  16
HETATM   16  C   UNL     1      -9.527  10.754  63.855  1.00  0.00    -0.312 A  
HETATM   17  C   UNL     1      -8.974   9.788  64.710  1.00  0.00    -0.266 A  
HETATM   18  C   UNL     1      -7.738   9.208  64.421  1.00  0.00    -0.119 A  
HETATM   19  C   UNL     1      -7.042   9.583  63.273  1.00  0.00    -0.103 A  
HETATM   20  C   UNL     1      -7.577  10.541  62.416  1.00  0.00    -0.173 A  
HETATM   21  C   UNL     1      -8.812  11.124  62.704  1.00  0.00    -0.315 A  
ENDBRANCH  13  16
ENDBRANCH  11  13
ENDBRANCH  10  11
ENDBRANCH   4  10
TORSDOF 4
ENDMDL
MODEL      194
REMARK 921   NORMALIZED FREE ENERGY PREDICTED BY IDOCK:   -3.68 KCAL/MOL
REMARK 922        TOTAL FREE ENERGY PREDICTED BY IDOCK:   -5.09 KCAL/MOL
REMARK 923 INTER-LIGAND FREE ENERGY PREDICTED BY IDOCK:   -4.57 KCAL/MOL
REMARK 924 INTRA-LIGAND FREE ENERGY PREDICTED BY IDOCK:   -0.52 KCAL/MOL
REMARK 927      BINDING AFFINITY PREDICTED BY RF-SCORE:    0.00 PKD
ROOT
HETATM    1  C   UNL     1      -6.376  10.335  65.481  1.00  0.00    -0.117 C  
HETATM    2  C   UNL     1      -6.425   9.151  66.449  1.00  0.00    -0.066 C  
HETATM    3  C   UNL     1      -7.578   9.282  67.450  1.00  0.00    -0.088 C  
HETATM    4  C   UNL     1      -8.939   8.931  66.837  1.00  0.00    -0.128 C  
HETATM    5  C   UNL     1      -8.908   7.504  66.276  1.00  0.00    -0.184 C  
HETATM    6  C   UNL     1      -7.702   5.799  64.870  1.00  0.00    -0.095 C  
HETATM    7  C   UNL     1      -7.814   7.302  65.203  1.00  0.00    -0.123 C  
HETATM    8  C   UNL     1      -8.193   8.020  63.894  1.00  0.00    -0.044 C  
HETATM    9  C   UNL     1      -6.445   7.783  65.746  1.00  0.00    -0.042 C  
ENDROOT
BRANCH   4  10
HETATM   10  O   UNL     1      -9.968   9.000  67.845  1.00  0.00    -0.161 OA 
BRANCH  10  11
HETATM   11  C   UNL     1     -10.564  10.222  67.982  1.00  0.00    -0.231 C  
HETATM   12  O   UNL     1     -11.202  10.802  67.107  1.00  0.00    -0.314 OA 
BRANCH  11  13
HETATM   13  C   UNL     1     -10.333  10.812  69.378  1.00  0.00    -0.179 C  
HETATM   14  O   UNL     1     -10.982  12.081  69.509  1.00  0.00    -0.436 OA 
HETATM   15  H   UNL     1     -10.839  12.447  70.374  1.00  0.00     0.000 HD 
BRANCH  13  16
HETATM   16  C   UNL     1     -10.849   9.916  70.484  1.00  0.00    -0.391 A  
HETATM   17  C   UNL     1      -9.950   9.175  71.266  1.00  0.00    -0.373 A  
HETATM   18  C   UNL     1     -10.410   8.378  72.316  1.00  0.00    -0.403 A  
HETATM   19  C   UNL     1     -11.773   8.314  72.598  1.00  0.00    -0.406 A  
HETATM   20  C   UNL     1     -12.678   9.042  71.830  1.00  0.00    -0.450 A  
HETATM   21  C   UNL     1     -12.221   9.839  70.778  1.00  0.00    -0.342 A  
ENDBRANCH  13  16
ENDBRANCH  11  13
ENDBRANCH  10  11
ENDBRANCH   4  10
TORSDOF 4
ENDMDL
MODEL      195
REMARK 921   NORMALIZED FREE ENERGY PREDICTED BY IDOCK:   -3.68 KCAL/MOL
REMARK 922        TOTAL FREE ENERGY PREDICTED BY IDOCK:   -5.09 KCAL/MOL
REMARK 923 INTER-LIGAND FREE ENERGY PREDICTED BY IDOCK:   -5.42 KCAL/MOL
REMARK 924 INTRA-LIGAND FREE ENERGY PREDICTED BY IDOCK:    0.33 KCAL/MOL
REMARK 927      BINDING AFFINITY PREDICTED BY RF-SCORE:    0.00 PKD
ROOT
HETATM    1  C   UNL     1     -11.174   6.444  72.422  1.00  0.00    -0.313 C  
HETATM    2  C   UNL     1     -11.109   5.744  71.062  1.00  0.00    -0.264 C  
HETATM    3  C   UNL     1     -11.447   6.701  69.913  1.00  0.00    -0.414 C  
HETATM    4  C   UNL     1     -10.289   7.645  69.566  1.00  0.00    -0.217 C  
HETATM    5  C   UNL     1      -9.041   6.830  69.203  1.00  0.00    -0.138 C  
HETATM    6  C   UNL     1      -7.483   4.947  69.807  1.00  0.00    -0.056 C  
HETATM    7  C   UNL     1      -8.587   5.885  70.339  1.00  0.00    -0.135 C  
HETATM    8  C   UNL     1      -7.969   6.686  71.501  1.00  0.00    -0.103 C  
HETATM    9  C   UNL     1      -9.778   5.014  70.811  1.00  0.00    -0.263 C  
ENDROOT
BRANCH   4  10
HETATM   10  O   UNL     1     -10.642   8.464  68.432  1.00  0.00    -0.190 OA 
BRANCH  10  11
HETATM   11  C   UNL     1     -10.548   7.844  67.219  1.00  0.00    -0.295 C  
HETATM   12  O   UNL     1     -11.248   6.906  66.845  1.00  0.00    -0.353 OA 
BRANCH  11  13
HETATM   13  C   UNL     1      -9.438   8.453  66.356  1.00  0.00    -0.227 C  
HETATM   14  O   UNL     1      -9.047   7.551  65.315  1.00  0.00    -0.364 OA 
HETATM   15  H   UNL     1      -8.359   7.928  64.781  1.00  0.00     0.000 HD 
BRANCH  13  16
HETATM   16  C   UNL     1      -9.852   9.755  65.702  1.00  0.00    -0.371 A  
HETATM   17  C   UNL     1      -9.513  10.009  64.364  1.00  0.00    -0.349 A  
HETATM   18  C   UNL     1      -9.924  11.186  63.738  1.00  0.00    -0.401 A  
HETATM   19  C   UNL     1     -10.681  12.122  64.440  1.00  0.00    -0.366 A  
HETATM   20  C   UNL     1     -11.024  11.886  65.769  1.00  0.00    -0.359 A  
HETATM   21  C   UNL     1     -10.612  10.709  66.398  1.00  0.00    -0.240 A  
ENDBRANCH  13  16
ENDBRANCH  11  13
ENDBRANCH  10  11
ENDBRANCH   4  10
TORSDOF 4
ENDMDL
MODEL      196
REMARK 921   NORMALIZED FREE ENERGY PREDICTED BY IDOCK:   -3.67 KCAL/MOL
REMARK 922        TOTAL FREE ENERGY PREDICTED BY IDOCK:   -5.08 KCAL/MOL
REMARK 923 INTER-LIGAND FREE ENERGY PREDICTED BY IDOCK:   -4.63 KCAL/MOL
REMARK 924 INTRA-LIGAND FREE ENERGY PREDICTED BY IDOCK:   -0.45 KCAL/MOL
REMARK 927      BINDING AFFINITY PREDICTED BY RF-SCORE:    0.00 PKD
ROOT
HETATM    1  C   UNL     1     -11.456  12.481  64.358  1.00  0.00    -0.406 C  
HETATM    2  C   UNL     1     -12.041  12.625  65.765  1.00  0.00    -0.484 C  
HETATM    3  C   UNL     1     -11.360  11.682  66.764  1.00  0.00    -0.354 C  
HETATM    4  C   UNL     1      -9.980  12.183  67.207  1.00  0.00    -0.203 C  
HETATM    5  C   UNL     1     -10.105  13.581  67.827  1.00  0.00    -0.236 C  
HETATM    6  C   UNL     1     -11.022  15.917  67.631  1.00  0.00    -0.298 C  
HETATM    7  C   UNL     1     -10.721  14.616  66.858  1.00  0.00    -0.294 C  
HETATM    8  C   UNL     1      -9.722  14.982  65.744  1.00  0.00    -0.375 C  
HETATM    9  C   UNL     1     -12.053  14.075  66.281  1.00  0.00    -0.482 C  
ENDROOT
BRANCH   4  10
HETATM   10  O   UNL     1      -9.428  11.294  68.200  1.00  0.00    -0.170 OA 
BRANCH  10  11
HETATM   11  C   UNL     1      -8.298  10.628  67.817  1.00  0.00    -0.115 C  
HETATM   12  O   UNL     1      -8.056  10.241  66.677  1.00  0.00    -0.115 OA 
BRANCH  11  13
HETATM   13  C   UNL     1      -7.348  10.398  68.997  1.00  0.00    -0.097 C  
HETATM   14  O   UNL     1      -7.342  11.529  69.875  1.00  0.00    -0.314 OA 
HETATM   15  H   UNL     1      -6.754  11.387  70.606  1.00  0.00     0.000 HD 
BRANCH  13  16
HETATM   16  C   UNL     1      -7.718   9.182  69.819  1.00  0.00    -0.082 A  
HETATM   17  C   UNL     1      -7.586   9.210  71.216  1.00  0.00    -0.064 A  
HETATM   18  C   UNL     1      -7.963   8.110  71.987  1.00  0.00    -0.160 A  
HETATM   19  C   UNL     1      -8.478   6.970  71.373  1.00  0.00    -0.114 A  
HETATM   20  C   UNL     1      -8.613   6.926  69.988  1.00  0.00    -0.141 A  
HETATM   21  C   UNL     1      -8.235   8.024  69.214  1.00  0.00    -0.127 A  
ENDBRANCH  13  16
ENDBRANCH  11  13
ENDBRANCH  10  11
ENDBRANCH   4  10
TORSDOF 4
ENDMDL
MODEL      197
REMARK 921   NORMALIZED FREE ENERGY PREDICTED BY IDOCK:   -3.67 KCAL/MOL
REMARK 922        TOTAL FREE ENERGY PREDICTED BY IDOCK:   -5.08 KCAL/MOL
REMARK 923 INTER-LIGAND FREE ENERGY PREDICTED BY IDOCK:   -4.34 KCAL/MOL
REMARK 924 INTRA-LIGAND FREE ENERGY PREDICTED BY IDOCK:   -0.73 KCAL/MOL
REMARK 927      BINDING AFFINITY PREDICTED BY RF-SCORE:    0.00 PKD
ROOT
HETATM    1  C   UNL     1      -8.113   7.812  63.136  1.00  0.00    -0.078 C  
HETATM    2  C   UNL     1      -7.033   7.803  64.219  1.00  0.00    -0.068 C  
HETATM    3  C   UNL     1      -7.228   8.941  65.227  1.00  0.00    -0.088 C  
HETATM    4  C   UNL     1      -8.346   8.654  66.237  1.00  0.00    -0.122 C  
HETATM    5  C   UNL     1      -8.051   7.350  66.989  1.00  0.00    -0.113 C  
HETATM    6  C   UNL     1      -7.386   4.926  66.856  1.00  0.00    -0.085 C  
HETATM    7  C   UNL     1      -7.908   6.132  66.047  1.00  0.00    -0.106 C  
HETATM    8  C   UNL     1      -9.278   5.723  65.472  1.00  0.00     0.015 C  
HETATM    9  C   UNL     1      -6.885   6.445  64.927  1.00  0.00    -0.050 C  
ENDROOT
BRANCH   4  10
HETATM   10  O   UNL     1      -8.428   9.725  67.200  1.00  0.00    -0.124 OA 
BRANCH  10  11
HETATM   11  C   UNL     1      -9.675  10.256  67.371  1.00  0.00    -0.160 C  
HETATM   12  O   UNL     1     -10.671   9.628  67.721  1.00  0.00    -0.258 OA 
BRANCH  11  13
HETATM   13  C   UNL     1      -9.699  11.756  67.059  1.00  0.00    -0.185 C  
HETATM   14  O   UNL     1      -8.383  12.238  66.765  1.00  0.00    -0.295 OA 
HETATM   15  H   UNL     1      -8.398  13.167  66.572  1.00  0.00     0.000 HD 
BRANCH  13  16
HETATM   16  C   UNL     1     -10.586  12.095  65.880  1.00  0.00    -0.293 A  
HETATM   17  C   UNL     1     -11.570  13.087  66.002  1.00  0.00    -0.409 A  
HETATM   18  C   UNL     1     -12.366  13.437  64.910  1.00  0.00    -0.457 A  
HETATM   19  C   UNL     1     -12.186  12.802  63.683  1.00  0.00    -0.597 A  
HETATM   20  C   UNL     1     -11.214  11.814  63.546  1.00  0.00    -0.494 A  
HETATM   21  C   UNL     1     -10.418  11.461  64.638  1.00  0.00    -0.373 A  
ENDBRANCH  13  16
ENDBRANCH  11  13
ENDBRANCH  10  11
ENDBRANCH   4  10
TORSDOF 4
ENDMDL
MODEL      198
REMARK 921   NORMALIZED FREE ENERGY PREDICTED BY IDOCK:   -3.65 KCAL/MOL
REMARK 922        TOTAL FREE ENERGY PREDICTED BY IDOCK:   -5.06 KCAL/MOL
REMARK 923 INTER-LIGAND FREE ENERGY PREDICTED BY IDOCK:   -4.75 KCAL/MOL
REMARK 924 INTRA-LIGAND FREE ENERGY PREDICTED BY IDOCK:   -0.31 KCAL/MOL
REMARK 927      BINDING AFFINITY PREDICTED BY RF-SCORE:    0.00 PKD
ROOT
HETATM    1  C   UNL     1     -10.744  10.010  66.451  1.00  0.00    -0.063 C  
HETATM    2  C   UNL     1      -9.293  10.426  66.203  1.00  0.00    -0.210 C  
HETATM    3  C   UNL     1      -9.166  11.936  65.969  1.00  0.00    -0.176 C  
HETATM    4  C   UNL     1      -9.254  12.747  67.268  1.00  0.00    -0.203 C  
HETATM    5  C   UNL     1      -8.166  12.288  68.247  1.00  0.00    -0.167 C  
HETATM    6  C   UNL     1      -7.008  10.365  69.386  1.00  0.00    -0.091 C  
HETATM    7  C   UNL     1      -8.263  10.784  68.593  1.00  0.00    -0.139 C  
HETATM    8  C   UNL     1      -9.476  10.512  69.504  1.00  0.00    -0.106 C  
HETATM    9  C   UNL     1      -8.320   9.944  67.293  1.00  0.00    -0.121 C  
ENDROOT
BRANCH   4  10
HETATM   10  O   UNL     1      -9.052  14.148  66.990  1.00  0.00    -0.223 OA 
BRANCH  10  11
HETATM   11  C   UNL     1     -10.195  14.875  66.814  1.00  0.00    -0.259 C  
HETATM   12  O   UNL     1     -11.029  14.683  65.932  1.00  0.00    -0.316 OA 
BRANCH  11  13
HETATM   13  C   UNL     1     -10.323  15.991  67.856  1.00  0.00    -0.269 C  
HETATM   14  O   UNL     1      -9.565  15.682  69.031  1.00  0.00    -0.209 OA 
HETATM   15  H   UNL     1      -9.644  16.374  69.676  1.00  0.00     0.000 HD 
BRANCH  13  16
HETATM   16  C   UNL     1      -9.842  17.331  67.339  1.00  0.00    -0.272 A  
HETATM   17  C   UNL     1      -8.604  17.429  66.685  1.00  0.00    -0.283 A  
HETATM   18  C   UNL     1      -8.168  18.650  66.168  1.00  0.00    -0.187 A  
HETATM   19  C   UNL     1      -8.964  19.786  66.297  1.00  0.00    -0.431 A  
HETATM   20  C   UNL     1     -10.194  19.706  66.945  1.00  0.00    -0.560 A  
HETATM   21  C   UNL     1     -10.632  18.486  67.464  1.00  0.00    -0.461 A  
ENDBRANCH  13  16
ENDBRANCH  11  13
ENDBRANCH  10  11
ENDBRANCH   4  10
TORSDOF 4
ENDMDL
MODEL      199
REMARK 921   NORMALIZED FREE ENERGY PREDICTED BY IDOCK:   -3.65 KCAL/MOL
REMARK 922        TOTAL FREE ENERGY PREDICTED BY IDOCK:   -5.06 KCAL/MOL
REMARK 923 INTER-LIGAND FREE ENERGY PREDICTED BY IDOCK:   -4.50 KCAL/MOL
REMARK 924 INTRA-LIGAND FREE ENERGY PREDICTED BY IDOCK:   -0.56 KCAL/MOL
REMARK 927      BINDING AFFINITY PREDICTED BY RF-SCORE:    0.00 PKD
ROOT
HETATM    1  C   UNL     1      -9.383   4.478  65.643  1.00  0.00    -0.164 C  
HETATM    2  C   UNL     1      -8.105   4.811  66.416  1.00  0.00    -0.107 C  
HETATM    3  C   UNL     1      -7.672   6.266  66.201  1.00  0.00    -0.096 C  
HETATM    4  C   UNL     1      -8.510   7.261  67.013  1.00  0.00    -0.118 C  
HETATM    5  C   UNL     1      -8.427   6.918  68.506  1.00  0.00    -0.123 C  
HETATM    6  C   UNL     1      -8.578   5.149  70.291  1.00  0.00    -0.121 C  
HETATM    7  C   UNL     1      -8.913   5.485  68.823  1.00  0.00    -0.120 C  
HETATM    8  C   UNL     1     -10.444   5.385  68.682  1.00  0.00    -0.199 C  
HETATM    9  C   UNL     1      -8.184   4.465  67.913  1.00  0.00    -0.095 C  
ENDROOT
BRANCH   4  10
HETATM   10  O   UNL     1      -8.005   8.599  66.826  1.00  0.00    -0.093 OA 
BRANCH  10  11
HETATM   11  C   UNL     1      -8.799   9.592  67.325  1.00  0.00    -0.132 C  
HETATM   12  O   UNL     1      -8.447  10.437  68.144  1.00  0.00    -0.117 OA 
BRANCH  11  13
HETATM   13  C   UNL     1     -10.217   9.529  66.746  1.00  0.00    -0.243 C  
HETATM   14  O   UNL     1     -11.197   9.660  67.781  1.00  0.00    -0.504 OA 
HETATM   15  H   UNL     1     -12.075   9.621  67.423  1.00  0.00     0.000 HD 
BRANCH  13  16
HETATM   16  C   UNL     1     -10.481  10.614  65.724  1.00  0.00    -0.235 A  
HETATM   17  C   UNL     1     -11.248  11.737  66.073  1.00  0.00    -0.352 A  
HETATM   18  C   UNL     1     -11.464  12.763  65.152  1.00  0.00    -0.356 A  
HETATM   19  C   UNL     1     -10.915  12.682  63.875  1.00  0.00    -0.468 A  
HETATM   20  C   UNL     1     -10.153  11.574  63.513  1.00  0.00    -0.446 A  
HETATM   21  C   UNL     1      -9.937  10.544  64.431  1.00  0.00    -0.410 A  
ENDBRANCH  13  16
ENDBRANCH  11  13
ENDBRANCH  10  11
ENDBRANCH   4  10
TORSDOF 4
ENDMDL
MODEL      200
REMARK 921   NORMALIZED FREE ENERGY PREDICTED BY IDOCK:   -3.65 KCAL/MOL
REMARK 922        TOTAL FREE ENERGY PREDICTED BY IDOCK:   -5.06 KCAL/MOL
REMARK 923 INTER-LIGAND FREE ENERGY PREDICTED BY IDOCK:   -4.22 KCAL/MOL
REMARK 924 INTRA-LIGAND FREE ENERGY PREDICTED BY IDOCK:   -0.84 KCAL/MOL
REMARK 927      BINDING AFFINITY PREDICTED BY RF-SCORE:    0.00 PKD
ROOT
HETATM    1  C   UNL     1      -7.783  20.124  65.132  1.00  0.00     0.397 C  
HETATM    2  C   UNL     1      -8.380  19.942  66.529  1.00  0.00    -0.372 C  
HETATM    3  C   UNL     1      -9.780  19.319  66.472  1.00  0.00    -0.432 C  
HETATM    4  C   UNL     1      -9.748  17.809  66.209  1.00  0.00    -0.267 C  
HETATM    5  C   UNL     1      -8.919  17.106  67.292  1.00  0.00    -0.228 C  
HETATM    6  C   UNL     1      -6.784  17.041  68.625  1.00  0.00    -0.182 C  
HETATM    7  C   UNL     1      -7.466  17.628  67.371  1.00  0.00    -0.209 C  
HETATM    8  C   UNL     1      -6.648  17.150  66.155  1.00  0.00    -0.091 C  
HETATM    9  C   UNL     1      -7.462  19.172  67.494  1.00  0.00    -0.255 C  
ENDROOT
BRANCH   4  10
HETATM   10  O   UNL     1     -11.087  17.273  66.244  1.00  0.00     0.132 OA 
BRANCH  10  11
HETATM   11  C   UNL     1     -11.422  16.483  65.181  1.00  0.00     0.293 C  
HETATM   12  O   UNL     1     -11.265  16.780  63.999  1.00  0.00    -1.089 OA 
BRANCH  11  13
HETATM   13  C   UNL     1     -12.042  15.157  65.634  1.00  0.00     0.235 C  
HETATM   14  O   UNL     1     -12.442  14.369  64.507  1.00  0.00    -0.608 OA 
HETATM   15  H   UNL     1     -12.827  13.548  64.788  1.00  0.00     0.000 HD 
BRANCH  13  16
HETATM   16  C   UNL     1     -11.092  14.320  66.464  1.00  0.00    -0.323 A  
HETATM   17  C   UNL     1     -10.158  13.483  65.833  1.00  0.00    -0.311 A  
HETATM   18  C   UNL     1      -9.249  12.738  66.587  1.00  0.00    -0.212 A  
HETATM   19  C   UNL     1      -9.261  12.821  67.978  1.00  0.00    -0.208 A  
HETATM   20  C   UNL     1     -10.183  13.645  68.618  1.00  0.00    -0.199 A  
HETATM   21  C   UNL     1     -11.095  14.390  67.867  1.00  0.00    -0.288 A  
ENDBRANCH  13  16
ENDBRANCH  11  13
ENDBRANCH  10  11
ENDBRANCH   4  10
TORSDOF 4
ENDMDL
MODEL      201
REMARK 921   NORMALIZED FREE ENERGY PREDICTED BY IDOCK:   -3.64 KCAL/MOL
REMARK 922        TOTAL FREE ENERGY PREDICTED BY IDOCK:   -5.04 KCAL/MOL
REMARK 923 INTER-LIGAND FREE ENERGY PREDICTED BY IDOCK:   -4.53 KCAL/MOL
REMARK 924 INTRA-LIGAND FREE ENERGY PREDICTED BY IDOCK:   -0.52 KCAL/MOL
REMARK 927      BINDING AFFINITY PREDICTED BY RF-SCORE:    0.00 PKD
ROOT
HETATM    1  C   UNL     1      -8.796  10.791  66.091  1.00  0.00    -0.187 C  
HETATM    2  C   UNL     1     -10.326  10.838  66.097  1.00  0.00    -0.300 C  
HETATM    3  C   UNL     1     -10.917   9.999  67.236  1.00  0.00    -0.225 C  
HETATM    4  C   UNL     1     -10.817  10.695  68.599  1.00  0.00    -0.227 C  
HETATM    5  C   UNL     1     -11.524  12.055  68.545  1.00  0.00    -0.345 C  
HETATM    6  C   UNL     1     -11.852  14.232  67.325  1.00  0.00    -0.444 C  
HETATM    7  C   UNL     1     -10.941  12.995  67.465  1.00  0.00    -0.282 C  
HETATM    8  C   UNL     1      -9.551  13.511  67.883  1.00  0.00    -0.218 C  
HETATM    9  C   UNL     1     -10.896  12.267  66.098  1.00  0.00    -0.314 C  
ENDROOT
BRANCH   4  10
HETATM   10  O   UNL     1     -11.456   9.891  69.612  1.00  0.00    -0.205 OA 
BRANCH  10  11
HETATM   11  C   UNL     1     -10.727   8.822  70.048  1.00  0.00    -0.228 C  
HETATM   12  O   UNL     1     -10.619   7.749  69.459  1.00  0.00    -0.227 OA 
BRANCH  11  13
HETATM   13  C   UNL     1     -10.050   9.108  71.393  1.00  0.00    -0.322 C  
HETATM   14  O   UNL     1     -10.494   8.187  72.394  1.00  0.00    -0.268 OA 
HETATM   15  H   UNL     1     -10.075   8.364  73.227  1.00  0.00     0.000 HD 
BRANCH  13  16
HETATM   16  C   UNL     1      -8.540   9.014  71.320  1.00  0.00    -0.221 A  
HETATM   17  C   UNL     1      -7.833   9.777  70.378  1.00  0.00    -0.144 A  
HETATM   18  C   UNL     1      -6.438   9.730  70.330  1.00  0.00    -0.093 A  
HETATM   19  C   UNL     1      -5.735   8.923  71.221  1.00  0.00    -0.046 A  
HETATM   20  C   UNL     1      -6.423   8.158  72.160  1.00  0.00    -0.063 A  
HETATM   21  C   UNL     1      -7.818   8.202  72.210  1.00  0.00    -0.167 A  
ENDBRANCH  13  16
ENDBRANCH  11  13
ENDBRANCH  10  11
ENDBRANCH   4  10
TORSDOF 4
ENDMDL
MODEL      202
REMARK 921   NORMALIZED FREE ENERGY PREDICTED BY IDOCK:   -3.64 KCAL/MOL
REMARK 922        TOTAL FREE ENERGY PREDICTED BY IDOCK:   -5.04 KCAL/MOL
REMARK 923 INTER-LIGAND FREE ENERGY PREDICTED BY IDOCK:   -4.20 KCAL/MOL
REMARK 924 INTRA-LIGAND FREE ENERGY PREDICTED BY IDOCK:   -0.85 KCAL/MOL
REMARK 927      BINDING AFFINITY PREDICTED BY RF-SCORE:    0.00 PKD
ROOT
HETATM    1  C   UNL     1     -11.873   9.637  71.413  1.00  0.00    -0.484 C  
HETATM    2  C   UNL     1     -12.204   8.248  71.963  1.00  0.00    -0.398 C  
HETATM    3  C   UNL     1     -12.304   7.203  70.846  1.00  0.00    -0.335 C  
HETATM    4  C   UNL     1     -10.932   6.752  70.330  1.00  0.00    -0.283 C  
HETATM    5  C   UNL     1     -10.098   6.187  71.487  1.00  0.00    -0.227 C  
HETATM    6  C   UNL     1      -9.248   6.485  73.837  1.00  0.00    -0.172 C  
HETATM    7  C   UNL     1      -9.887   7.204  72.631  1.00  0.00    -0.197 C  
HETATM    8  C   UNL     1      -8.906   8.312  72.202  1.00  0.00    -0.265 C  
HETATM    9  C   UNL     1     -11.251   7.787  73.080  1.00  0.00    -0.380 C  
ENDROOT
BRANCH   4  10
HETATM   10  O   UNL     1     -11.094   5.717  69.339  1.00  0.00    -0.294 OA 
BRANCH  10  11
HETATM   11  C   UNL     1     -10.354   5.883  68.203  1.00  0.00    -0.210 C  
HETATM   12  O   UNL     1     -10.125   6.959  67.656  1.00  0.00    -0.142 OA 
BRANCH  11  13
HETATM   13  C   UNL     1      -9.837   4.545  67.663  1.00  0.00    -0.127 C  
HETATM   14  O   UNL     1      -9.108   4.734  66.445  1.00  0.00    -0.114 OA 
HETATM   15  H   UNL     1      -8.787   3.905  66.110  1.00  0.00     0.000 HD 
BRANCH  13  16
HETATM   16  C   UNL     1      -8.924   3.833  68.638  1.00  0.00    -0.176 A  
HETATM   17  C   UNL     1      -7.649   4.352  68.914  1.00  0.00    -0.059 A  
HETATM   18  C   UNL     1      -6.814   3.728  69.843  1.00  0.00    -0.034 A  
HETATM   19  C   UNL     1      -7.243   2.581  70.508  1.00  0.00    -0.033 A  
HETATM   20  C   UNL     1      -8.504   2.054  70.243  1.00  0.00    -0.080 A  
HETATM   21  C   UNL     1      -9.341   2.675  69.314  1.00  0.00    -0.188 A  
ENDBRANCH  13  16
ENDBRANCH  11  13
ENDBRANCH  10  11
ENDBRANCH   4  10
TORSDOF 4
ENDMDL
MODEL      203
REMARK 921   NORMALIZED FREE ENERGY PREDICTED BY IDOCK:   -3.64 KCAL/MOL
REMARK 922        TOTAL FREE ENERGY PREDICTED BY IDOCK:   -5.04 KCAL/MOL
REMARK 923 INTER-LIGAND FREE ENERGY PREDICTED BY IDOCK:   -4.64 KCAL/MOL
REMARK 924 INTRA-LIGAND FREE ENERGY PREDICTED BY IDOCK:   -0.41 KCAL/MOL
REMARK 927      BINDING AFFINITY PREDICTED BY RF-SCORE:    0.00 PKD
ROOT
HETATM    1  C   UNL     1      -5.806   9.068  69.418  1.00  0.00    -0.034 C  
HETATM    2  C   UNL     1      -6.810   9.947  70.167  1.00  0.00    -0.125 C  
HETATM    3  C   UNL     1      -7.683  10.760  69.205  1.00  0.00    -0.138 C  
HETATM    4  C   UNL     1      -8.790   9.922  68.555  1.00  0.00    -0.122 C  
HETATM    5  C   UNL     1      -9.674   9.292  69.639  1.00  0.00    -0.192 C  
HETATM    6  C   UNL     1      -9.794   7.997  71.795  1.00  0.00    -0.240 C  
HETATM    7  C   UNL     1      -8.880   8.394  70.616  1.00  0.00    -0.161 C  
HETATM    8  C   UNL     1      -8.449   7.085  69.927  1.00  0.00    -0.140 C  
HETATM    9  C   UNL     1      -7.666   9.172  71.183  1.00  0.00    -0.116 C  
ENDROOT
BRANCH   4  10
HETATM   10  O   UNL     1      -9.620  10.759  67.723  1.00  0.00    -0.159 OA 
BRANCH  10  11
HETATM   11  C   UNL     1      -9.578  10.472  66.388  1.00  0.00    -0.177 C  
HETATM   12  O   UNL     1      -9.808   9.371  65.892  1.00  0.00    -0.281 OA 
BRANCH  11  13
HETATM   13  C   UNL     1      -9.193  11.699  65.556  1.00  0.00    -0.099 C  
HETATM   14  O   UNL     1      -8.724  11.311  64.261  1.00  0.00    -0.377 OA 
HETATM   15  H   UNL     1      -8.484  12.071  63.745  1.00  0.00     0.000 HD 
BRANCH  13  16
HETATM   16  C   UNL     1     -10.347  12.658  65.358  1.00  0.00    -0.311 A  
HETATM   17  C   UNL     1     -10.097  14.010  65.074  1.00  0.00    -0.323 A  
HETATM   18  C   UNL     1     -11.152  14.895  64.848  1.00  0.00    -0.424 A  
HETATM   19  C   UNL     1     -12.468  14.441  64.900  1.00  0.00    -0.368 A  
HETATM   20  C   UNL     1     -12.733  13.103  65.183  1.00  0.00    -0.468 A  
HETATM   21  C   UNL     1     -11.679  12.216  65.411  1.00  0.00    -0.379 A  
ENDBRANCH  13  16
ENDBRANCH  11  13
ENDBRANCH  10  11
ENDBRANCH   4  10
TORSDOF 4
ENDMDL
MODEL      204
REMARK 921   NORMALIZED FREE ENERGY PREDICTED BY IDOCK:   -3.63 KCAL/MOL
REMARK 922        TOTAL FREE ENERGY PREDICTED BY IDOCK:   -5.03 KCAL/MOL
REMARK 923 INTER-LIGAND FREE ENERGY PREDICTED BY IDOCK:   -4.58 KCAL/MOL
REMARK 924 INTRA-LIGAND FREE ENERGY PREDICTED BY IDOCK:   -0.46 KCAL/MOL
REMARK 927      BINDING AFFINITY PREDICTED BY RF-SCORE:    0.00 PKD
ROOT
HETATM    1  C   UNL     1      -7.165   6.432  70.502  1.00  0.00    -0.074 C  
HETATM    2  C   UNL     1      -7.842   7.157  71.667  1.00  0.00    -0.097 C  
HETATM    3  C   UNL     1      -8.564   8.428  71.203  1.00  0.00    -0.187 C  
HETATM    4  C   UNL     1      -9.901   8.134  70.513  1.00  0.00    -0.186 C  
HETATM    5  C   UNL     1     -10.815   7.343  71.458  1.00  0.00    -0.247 C  
HETATM    6  C   UNL     1     -11.065   5.398  73.037  1.00  0.00    -0.368 C  
HETATM    7  C   UNL     1     -10.190   6.007  71.921  1.00  0.00    -0.237 C  
HETATM    8  C   UNL     1     -10.169   4.986  70.767  1.00  0.00    -0.299 C  
HETATM    9  C   UNL     1      -8.773   6.255  72.495  1.00  0.00    -0.120 C  
ENDROOT
BRANCH   4  10
HETATM   10  O   UNL     1     -10.563   9.369  70.171  1.00  0.00    -0.209 OA 
BRANCH  10  11
HETATM   11  C   UNL     1     -10.749   9.575  68.834  1.00  0.00    -0.195 C  
HETATM   12  O   UNL     1     -10.186   8.954  67.935  1.00  0.00    -0.198 OA 
BRANCH  11  13
HETATM   13  C   UNL     1     -11.754  10.701  68.568  1.00  0.00    -0.127 C  
HETATM   14  O   UNL     1     -12.378  11.125  69.785  1.00  0.00    -0.303 OA 
HETATM   15  H   UNL     1     -13.001  11.823  69.620  1.00  0.00     0.000 HD 
BRANCH  13  16
HETATM   16  C   UNL     1     -11.115  11.918  67.933  1.00  0.00    -0.297 A  
HETATM   17  C   UNL     1     -11.756  12.575  66.871  1.00  0.00    -0.447 A  
HETATM   18  C   UNL     1     -11.197  13.721  66.304  1.00  0.00    -0.310 A  
HETATM   19  C   UNL     1      -9.994  14.227  66.793  1.00  0.00    -0.266 A  
HETATM   20  C   UNL     1      -9.345  13.585  67.844  1.00  0.00    -0.215 A  
HETATM   21  C   UNL     1      -9.901  12.436  68.412  1.00  0.00    -0.198 A  
ENDBRANCH  13  16
ENDBRANCH  11  13
ENDBRANCH  10  11
ENDBRANCH   4  10
TORSDOF 4
ENDMDL
MODEL      205
REMARK 921   NORMALIZED FREE ENERGY PREDICTED BY IDOCK:   -3.60 KCAL/MOL
REMARK 922        TOTAL FREE ENERGY PREDICTED BY IDOCK:   -5.00 KCAL/MOL
REMARK 923 INTER-LIGAND FREE ENERGY PREDICTED BY IDOCK:   -4.43 KCAL/MOL
REMARK 924 INTRA-LIGAND FREE ENERGY PREDICTED BY IDOCK:   -0.56 KCAL/MOL
REMARK 927      BINDING AFFINITY PREDICTED BY RF-SCORE:    0.00 PKD
ROOT
HETATM    1  C   UNL     1     -12.686   6.730  71.085  1.00  0.00    -0.254 C  
HETATM    2  C   UNL     1     -11.422   6.980  70.260  1.00  0.00    -0.333 C  
HETATM    3  C   UNL     1     -11.341   8.429  69.769  1.00  0.00     0.134 C  
HETATM    4  C   UNL     1     -10.904   9.405  70.869  1.00  0.00    -0.322 C  
HETATM    5  C   UNL     1      -9.544   8.981  71.436  1.00  0.00    -0.356 C  
HETATM    6  C   UNL     1      -8.109   7.125  72.349  1.00  0.00    -0.108 C  
HETATM    7  C   UNL     1      -9.556   7.549  72.019  1.00  0.00    -0.189 C  
HETATM    8  C   UNL     1     -10.344   7.505  73.342  1.00  0.00    -0.405 C  
HETATM    9  C   UNL     1     -10.127   6.556  70.976  1.00  0.00    -0.208 C  
ENDROOT
BRANCH   4  10
HETATM   10  O   UNL     1     -10.774  10.735  70.325  1.00  0.00    -0.137 OA 
BRANCH  10  11
HETATM   11  C   UNL     1     -11.085  10.852  69.000  1.00  0.00    -0.246 C  
HETATM   12  O   UNL     1     -12.217  10.784  68.528  1.00  0.00    -0.470 OA 
BRANCH  11  13
HETATM   13  C   UNL     1      -9.834  11.071  68.142  1.00  0.00    -0.176 C  
HETATM   14  O   UNL     1      -8.816  11.749  68.887  1.00  0.00    -0.368 OA 
HETATM   15  H   UNL     1      -8.041  11.886  68.355  1.00  0.00     0.000 HD 
BRANCH  13  16
HETATM   16  C   UNL     1      -9.241   9.776  67.630  1.00  0.00    -0.143 A  
HETATM   17  C   UNL     1      -8.101   9.233  68.245  1.00  0.00    -0.107 A  
HETATM   18  C   UNL     1      -7.570   8.018  67.808  1.00  0.00    -0.102 A  
HETATM   19  C   UNL     1      -8.171   7.331  66.756  1.00  0.00    -0.121 A  
HETATM   20  C   UNL     1      -9.300   7.857  66.135  1.00  0.00    -0.188 A  
HETATM   21  C   UNL     1      -9.833   9.073  66.568  1.00  0.00    -0.338 A  
ENDBRANCH  13  16
ENDBRANCH  11  13
ENDBRANCH  10  11
ENDBRANCH   4  10
TORSDOF 4
ENDMDL
MODEL      206
REMARK 921   NORMALIZED FREE ENERGY PREDICTED BY IDOCK:   -3.59 KCAL/MOL
REMARK 922        TOTAL FREE ENERGY PREDICTED BY IDOCK:   -4.99 KCAL/MOL
REMARK 923 INTER-LIGAND FREE ENERGY PREDICTED BY IDOCK:   -5.28 KCAL/MOL
REMARK 924 INTRA-LIGAND FREE ENERGY PREDICTED BY IDOCK:    0.29 KCAL/MOL
REMARK 927      BINDING AFFINITY PREDICTED BY RF-SCORE:    0.00 PKD
ROOT
HETATM    1  C   UNL     1     -12.436  13.966  65.966  1.00  0.00    -0.501 C  
HETATM    2  C   UNL     1     -10.988  13.789  66.430  1.00  0.00    -0.298 C  
HETATM    3  C   UNL     1     -10.051  14.804  65.766  1.00  0.00    -0.364 C  
HETATM    4  C   UNL     1     -10.156  16.203  66.385  1.00  0.00    -0.308 C  
HETATM    5  C   UNL     1      -9.854  16.135  67.887  1.00  0.00    -0.235 C  
HETATM    6  C   UNL     1     -10.286  14.998  70.091  1.00  0.00    -0.057 C  
HETATM    7  C   UNL     1     -10.804  15.183  68.649  1.00  0.00    -0.245 C  
HETATM    8  C   UNL     1     -12.215  15.792  68.758  1.00  0.00     0.088 C  
HETATM    9  C   UNL     1     -10.829  13.796  67.960  1.00  0.00    -0.263 C  
ENDROOT
BRANCH   4  10
HETATM   10  O   UNL     1      -9.198  17.089  65.769  1.00  0.00    -0.526 OA 
BRANCH  10  11
HETATM   11  C   UNL     1      -7.904  16.913  66.172  1.00  0.00    -0.242 C  
HETATM   12  O   UNL     1      -7.392  15.834  66.461  1.00  0.00    -0.120 OA 
BRANCH  11  13
HETATM   13  C   UNL     1      -7.145  18.242  66.238  1.00  0.00    -0.258 C  
HETATM   14  O   UNL     1      -7.971  19.324  65.794  1.00  0.00    -0.446 OA 
HETATM   15  H   UNL     1      -7.501  20.148  65.835  1.00  0.00     0.000 HD 
BRANCH  13  16
HETATM   16  C   UNL     1      -6.667  18.574  67.635  1.00  0.00    -0.200 A  
HETATM   17  C   UNL     1      -5.603  17.856  68.203  1.00  0.00    -0.151 A  
HETATM   18  C   UNL     1      -5.126  18.181  69.474  1.00  0.00    -0.182 A  
HETATM   19  C   UNL     1      -5.703  19.226  70.191  1.00  0.00    -0.275 A  
HETATM   20  C   UNL     1      -6.760  19.947  69.642  1.00  0.00    -0.337 A  
HETATM   21  C   UNL     1      -7.241  19.624  68.372  1.00  0.00    -0.355 A  
ENDBRANCH  13  16
ENDBRANCH  11  13
ENDBRANCH  10  11
ENDBRANCH   4  10
TORSDOF 4
ENDMDL
MODEL      207
REMARK 921   NORMALIZED FREE ENERGY PREDICTED BY IDOCK:   -3.57 KCAL/MOL
REMARK 922        TOTAL FREE ENERGY PREDICTED BY IDOCK:   -4.96 KCAL/MOL
REMARK 923 INTER-LIGAND FREE ENERGY PREDICTED BY IDOCK:   -4.74 KCAL/MOL
REMARK 924 INTRA-LIGAND FREE ENERGY PREDICTED BY IDOCK:   -0.22 KCAL/MOL
REMARK 927      BINDING AFFINITY PREDICTED BY RF-SCORE:    0.00 PKD
ROOT
HETATM    1  C   UNL     1     -12.081   9.626  71.632  1.00  0.00    -0.481 C  
HETATM    2  C   UNL     1     -12.085   8.209  72.212  1.00  0.00    -0.419 C  
HETATM    3  C   UNL     1     -12.293   7.150  71.123  1.00  0.00    -0.404 C  
HETATM    4  C   UNL     1     -11.026   6.888  70.300  1.00  0.00    -0.281 C  
HETATM    5  C   UNL     1      -9.882   6.454  71.224  1.00  0.00    -0.200 C  
HETATM    6  C   UNL     1      -8.568   6.888  73.327  1.00  0.00    -0.140 C  
HETATM    7  C   UNL     1      -9.558   7.501  72.314  1.00  0.00    -0.197 C  
HETATM    8  C   UNL     1      -8.860   8.730  71.700  1.00  0.00    -0.278 C  
HETATM    9  C   UNL     1     -10.850   7.894  73.073  1.00  0.00    -0.408 C  
ENDROOT
BRANCH   4  10
HETATM   10  O   UNL     1     -11.266   5.832  69.348  1.00  0.00    -0.321 OA 
BRANCH  10  11
HETATM   11  C   UNL     1     -10.143   5.276  68.803  1.00  0.00    -0.177 C  
HETATM   12  O   UNL     1      -9.641   4.209  69.149  1.00  0.00    -0.172 OA 
BRANCH  11  13
HETATM   13  C   UNL     1      -9.554   6.157  67.696  1.00  0.00    -0.111 C  
HETATM   14  O   UNL     1      -8.232   6.588  68.035  1.00  0.00    -0.115 OA 
HETATM   15  H   UNL     1      -7.867   7.134  67.349  1.00  0.00     0.000 HD 
BRANCH  13  16
HETATM   16  C   UNL     1      -9.477   5.446  66.362  1.00  0.00    -0.164 A  
HETATM   17  C   UNL     1     -10.590   4.744  65.873  1.00  0.00    -0.290 A  
HETATM   18  C   UNL     1     -10.544   4.120  64.625  1.00  0.00    -0.176 A  
HETATM   19  C   UNL     1      -9.388   4.190  63.851  1.00  0.00    -0.152 A  
HETATM   20  C   UNL     1      -8.274   4.879  64.324  1.00  0.00    -0.121 A  
HETATM   21  C   UNL     1      -8.316   5.504  65.572  1.00  0.00    -0.136 A  
ENDBRANCH  13  16
ENDBRANCH  11  13
ENDBRANCH  10  11
ENDBRANCH   4  10
TORSDOF 4
ENDMDL
MODEL      208
REMARK 921   NORMALIZED FREE ENERGY PREDICTED BY IDOCK:   -3.57 KCAL/MOL
REMARK 922        TOTAL FREE ENERGY PREDICTED BY IDOCK:   -4.96 KCAL/MOL
REMARK 923 INTER-LIGAND FREE ENERGY PREDICTED BY IDOCK:   -4.66 KCAL/MOL
REMARK 924 INTRA-LIGAND FREE ENERGY PREDICTED BY IDOCK:   -0.29 KCAL/MOL
REMARK 927      BINDING AFFINITY PREDICTED BY RF-SCORE:    0.00 PKD
ROOT
HETATM    1  C   UNL     1      -6.605   6.214  68.421  1.00  0.00    -0.058 C  
HETATM    2  C   UNL     1      -8.045   6.089  68.924  1.00  0.00    -0.104 C  
HETATM    3  C   UNL     1      -8.650   7.457  69.261  1.00  0.00    -0.137 C  
HETATM    4  C   UNL     1      -9.075   8.241  68.013  1.00  0.00    -0.137 C  
HETATM    5  C   UNL     1     -10.084   7.423  67.198  1.00  0.00    -0.314 C  
HETATM    6  C   UNL     1     -10.673   5.210  66.153  1.00  0.00    -0.247 C  
HETATM    7  C   UNL     1      -9.528   6.050  66.755  1.00  0.00    -0.158 C  
HETATM    8  C   UNL     1      -8.471   6.222  65.647  1.00  0.00    -0.148 C  
HETATM    9  C   UNL     1      -8.958   5.289  67.979  1.00  0.00    -0.113 C  
ENDROOT
BRANCH   4  10
HETATM   10  O   UNL     1      -9.704   9.481  68.400  1.00  0.00    -0.150 OA 
BRANCH  10  11
HETATM   11  C   UNL     1      -9.947  10.351  67.376  1.00  0.00    -0.187 C  
HETATM   12  O   UNL     1      -9.230  10.506  66.391  1.00  0.00    -0.161 OA 
BRANCH  11  13
HETATM   13  C   UNL     1     -11.240  11.143  67.600  1.00  0.00    -0.297 C  
HETATM   14  O   UNL     1     -12.138  10.423  68.452  1.00  0.00    -0.769 OA 
HETATM   15  H   UNL     1     -12.939  10.913  68.591  1.00  0.00     0.000 HD 
BRANCH  13  16
HETATM   16  C   UNL     1     -10.996  12.497  68.232  1.00  0.00    -0.270 A  
HETATM   17  C   UNL     1     -10.009  13.348  67.710  1.00  0.00    -0.233 A  
HETATM   18  C   UNL     1      -9.803  14.615  68.257  1.00  0.00    -0.222 A  
HETATM   19  C   UNL     1     -10.580  15.048  69.330  1.00  0.00    -0.249 A  
HETATM   20  C   UNL     1     -11.561  14.214  69.860  1.00  0.00    -0.329 A  
HETATM   21  C   UNL     1     -11.769  12.945  69.315  1.00  0.00    -0.378 A  
ENDBRANCH  13  16
ENDBRANCH  11  13
ENDBRANCH  10  11
ENDBRANCH   4  10
TORSDOF 4
ENDMDL
MODEL      209
REMARK 921   NORMALIZED FREE ENERGY PREDICTED BY IDOCK:   -3.56 KCAL/MOL
REMARK 922        TOTAL FREE ENERGY PREDICTED BY IDOCK:   -4.95 KCAL/MOL
REMARK 923 INTER-LIGAND FREE ENERGY PREDICTED BY IDOCK:   -3.85 KCAL/MOL
REMARK 924 INTRA-LIGAND FREE ENERGY PREDICTED BY IDOCK:   -1.10 KCAL/MOL
REMARK 927      BINDING AFFINITY PREDICTED BY RF-SCORE:    0.00 PKD
ROOT
HETATM    1  C   UNL     1      -7.244   6.390  71.670  1.00  0.00    -0.086 C  
HETATM    2  C   UNL     1      -8.460   7.046  72.329  1.00  0.00    -0.117 C  
HETATM    3  C   UNL     1      -9.334   7.781  71.305  1.00  0.00    -0.171 C  
HETATM    4  C   UNL     1     -10.204   6.829  70.475  1.00  0.00    -0.192 C  
HETATM    5  C   UNL     1     -11.095   5.992  71.402  1.00  0.00    -0.336 C  
HETATM    6  C   UNL     1     -11.258   4.542  73.453  1.00  0.00    -0.404 C  
HETATM    7  C   UNL     1     -10.288   5.161  72.425  1.00  0.00    -0.257 C  
HETATM    8  C   UNL     1      -9.569   3.988  71.730  1.00  0.00    -0.223 C  
HETATM    9  C   UNL     1      -9.293   6.075  73.184  1.00  0.00    -0.139 C  
ENDROOT
BRANCH   4  10
HETATM   10  O   UNL     1     -11.054   7.584  69.588  1.00  0.00    -0.198 OA 
BRANCH  10  11
HETATM   11  C   UNL     1     -10.879   7.326  68.258  1.00  0.00    -0.058 C  
HETATM   12  O   UNL     1     -11.096   6.247  67.711  1.00  0.00    -0.334 OA 
BRANCH  11  13
HETATM   13  C   UNL     1     -10.358   8.555  67.506  1.00  0.00    -0.267 C  
HETATM   14  O   UNL     1     -11.248   9.665  67.663  1.00  0.00    -0.476 OA 
HETATM   15  H   UNL     1     -10.925  10.426  67.197  1.00  0.00     0.000 HD 
BRANCH  13  16
HETATM   16  C   UNL     1      -8.989   8.994  67.979  1.00  0.00    -0.133 A  
HETATM   17  C   UNL     1      -7.883   8.144  67.818  1.00  0.00    -0.118 A  
HETATM   18  C   UNL     1      -6.609   8.554  68.213  1.00  0.00    -0.061 A  
HETATM   19  C   UNL     1      -6.423   9.818  68.769  1.00  0.00    -0.046 A  
HETATM   20  C   UNL     1      -7.510  10.672  68.937  1.00  0.00    -0.108 A  
HETATM   21  C   UNL     1      -8.787  10.263  68.545  1.00  0.00    -0.127 A  
ENDBRANCH  13  16
ENDBRANCH  11  13
ENDBRANCH  10  11
ENDBRANCH   4  10
TORSDOF 4
ENDMDL
MODEL      210
REMARK 921   NORMALIZED FREE ENERGY PREDICTED BY IDOCK:   -3.54 KCAL/MOL
REMARK 922        TOTAL FREE ENERGY PREDICTED BY IDOCK:   -4.92 KCAL/MOL
REMARK 923 INTER-LIGAND FREE ENERGY PREDICTED BY IDOCK:   -4.46 KCAL/MOL
REMARK 924 INTRA-LIGAND FREE ENERGY PREDICTED BY IDOCK:   -0.45 KCAL/MOL
REMARK 927      BINDING AFFINITY PREDICTED BY RF-SCORE:    0.00 PKD
ROOT
HETATM    1  C   UNL     1      -6.807   5.535  71.992  1.00  0.00    -0.071 C  
HETATM    2  C   UNL     1      -7.856   6.167  72.910  1.00  0.00    -0.105 C  
HETATM    3  C   UNL     1      -8.602   7.312  72.217  1.00  0.00    -0.131 C  
HETATM    4  C   UNL     1      -9.662   6.816  71.226  1.00  0.00    -0.172 C  
HETATM    5  C   UNL     1     -10.670   5.911  71.947  1.00  0.00    -0.290 C  
HETATM    6  C   UNL     1     -11.046   3.970  73.505  1.00  0.00    -0.350 C  
HETATM    7  C   UNL     1     -10.006   4.687  72.618  1.00  0.00    -0.213 C  
HETATM    8  C   UNL     1      -9.546   3.666  71.559  1.00  0.00    -0.234 C  
HETATM    9  C   UNL     1      -8.833   5.147  73.519  1.00  0.00    -0.116 C  
ENDROOT
BRANCH   4  10
HETATM   10  O   UNL     1     -10.378   7.937  70.667  1.00  0.00    -0.200 OA 
BRANCH  10  11
HETATM   11  C   UNL     1     -10.337   8.029  69.304  1.00  0.00    -0.220 C  
HETATM   12  O   UNL     1     -10.900   7.266  68.525  1.00  0.00    -0.162 OA 
BRANCH  11  13
HETATM   13  C   UNL     1      -9.478   9.211  68.843  1.00  0.00    -0.151 C  
HETATM   14  O   UNL     1      -8.485   8.785  67.904  1.00  0.00    -0.124 OA 
HETATM   15  H   UNL     1      -7.952   9.517  67.618  1.00  0.00     0.000 HD 
BRANCH  13  16
HETATM   16  C   UNL     1     -10.292  10.304  68.183  1.00  0.00    -0.208 A  
HETATM   17  C   UNL     1     -11.060  11.179  68.968  1.00  0.00    -0.299 A  
HETATM   18  C   UNL     1     -11.782  12.216  68.375  1.00  0.00    -0.388 A  
HETATM   19  C   UNL     1     -11.744  12.393  66.993  1.00  0.00    -0.423 A  
HETATM   20  C   UNL     1     -10.989  11.532  66.201  1.00  0.00    -0.320 A  
HETATM   21  C   UNL     1     -10.267  10.492  66.792  1.00  0.00    -0.288 A  
ENDBRANCH  13  16
ENDBRANCH  11  13
ENDBRANCH  10  11
ENDBRANCH   4  10
TORSDOF 4
ENDMDL
MODEL      211
REMARK 921   NORMALIZED FREE ENERGY PREDICTED BY IDOCK:   -3.54 KCAL/MOL
REMARK 922        TOTAL FREE ENERGY PREDICTED BY IDOCK:   -4.92 KCAL/MOL
REMARK 923 INTER-LIGAND FREE ENERGY PREDICTED BY IDOCK:   -4.74 KCAL/MOL
REMARK 924 INTRA-LIGAND FREE ENERGY PREDICTED BY IDOCK:   -0.18 KCAL/MOL
REMARK 927      BINDING AFFINITY PREDICTED BY RF-SCORE:    0.00 PKD
ROOT
HETATM    1  C   UNL     1     -10.727  18.104  68.001  1.00  0.00    -0.297 C  
HETATM    2  C   UNL     1     -10.684  16.663  67.488  1.00  0.00    -0.278 C  
HETATM    3  C   UNL     1      -9.271  16.073  67.567  1.00  0.00    -0.214 C  
HETATM    4  C   UNL     1      -8.882  15.656  68.991  1.00  0.00    -0.243 C  
HETATM    5  C   UNL     1      -9.893  14.637  69.533  1.00  0.00     0.072 C  
HETATM    6  C   UNL     1     -12.308  14.024  69.887  1.00  0.00    -0.367 C  
HETATM    7  C   UNL     1     -11.340  15.179  69.553  1.00  0.00    -0.301 C  
HETATM    8  C   UNL     1     -11.512  16.236  70.661  1.00  0.00    -0.297 C  
HETATM    9  C   UNL     1     -11.716  15.740  68.159  1.00  0.00    -0.175 C  
ENDROOT
BRANCH   4  10
HETATM   10  O   UNL     1      -7.577  15.041  68.985  1.00  0.00    -0.136 OA 
BRANCH  10  11
HETATM   11  C   UNL     1      -6.621  15.717  68.280  1.00  0.00    -0.122 C  
HETATM   12  O   UNL     1      -5.949  15.246  67.366  1.00  0.00    -0.325 OA 
BRANCH  11  13
HETATM   13  C   UNL     1      -6.466  17.159  68.774  1.00  0.00    -0.185 C  
HETATM   14  O   UNL     1      -5.147  17.386  69.281  1.00  0.00    -0.158 OA 
HETATM   15  H   UNL     1      -5.051  18.279  69.588  1.00  0.00     0.000 HD 
BRANCH  13  16
HETATM   16  C   UNL     1      -6.722  18.181  67.687  1.00  0.00    -0.199 A  
HETATM   17  C   UNL     1      -7.397  19.374  67.988  1.00  0.00    -0.309 A  
HETATM   18  C   UNL     1      -7.602  20.342  67.004  1.00  0.00    -0.351 A  
HETATM   19  C   UNL     1      -7.133  20.131  65.709  1.00  0.00    -0.311 A  
HETATM   20  C   UNL     1      -6.463  18.952  65.394  1.00  0.00    -0.309 A  
HETATM   21  C   UNL     1      -6.258  17.981  66.376  1.00  0.00    -0.236 A  
ENDBRANCH  13  16
ENDBRANCH  11  13
ENDBRANCH  10  11
ENDBRANCH   4  10
TORSDOF 4
ENDMDL
MODEL      212
REMARK 921   NORMALIZED FREE ENERGY PREDICTED BY IDOCK:   -3.53 KCAL/MOL
REMARK 922        TOTAL FREE ENERGY PREDICTED BY IDOCK:   -4.91 KCAL/MOL
REMARK 923 INTER-LIGAND FREE ENERGY PREDICTED BY IDOCK:   -4.30 KCAL/MOL
REMARK 924 INTRA-LIGAND FREE ENERGY PREDICTED BY IDOCK:   -0.61 KCAL/MOL
REMARK 927      BINDING AFFINITY PREDICTED BY RF-SCORE:    0.00 PKD
ROOT
HETATM    1  C   UNL     1     -10.400  17.186  67.371  1.00  0.00    -0.333 C  
HETATM    2  C   UNL     1     -10.529  15.879  66.585  1.00  0.00    -0.306 C  
HETATM    3  C   UNL     1      -9.162  15.234  66.326  1.00  0.00    -0.350 C  
HETATM    4  C   UNL     1      -8.598  14.521  67.561  1.00  0.00    -0.189 C  
HETATM    5  C   UNL     1      -9.586  13.451  68.045  1.00  0.00    -0.219 C  
HETATM    6  C   UNL     1     -11.960  12.868  68.645  1.00  0.00    -0.282 C  
HETATM    7  C   UNL     1     -10.975  14.030  68.397  1.00  0.00    -0.269 C  
HETATM    8  C   UNL     1     -10.912  14.845  69.703  1.00  0.00    -0.294 C  
HETATM    9  C   UNL     1     -11.512  14.877  67.216  1.00  0.00    -0.350 C  
ENDROOT
BRANCH   4  10
HETATM   10  O   UNL     1      -7.353  13.873  67.232  1.00  0.00    -0.146 OA 
BRANCH  10  11
HETATM   11  C   UNL     1      -6.949  12.911  68.114  1.00  0.00    -0.102 C  
HETATM   12  O   UNL     1      -6.806  13.074  69.323  1.00  0.00    -0.096 OA 
BRANCH  11  13
HETATM   13  C   UNL     1      -6.674  11.577  67.411  1.00  0.00    -0.101 C  
HETATM   14  O   UNL     1      -5.728  10.797  68.150  1.00  0.00    -0.043 OA 
HETATM   15  H   UNL     1      -5.558   9.970  67.715  1.00  0.00     0.000 HD 
BRANCH  13  16
HETATM   16  C   UNL     1      -7.923  10.740  67.237  1.00  0.00    -0.117 A  
HETATM   17  C   UNL     1      -8.453  10.031  68.326  1.00  0.00    -0.111 A  
HETATM   18  C   UNL     1      -9.626   9.289  68.188  1.00  0.00    -0.159 A  
HETATM   19  C   UNL     1     -10.286   9.247  66.961  1.00  0.00    -0.331 A  
HETATM   20  C   UNL     1      -9.772   9.943  65.870  1.00  0.00    -0.326 A  
HETATM   21  C   UNL     1      -8.596  10.685  66.005  1.00  0.00    -0.177 A  
ENDBRANCH  13  16
ENDBRANCH  11  13
ENDBRANCH  10  11
ENDBRANCH   4  10
TORSDOF 4
ENDMDL
MODEL      213
REMARK 921   NORMALIZED FREE ENERGY PREDICTED BY IDOCK:   -3.52 KCAL/MOL
REMARK 922        TOTAL FREE ENERGY PREDICTED BY IDOCK:   -4.90 KCAL/MOL
REMARK 923 INTER-LIGAND FREE ENERGY PREDICTED BY IDOCK:   -4.17 KCAL/MOL
REMARK 924 INTRA-LIGAND FREE ENERGY PREDICTED BY IDOCK:   -0.73 KCAL/MOL
REMARK 927      BINDING AFFINITY PREDICTED BY RF-SCORE:    0.00 PKD
ROOT
HETATM    1  C   UNL     1     -11.321   5.477  72.868  1.00  0.00    -0.348 C  
HETATM    2  C   UNL     1     -10.151   5.157  71.935  1.00  0.00    -0.255 C  
HETATM    3  C   UNL     1     -10.121   6.091  70.720  1.00  0.00    -0.248 C  
HETATM    4  C   UNL     1      -9.569   7.482  71.054  1.00  0.00    -0.160 C  
HETATM    5  C   UNL     1      -8.156   7.358  71.640  1.00  0.00    -0.099 C  
HETATM    6  C   UNL     1      -6.635   6.226  73.295  1.00  0.00    -0.073 C  
HETATM    7  C   UNL     1      -8.108   6.486  72.915  1.00  0.00    -0.105 C  
HETATM    8  C   UNL     1      -8.751   7.223  74.105  1.00  0.00    -0.253 C  
HETATM    9  C   UNL     1      -8.788   5.120  72.649  1.00  0.00    -0.123 C  
ENDROOT
BRANCH   4  10
HETATM   10  O   UNL     1      -9.495   8.284  69.858  1.00  0.00    -0.165 OA 
BRANCH  10  11
HETATM   11  C   UNL     1     -10.671   8.866  69.477  1.00  0.00    -0.199 C  
HETATM   12  O   UNL     1     -11.518   9.319  70.243  1.00  0.00    -0.243 OA 
BRANCH  11  13
HETATM   13  C   UNL     1     -10.829   8.882  67.953  1.00  0.00    -0.030 C  
HETATM   14  O   UNL     1     -10.142  10.000  67.380  1.00  0.00    -0.186 OA 
HETATM   15  H   UNL     1     -10.239  10.010  66.436  1.00  0.00     0.000 HD 
BRANCH  13  16
HETATM   16  C   UNL     1     -10.292   7.629  67.296  1.00  0.00    -0.367 A  
HETATM   17  C   UNL     1     -11.034   6.438  67.340  1.00  0.00    -0.463 A  
HETATM   18  C   UNL     1     -10.569   5.287  66.702  1.00  0.00    -0.334 A  
HETATM   19  C   UNL     1      -9.359   5.312  66.012  1.00  0.00    -0.167 A  
HETATM   20  C   UNL     1      -8.610   6.484  65.961  1.00  0.00    -0.150 A  
HETATM   21  C   UNL     1      -9.072   7.637  66.600  1.00  0.00    -0.198 A  
ENDBRANCH  13  16
ENDBRANCH  11  13
ENDBRANCH  10  11
ENDBRANCH   4  10
TORSDOF 4
ENDMDL
MODEL      214
REMARK 921   NORMALIZED FREE ENERGY PREDICTED BY IDOCK:   -3.52 KCAL/MOL
REMARK 922        TOTAL FREE ENERGY PREDICTED BY IDOCK:   -4.89 KCAL/MOL
REMARK 923 INTER-LIGAND FREE ENERGY PREDICTED BY IDOCK:   -4.58 KCAL/MOL
REMARK 924 INTRA-LIGAND FREE ENERGY PREDICTED BY IDOCK:   -0.32 KCAL/MOL
REMARK 927      BINDING AFFINITY PREDICTED BY RF-SCORE:    0.00 PKD
ROOT
HETATM    1  C   UNL     1      -9.555   7.997  68.501  1.00  0.00    -0.159 C  
HETATM    2  C   UNL     1     -10.112   9.338  68.017  1.00  0.00    -0.234 C  
HETATM    3  C   UNL     1      -9.405  10.522  68.687  1.00  0.00    -0.172 C  
HETATM    4  C   UNL     1      -8.019  10.799  68.093  1.00  0.00    -0.114 C  
HETATM    5  C   UNL     1      -8.138  11.061  66.586  1.00  0.00    -0.155 C  
HETATM    6  C   UNL     1      -9.071  10.320  64.369  1.00  0.00    -0.275 C  
HETATM    7  C   UNL     1      -8.779   9.882  65.820  1.00  0.00    -0.157 C  
HETATM    8  C   UNL     1      -7.806   8.690  65.737  1.00  0.00    -0.100 C  
HETATM    9  C   UNL     1     -10.120   9.483  66.485  1.00  0.00    -0.326 C  
ENDROOT
BRANCH   4  10
HETATM   10  O   UNL     1      -7.441  11.967  68.712  1.00  0.00    -0.117 OA 
BRANCH  10  11
HETATM   11  C   UNL     1      -7.660  13.142  68.050  1.00  0.00    -0.144 C  
HETATM   12  O   UNL     1      -6.869  13.680  67.280  1.00  0.00    -0.181 OA 
BRANCH  11  13
HETATM   13  C   UNL     1      -9.030  13.737  68.392  1.00  0.00    -0.166 C  
HETATM   14  O   UNL     1      -8.891  14.891  69.228  1.00  0.00    -0.323 OA 
HETATM   15  H   UNL     1      -9.740  15.260  69.440  1.00  0.00     0.000 HD 
BRANCH  13  16
HETATM   16  C   UNL     1      -9.811  14.153  67.163  1.00  0.00    -0.253 A  
HETATM   17  C   UNL     1     -10.647  13.230  66.515  1.00  0.00    -0.289 A  
HETATM   18  C   UNL     1     -11.403  13.613  65.406  1.00  0.00    -0.311 A  
HETATM   19  C   UNL     1     -11.335  14.922  64.933  1.00  0.00    -0.415 A  
HETATM   20  C   UNL     1     -10.509  15.848  65.563  1.00  0.00    -0.425 A  
HETATM   21  C   UNL     1      -9.750  15.468  66.672  1.00  0.00    -0.264 A  
ENDBRANCH  13  16
ENDBRANCH  11  13
ENDBRANCH  10  11
ENDBRANCH   4  10
TORSDOF 4
ENDMDL
MODEL      215
REMARK 921   NORMALIZED FREE ENERGY PREDICTED BY IDOCK:   -3.52 KCAL/MOL
REMARK 922        TOTAL FREE ENERGY PREDICTED BY IDOCK:   -4.89 KCAL/MOL
REMARK 923 INTER-LIGAND FREE ENERGY PREDICTED BY IDOCK:   -4.62 KCAL/MOL
REMARK 924 INTRA-LIGAND FREE ENERGY PREDICTED BY IDOCK:   -0.27 KCAL/MOL
REMARK 927      BINDING AFFINITY PREDICTED BY RF-SCORE:    0.00 PKD
ROOT
HETATM    1  C   UNL     1      -7.513   9.176  64.982  1.00  0.00    -0.105 C  
HETATM    2  C   UNL     1      -7.204   9.452  66.455  1.00  0.00    -0.089 C  
HETATM    3  C   UNL     1      -7.970  10.673  66.977  1.00  0.00    -0.121 C  
HETATM    4  C   UNL     1      -9.445  10.369  67.268  1.00  0.00    -0.154 C  
HETATM    5  C   UNL     1      -9.553   9.224  68.283  1.00  0.00    -0.160 C  
HETATM    6  C   UNL     1      -8.819   6.916  68.968  1.00  0.00    -0.130 C  
HETATM    7  C   UNL     1      -8.864   7.926  67.803  1.00  0.00    -0.122 C  
HETATM    8  C   UNL     1      -9.675   7.264  66.672  1.00  0.00    -0.249 C  
HETATM    9  C   UNL     1      -7.409   8.229  67.366  1.00  0.00    -0.092 C  
ENDROOT
BRANCH   4  10
HETATM   10  O   UNL     1     -10.088  11.533  67.827  1.00  0.00    -0.177 OA 
BRANCH  10  11
HETATM   11  C   UNL     1     -10.723  12.334  66.921  1.00  0.00    -0.232 C  
HETATM   12  O   UNL     1     -11.842  12.132  66.456  1.00  0.00    -0.569 OA 
BRANCH  11  13
HETATM   13  C   UNL     1      -9.860  13.539  66.527  1.00  0.00    -0.291 C  
HETATM   14  O   UNL     1     -10.102  13.918  65.168  1.00  0.00    -0.471 OA 
HETATM   15  H   UNL     1      -9.568  14.664  64.925  1.00  0.00     0.000 HD 
BRANCH  13  16
HETATM   16  C   UNL     1     -10.119  14.752  67.395  1.00  0.00    -0.231 A  
HETATM   17  C   UNL     1     -10.319  16.009  66.804  1.00  0.00    -0.300 A  
HETATM   18  C   UNL     1     -10.599  17.128  67.590  1.00  0.00    -0.343 A  
HETATM   19  C   UNL     1     -10.686  17.003  68.975  1.00  0.00    -0.271 A  
HETATM   20  C   UNL     1     -10.488  15.763  69.577  1.00  0.00    -0.270 A  
HETATM   21  C   UNL     1     -10.206  14.643  68.793  1.00  0.00    -0.242 A  
ENDBRANCH  13  16
ENDBRANCH  11  13
ENDBRANCH  10  11
ENDBRANCH   4  10
TORSDOF 4
ENDMDL
MODEL      216
REMARK 921   NORMALIZED FREE ENERGY PREDICTED BY IDOCK:   -3.50 KCAL/MOL
REMARK 922        TOTAL FREE ENERGY PREDICTED BY IDOCK:   -4.88 KCAL/MOL
REMARK 923 INTER-LIGAND FREE ENERGY PREDICTED BY IDOCK:   -4.40 KCAL/MOL
REMARK 924 INTRA-LIGAND FREE ENERGY PREDICTED BY IDOCK:   -0.48 KCAL/MOL
REMARK 927      BINDING AFFINITY PREDICTED BY RF-SCORE:    0.00 PKD
ROOT
HETATM    1  C   UNL     1      -9.679  16.379  66.205  1.00  0.00    -0.355 C  
HETATM    2  C   UNL     1     -10.761  15.299  66.280  1.00  0.00    -0.315 C  
HETATM    3  C   UNL     1     -10.208  13.914  65.926  1.00  0.00    -0.326 C  
HETATM    4  C   UNL     1      -9.400  13.287  67.069  1.00  0.00    -0.242 C  
HETATM    5  C   UNL     1     -10.269  13.184  68.329  1.00  0.00    -0.250 C  
HETATM    6  C   UNL     1     -11.852  14.329  69.917  1.00  0.00    -0.382 C  
HETATM    7  C   UNL     1     -10.813  14.553  68.798  1.00  0.00    -0.256 C  
HETATM    8  C   UNL     1      -9.685  15.410  69.405  1.00  0.00    -0.273 C  
HETATM    9  C   UNL     1     -11.514  15.277  67.622  1.00  0.00    -0.287 C  
ENDROOT
BRANCH   4  10
HETATM   10  O   UNL     1      -8.974  11.959  66.701  1.00  0.00    -0.191 OA 
BRANCH  10  11
HETATM   11  C   UNL     1      -7.853  11.512  67.342  1.00  0.00    -0.143 C  
HETATM   12  O   UNL     1      -7.015  12.227  67.885  1.00  0.00    -0.085 OA 
BRANCH  11  13
HETATM   13  C   UNL     1      -7.747   9.984  67.298  1.00  0.00    -0.095 C  
HETATM   14  O   UNL     1      -6.398   9.560  67.522  1.00  0.00    -0.060 OA 
HETATM   15  H   UNL     1      -6.331   8.614  67.494  1.00  0.00     0.000 HD 
BRANCH  13  16
HETATM   16  C   UNL     1      -8.618   9.306  68.333  1.00  0.00    -0.124 A  
HETATM   17  C   UNL     1      -9.191  10.058  69.371  1.00  0.00    -0.229 A  
HETATM   18  C   UNL     1     -10.030   9.451  70.308  1.00  0.00    -0.284 A  
HETATM   19  C   UNL     1     -10.308   8.089  70.217  1.00  0.00    -0.212 A  
HETATM   20  C   UNL     1      -9.746   7.330  69.195  1.00  0.00    -0.160 A  
HETATM   21  C   UNL     1      -8.905   7.933  68.257  1.00  0.00    -0.129 A  
ENDBRANCH  13  16
ENDBRANCH  11  13
ENDBRANCH  10  11
ENDBRANCH   4  10
TORSDOF 4
ENDMDL
MODEL      217
REMARK 921   NORMALIZED FREE ENERGY PREDICTED BY IDOCK:   -3.50 KCAL/MOL
REMARK 922        TOTAL FREE ENERGY PREDICTED BY IDOCK:   -4.87 KCAL/MOL
REMARK 923 INTER-LIGAND FREE ENERGY PREDICTED BY IDOCK:   -4.40 KCAL/MOL
REMARK 924 INTRA-LIGAND FREE ENERGY PREDICTED BY IDOCK:   -0.48 KCAL/MOL
REMARK 927      BINDING AFFINITY PREDICTED BY RF-SCORE:    0.00 PKD
ROOT
HETATM    1  C   UNL     1     -10.081   4.097  65.124  1.00  0.00    -0.219 C  
HETATM    2  C   UNL     1      -8.601   4.470  65.243  1.00  0.00    -0.128 C  
HETATM    3  C   UNL     1      -8.394   5.989  65.216  1.00  0.00    -0.148 C  
HETATM    4  C   UNL     1      -8.746   6.660  66.549  1.00  0.00    -0.135 C  
HETATM    5  C   UNL     1      -7.908   6.049  67.680  1.00  0.00    -0.101 C  
HETATM    6  C   UNL     1      -7.070   3.964  68.815  1.00  0.00    -0.051 C  
HETATM    7  C   UNL     1      -8.112   4.523  67.824  1.00  0.00    -0.099 C  
HETATM    8  C   UNL     1      -9.500   4.211  68.415  1.00  0.00    -0.212 C  
HETATM    9  C   UNL     1      -7.902   3.829  66.455  1.00  0.00    -0.089 C  
ENDROOT
BRANCH   4  10
HETATM   10  O   UNL     1      -8.457   8.071  66.483  1.00  0.00    -0.125 OA 
BRANCH  10  11
HETATM   11  C   UNL     1      -8.920   8.808  67.537  1.00  0.00    -0.134 C  
HETATM   12  O   UNL     1      -8.217   9.331  68.398  1.00  0.00    -0.112 OA 
BRANCH  11  13
HETATM   13  C   UNL     1     -10.449   8.902  67.534  1.00  0.00    -0.269 C  
HETATM   14  O   UNL     1     -11.004   8.221  68.665  1.00  0.00    -0.424 OA 
HETATM   15  H   UNL     1     -11.952   8.280  68.663  1.00  0.00     0.000 HD 
BRANCH  13  16
HETATM   16  C   UNL     1     -10.947  10.332  67.570  1.00  0.00    -0.344 A  
HETATM   17  C   UNL     1     -11.458  10.869  68.762  1.00  0.00    -0.376 A  
HETATM   18  C   UNL     1     -11.881  12.197  68.818  1.00  0.00    -0.356 A  
HETATM   19  C   UNL     1     -11.798  13.005  67.687  1.00  0.00    -0.401 A  
HETATM   20  C   UNL     1     -11.295  12.487  66.496  1.00  0.00    -0.387 A  
HETATM   21  C   UNL     1     -10.872  11.157  66.436  1.00  0.00    -0.284 A  
ENDBRANCH  13  16
ENDBRANCH  11  13
ENDBRANCH  10  11
ENDBRANCH   4  10
TORSDOF 4
ENDMDL
MODEL      218
REMARK 921   NORMALIZED FREE ENERGY PREDICTED BY IDOCK:   -3.48 KCAL/MOL
REMARK 922        TOTAL FREE ENERGY PREDICTED BY IDOCK:   -4.85 KCAL/MOL
REMARK 923 INTER-LIGAND FREE ENERGY PREDICTED BY IDOCK:   -4.75 KCAL/MOL
REMARK 924 INTRA-LIGAND FREE ENERGY PREDICTED BY IDOCK:   -0.10 KCAL/MOL
REMARK 927      BINDING AFFINITY PREDICTED BY RF-SCORE:    0.00 PKD
ROOT
HETATM    1  C   UNL     1      -5.324   9.516  67.158  1.00  0.00    -0.036 C  
HETATM    2  C   UNL     1      -6.063  10.648  66.440  1.00  0.00    -0.100 C  
HETATM    3  C   UNL     1      -7.447  10.204  65.952  1.00  0.00    -0.125 C  
HETATM    4  C   UNL     1      -8.483  10.143  67.081  1.00  0.00    -0.125 C  
HETATM    5  C   UNL     1      -8.597  11.513  67.762  1.00  0.00    -0.138 C  
HETATM    6  C   UNL     1      -7.407  13.475  68.799  1.00  0.00    -0.086 C  
HETATM    7  C   UNL     1      -7.254  12.007  68.347  1.00  0.00    -0.092 C  
HETATM    8  C   UNL     1      -6.873  11.194  69.600  1.00  0.00    -0.117 C  
HETATM    9  C   UNL     1      -6.148  11.945  67.264  1.00  0.00    -0.141 C  
ENDROOT
BRANCH   4  10
HETATM   10  O   UNL     1      -9.776   9.795  66.545  1.00  0.00    -0.183 OA 
BRANCH  10  11
HETATM   11  C   UNL     1     -10.595  10.854  66.271  1.00  0.00    -0.214 C  
HETATM   12  O   UNL     1     -11.534  11.223  66.971  1.00  0.00    -0.455 OA 
BRANCH  11  13
HETATM   13  C   UNL     1     -10.212  11.542  64.956  1.00  0.00    -0.280 C  
HETATM   14  O   UNL     1     -10.829  10.890  63.841  1.00  0.00    -0.509 OA 
HETATM   15  H   UNL     1     -10.592  11.316  63.026  1.00  0.00     0.000 HD 
BRANCH  13  16
HETATM   16  C   UNL     1     -10.617  13.000  64.918  1.00  0.00    -0.355 A  
HETATM   17  C   UNL     1     -11.809  13.381  64.282  1.00  0.00    -0.470 A  
HETATM   18  C   UNL     1     -12.214  14.717  64.276  1.00  0.00    -0.432 A  
HETATM   19  C   UNL     1     -11.437  15.686  64.907  1.00  0.00    -0.245 A  
HETATM   20  C   UNL     1     -10.251  15.323  65.541  1.00  0.00    -0.417 A  
HETATM   21  C   UNL     1      -9.842  13.988  65.547  1.00  0.00    -0.229 A  
ENDBRANCH  13  16
ENDBRANCH  11  13
ENDBRANCH  10  11
ENDBRANCH   4  10
TORSDOF 4
ENDMDL
MODEL      219
REMARK 921   NORMALIZED FREE ENERGY PREDICTED BY IDOCK:   -3.48 KCAL/MOL
REMARK 922        TOTAL FREE ENERGY PREDICTED BY IDOCK:   -4.84 KCAL/MOL
REMARK 923 INTER-LIGAND FREE ENERGY PREDICTED BY IDOCK:   -4.30 KCAL/MOL
REMARK 924 INTRA-LIGAND FREE ENERGY PREDICTED BY IDOCK:   -0.54 KCAL/MOL
REMARK 927      BINDING AFFINITY PREDICTED BY RF-SCORE:    0.00 PKD
ROOT
HETATM    1  C   UNL     1      -7.697   6.421  70.355  1.00  0.00    -0.098 C  
HETATM    2  C   UNL     1      -8.252   6.923  71.690  1.00  0.00    -0.109 C  
HETATM    3  C   UNL     1      -8.658   8.400  71.618  1.00  0.00    -0.223 C  
HETATM    4  C   UNL     1      -9.995   8.613  70.898  1.00  0.00    -0.206 C  
HETATM    5  C   UNL     1     -11.100   7.813  71.599  1.00  0.00    -0.275 C  
HETATM    6  C   UNL     1     -11.838   5.610  72.569  1.00  0.00    -0.194 C  
HETATM    7  C   UNL     1     -10.803   6.297  71.653  1.00  0.00    -0.298 C  
HETATM    8  C   UNL     1     -10.952   5.660  70.258  1.00  0.00    -0.287 C  
HETATM    9  C   UNL     1      -9.393   6.054  72.247  1.00  0.00    -0.149 C  
ENDROOT
BRANCH   4  10
HETATM   10  O   UNL     1     -10.356  10.009  70.931  1.00  0.00    -0.171 OA 
BRANCH  10  11
HETATM   11  C   UNL     1     -10.857  10.506  69.761  1.00  0.00    -0.281 C  
HETATM   12  O   UNL     1     -12.039  10.475  69.426  1.00  0.00    -0.225 OA 
BRANCH  11  13
HETATM   13  C   UNL     1      -9.755  11.111  68.884  1.00  0.00    -0.150 C  
HETATM   14  O   UNL     1      -8.484  11.035  69.538  1.00  0.00    -0.377 OA 
HETATM   15  H   UNL     1      -7.801  11.410  68.995  1.00  0.00     0.000 HD 
BRANCH  13  16
HETATM   16  C   UNL     1      -9.625  10.415  67.546  1.00  0.00    -0.178 A  
HETATM   17  C   UNL     1      -9.586  11.169  66.363  1.00  0.00    -0.227 A  
HETATM   18  C   UNL     1      -9.424  10.542  65.126  1.00  0.00    -0.285 A  
HETATM   19  C   UNL     1      -9.297   9.157  65.057  1.00  0.00    -0.120 A  
HETATM   20  C   UNL     1      -9.336   8.394  66.221  1.00  0.00    -0.283 A  
HETATM   21  C   UNL     1      -9.500   9.019  67.460  1.00  0.00    -0.168 A  
ENDBRANCH  13  16
ENDBRANCH  11  13
ENDBRANCH  10  11
ENDBRANCH   4  10
TORSDOF 4
ENDMDL
MODEL      220
REMARK 921   NORMALIZED FREE ENERGY PREDICTED BY IDOCK:   -3.47 KCAL/MOL
REMARK 922        TOTAL FREE ENERGY PREDICTED BY IDOCK:   -4.83 KCAL/MOL
REMARK 923 INTER-LIGAND FREE ENERGY PREDICTED BY IDOCK:   -5.02 KCAL/MOL
REMARK 924 INTRA-LIGAND FREE ENERGY PREDICTED BY IDOCK:    0.18 KCAL/MOL
REMARK 927      BINDING AFFINITY PREDICTED BY RF-SCORE:    0.00 PKD
ROOT
HETATM    1  C   UNL     1      -7.645   2.569  70.828  1.00  0.00    -0.036 C  
HETATM    2  C   UNL     1      -9.010   3.112  70.398  1.00  0.00    -0.170 C  
HETATM    3  C   UNL     1      -9.234   4.545  70.896  1.00  0.00    -0.201 C  
HETATM    4  C   UNL     1      -8.476   5.587  70.065  1.00  0.00    -0.120 C  
HETATM    5  C   UNL     1      -8.892   5.486  68.592  1.00  0.00    -0.108 C  
HETATM    6  C   UNL     1      -9.289   4.008  66.593  1.00  0.00    -0.197 C  
HETATM    7  C   UNL     1      -8.633   4.087  67.988  1.00  0.00    -0.110 C  
HETATM    8  C   UNL     1      -7.124   3.851  67.784  1.00  0.00    -0.056 C  
HETATM    9  C   UNL     1      -9.269   2.996  68.886  1.00  0.00    -0.227 C  
ENDROOT
BRANCH   4  10
HETATM   10  O   UNL     1      -8.789   6.915  70.535  1.00  0.00    -0.152 OA 
BRANCH  10  11
HETATM   11  C   UNL     1      -9.993   7.037  71.167  1.00  0.00    -0.184 C  
HETATM   12  O   UNL     1     -10.195   6.812  72.358  1.00  0.00    -0.178 OA 
BRANCH  11  13
HETATM   13  C   UNL     1     -11.097   7.484  70.202  1.00  0.00    -0.231 C  
HETATM   14  O   UNL     1     -12.111   6.480  70.086  1.00  0.00    -0.553 OA 
HETATM   15  H   UNL     1     -12.795   6.757  69.488  1.00  0.00     0.000 HD 
BRANCH  13  16
HETATM   16  C   UNL     1     -11.770   8.768  70.637  1.00  0.00    -0.194 A  
HETATM   17  C   UNL     1     -12.757   8.742  71.635  1.00  0.00    -0.394 A  
HETATM   18  C   UNL     1     -13.355   9.924  72.074  1.00  0.00    -0.532 A  
HETATM   19  C   UNL     1     -12.973  11.146  71.524  1.00  0.00    -0.542 A  
HETATM   20  C   UNL     1     -11.997  11.188  70.532  1.00  0.00    -0.475 A  
HETATM   21  C   UNL     1     -11.399  10.007  70.089  1.00  0.00    -0.357 A  
ENDBRANCH  13  16
ENDBRANCH  11  13
ENDBRANCH  10  11
ENDBRANCH   4  10
TORSDOF 4
ENDMDL
MODEL      221
REMARK 921   NORMALIZED FREE ENERGY PREDICTED BY IDOCK:   -3.46 KCAL/MOL
REMARK 922        TOTAL FREE ENERGY PREDICTED BY IDOCK:   -4.82 KCAL/MOL
REMARK 923 INTER-LIGAND FREE ENERGY PREDICTED BY IDOCK:   -4.33 KCAL/MOL
REMARK 924 INTRA-LIGAND FREE ENERGY PREDICTED BY IDOCK:   -0.49 KCAL/MOL
REMARK 927      BINDING AFFINITY PREDICTED BY RF-SCORE:    0.00 PKD
ROOT
HETATM    1  C   UNL     1      -6.277   8.478  69.543  1.00  0.00    -0.036 C  
HETATM    2  C   UNL     1      -6.939   9.403  70.567  1.00  0.00    -0.105 C  
HETATM    3  C   UNL     1      -7.666  10.572  69.891  1.00  0.00    -0.017 C  
HETATM    4  C   UNL     1      -9.012  10.162  69.282  1.00  0.00    -0.183 C  
HETATM    5  C   UNL     1      -9.914   9.556  70.364  1.00  0.00    -0.325 C  
HETATM    6  C   UNL     1     -10.145   7.927  72.269  1.00  0.00    -0.297 C  
HETATM    7  C   UNL     1      -9.284   8.323  71.052  1.00  0.00    -0.191 C  
HETATM    8  C   UNL     1      -9.277   7.111  70.100  1.00  0.00    -0.155 C  
HETATM    9  C   UNL     1      -7.860   8.666  71.555  1.00  0.00    -0.163 C  
ENDROOT
BRANCH   4  10
HETATM   10  O   UNL     1      -9.677  11.317  68.731  1.00  0.00    -0.205 OA 
BRANCH  10  11
HETATM   11  C   UNL     1      -9.938  11.252  67.392  1.00  0.00    -0.182 C  
HETATM   12  O   UNL     1     -10.720  10.468  66.860  1.00  0.00    -0.253 OA 
BRANCH  11  13
HETATM   13  C   UNL     1      -9.121  12.281  66.604  1.00  0.00    -0.203 C  
HETATM   14  O   UNL     1      -9.199  12.025  65.198  1.00  0.00    -0.429 OA 
HETATM   15  H   UNL     1      -8.692  12.663  64.709  1.00  0.00     0.000 HD 
BRANCH  13  16
HETATM   16  C   UNL     1      -9.586  13.702  66.838  1.00  0.00    -0.262 A  
HETATM   17  C   UNL     1     -10.958  13.993  66.891  1.00  0.00    -0.301 A  
HETATM   18  C   UNL     1     -11.400  15.292  67.147  1.00  0.00    -0.247 A  
HETATM   19  C   UNL     1     -10.477  16.315  67.357  1.00  0.00    -0.304 A  
HETATM   20  C   UNL     1      -9.112  16.042  67.306  1.00  0.00    -0.217 A  
HETATM   21  C   UNL     1      -8.668  14.744  67.048  1.00  0.00    -0.258 A  
ENDBRANCH  13  16
ENDBRANCH  11  13
ENDBRANCH  10  11
ENDBRANCH   4  10
TORSDOF 4
ENDMDL
MODEL      222
REMARK 921   NORMALIZED FREE ENERGY PREDICTED BY IDOCK:   -3.44 KCAL/MOL
REMARK 922        TOTAL FREE ENERGY PREDICTED BY IDOCK:   -4.80 KCAL/MOL
REMARK 923 INTER-LIGAND FREE ENERGY PREDICTED BY IDOCK:   -4.30 KCAL/MOL
REMARK 924 INTRA-LIGAND FREE ENERGY PREDICTED BY IDOCK:   -0.51 KCAL/MOL
REMARK 927      BINDING AFFINITY PREDICTED BY RF-SCORE:    0.00 PKD
ROOT
HETATM    1  C   UNL     1      -9.747   5.056  69.249  1.00  0.00    -0.249 C  
HETATM    2  C   UNL     1      -8.970   5.954  70.214  1.00  0.00    -0.152 C  
HETATM    3  C   UNL     1      -8.554   7.273  69.554  1.00  0.00    -0.134 C  
HETATM    4  C   UNL     1      -9.713   8.272  69.441  1.00  0.00    -0.177 C  
HETATM    5  C   UNL     1     -10.295   8.557  70.832  1.00  0.00    -0.245 C  
HETATM    6  C   UNL     1     -11.152   7.625  73.008  1.00  0.00    -0.437 C  
HETATM    7  C   UNL     1     -10.805   7.283  71.543  1.00  0.00    -0.248 C  
HETATM    8  C   UNL     1     -12.103   6.774  70.887  1.00  0.00    -0.421 C  
HETATM    9  C   UNL     1      -9.699   6.198  71.547  1.00  0.00    -0.182 C  
ENDROOT
BRANCH   4  10
HETATM   10  O   UNL     1      -9.240   9.515  68.884  1.00  0.00    -0.140 OA 
BRANCH  10  11
HETATM   11  C   UNL     1     -10.043  10.062  67.923  1.00  0.00    -0.169 C  
HETATM   12  O   UNL     1     -11.239   9.820  67.777  1.00  0.00    -0.184 OA 
BRANCH  11  13
HETATM   13  C   UNL     1      -9.268  11.024  67.016  1.00  0.00    -0.153 C  
HETATM   14  O   UNL     1      -7.994  11.345  67.584  1.00  0.00    -0.115 OA 
HETATM   15  H   UNL     1      -7.514  11.942  67.023  1.00  0.00     0.000 HD 
BRANCH  13  16
HETATM   16  C   UNL     1      -9.024  10.457  65.634  1.00  0.00    -0.198 A  
HETATM   17  C   UNL     1      -8.427   9.195  65.487  1.00  0.00    -0.160 A  
HETATM   18  C   UNL     1      -8.235   8.644  64.219  1.00  0.00    -0.160 A  
HETATM   19  C   UNL     1      -8.638   9.345  63.084  1.00  0.00    -0.222 A  
HETATM   20  C   UNL     1      -9.230  10.598  63.214  1.00  0.00    -0.295 A  
HETATM   21  C   UNL     1      -9.422  11.153  64.481  1.00  0.00    -0.254 A  
ENDBRANCH  13  16
ENDBRANCH  11  13
ENDBRANCH  10  11
ENDBRANCH   4  10
TORSDOF 4
ENDMDL
MODEL      223
REMARK 921   NORMALIZED FREE ENERGY PREDICTED BY IDOCK:   -3.43 KCAL/MOL
REMARK 922        TOTAL FREE ENERGY PREDICTED BY IDOCK:   -4.79 KCAL/MOL
REMARK 923 INTER-LIGAND FREE ENERGY PREDICTED BY IDOCK:   -4.17 KCAL/MOL
REMARK 924 INTRA-LIGAND FREE ENERGY PREDICTED BY IDOCK:   -0.62 KCAL/MOL
REMARK 927      BINDING AFFINITY PREDICTED BY RF-SCORE:    0.00 PKD
ROOT
HETATM    1  C   UNL     1      -6.168   8.070  69.563  1.00  0.00    -0.034 C  
HETATM    2  C   UNL     1      -6.707   9.164  70.488  1.00  0.00    -0.069 C  
HETATM    3  C   UNL     1      -7.759  10.032  69.790  1.00  0.00    -0.173 C  
HETATM    4  C   UNL     1      -9.126   9.343  69.688  1.00  0.00    -0.181 C  
HETATM    5  C   UNL     1      -9.625   8.961  71.087  1.00  0.00    -0.342 C  
HETATM    6  C   UNL     1      -9.113   7.884  73.304  1.00  0.00    -0.341 C  
HETATM    7  C   UNL     1      -8.651   8.024  71.838  1.00  0.00    -0.180 C  
HETATM    8  C   UNL     1      -8.674   6.610  71.228  1.00  0.00    -0.129 C  
HETATM    9  C   UNL     1      -7.225   8.629  71.835  1.00  0.00    -0.092 C  
ENDROOT
BRANCH   4  10
HETATM   10  O   UNL     1     -10.087  10.238  69.092  1.00  0.00    -0.195 OA 
BRANCH  10  11
HETATM   11  C   UNL     1     -10.463   9.919  67.818  1.00  0.00    -0.242 C  
HETATM   12  O   UNL     1     -10.815   8.804  67.441  1.00  0.00    -0.213 OA 
BRANCH  11  13
HETATM   13  C   UNL     1     -10.386  11.131  66.884  1.00  0.00    -0.231 C  
HETATM   14  O   UNL     1      -9.700  12.218  67.514  1.00  0.00    -0.185 OA 
HETATM   15  H   UNL     1      -9.652  12.969  66.935  1.00  0.00     0.000 HD 
BRANCH  13  16
HETATM   16  C   UNL     1      -9.668  10.825  65.587  1.00  0.00    -0.287 A  
HETATM   17  C   UNL     1     -10.341  10.954  64.362  1.00  0.00    -0.430 A  
HETATM   18  C   UNL     1      -9.678  10.716  63.158  1.00  0.00    -0.375 A  
HETATM   19  C   UNL     1      -8.334  10.347  63.162  1.00  0.00    -0.167 A  
HETATM   20  C   UNL     1      -7.652  10.213  64.368  1.00  0.00    -0.130 A  
HETATM   21  C   UNL     1      -8.314  10.449  65.575  1.00  0.00    -0.168 A  
ENDBRANCH  13  16
ENDBRANCH  11  13
ENDBRANCH  10  11
ENDBRANCH   4  10
TORSDOF 4
ENDMDL
MODEL      224
REMARK 921   NORMALIZED FREE ENERGY PREDICTED BY IDOCK:   -3.42 KCAL/MOL
REMARK 922        TOTAL FREE ENERGY PREDICTED BY IDOCK:   -4.78 KCAL/MOL
REMARK 923 INTER-LIGAND FREE ENERGY PREDICTED BY IDOCK:   -4.38 KCAL/MOL
REMARK 924 INTRA-LIGAND FREE ENERGY PREDICTED BY IDOCK:   -0.39 KCAL/MOL
REMARK 927      BINDING AFFINITY PREDICTED BY RF-SCORE:    0.00 PKD
ROOT
HETATM    1  C   UNL     1     -11.231   6.257  70.373  1.00  0.00    -0.439 C  
HETATM    2  C   UNL     1     -10.833   5.825  68.960  1.00  0.00    -0.330 C  
HETATM    3  C   UNL     1     -11.074   6.939  67.935  1.00  0.00    -0.200 C  
HETATM    4  C   UNL     1     -10.000   8.032  67.982  1.00  0.00    -0.179 C  
HETATM    5  C   UNL     1      -8.615   7.415  67.750  1.00  0.00    -0.120 C  
HETATM    6  C   UNL     1      -6.969   5.606  68.345  1.00  0.00    -0.065 C  
HETATM    7  C   UNL     1      -8.260   6.326  68.788  1.00  0.00    -0.120 C  
HETATM    8  C   UNL     1      -7.968   6.956  70.163  1.00  0.00    -0.115 C  
HETATM    9  C   UNL     1      -9.398   5.277  68.866  1.00  0.00    -0.163 C  
ENDROOT
BRANCH   4  10
HETATM   10  O   UNL     1     -10.242   9.007  66.947  1.00  0.00    -0.238 OA 
BRANCH  10  11
HETATM   11  C   UNL     1     -10.090  10.309  67.330  1.00  0.00    -0.202 C  
HETATM   12  O   UNL     1      -9.947  10.695  68.488  1.00  0.00    -0.155 OA 
BRANCH  11  13
HETATM   13  C   UNL     1     -10.130  11.262  66.131  1.00  0.00    -0.236 C  
HETATM   14  O   UNL     1     -11.087  10.822  65.161  1.00  0.00     0.020 OA 
HETATM   15  H   UNL     1     -11.112  11.412  64.418  1.00  0.00     0.000 HD 
BRANCH  13  16
HETATM   16  C   UNL     1     -10.491  12.679  66.521  1.00  0.00    -0.264 A  
HETATM   17  C   UNL     1     -11.836  13.040  66.695  1.00  0.00    -0.455 A  
HETATM   18  C   UNL     1     -12.179  14.332  67.094  1.00  0.00    -0.312 A  
HETATM   19  C   UNL     1     -11.183  15.279  67.327  1.00  0.00    -0.306 A  
HETATM   20  C   UNL     1      -9.844  14.937  67.156  1.00  0.00    -0.231 A  
HETATM   21  C   UNL     1      -9.498  13.645  66.755  1.00  0.00    -0.275 A  
ENDBRANCH  13  16
ENDBRANCH  11  13
ENDBRANCH  10  11
ENDBRANCH   4  10
TORSDOF 4
ENDMDL
MODEL      225
REMARK 921   NORMALIZED FREE ENERGY PREDICTED BY IDOCK:   -3.41 KCAL/MOL
REMARK 922        TOTAL FREE ENERGY PREDICTED BY IDOCK:   -4.76 KCAL/MOL
REMARK 923 INTER-LIGAND FREE ENERGY PREDICTED BY IDOCK:   -4.84 KCAL/MOL
REMARK 924 INTRA-LIGAND FREE ENERGY PREDICTED BY IDOCK:    0.08 KCAL/MOL
REMARK 927      BINDING AFFINITY PREDICTED BY RF-SCORE:    0.00 PKD
ROOT
HETATM    1  C   UNL     1      -7.966   3.119  69.741  1.00  0.00    -0.055 C  
HETATM    2  C   UNL     1      -9.253   3.834  69.323  1.00  0.00    -0.228 C  
HETATM    3  C   UNL     1      -9.192   5.337  69.621  1.00  0.00    -0.159 C  
HETATM    4  C   UNL     1      -8.345   6.110  68.603  1.00  0.00    -0.114 C  
HETATM    5  C   UNL     1      -8.898   5.892  67.189  1.00  0.00    -0.107 C  
HETATM    6  C   UNL     1      -9.706   4.257  65.454  1.00  0.00    -0.204 C  
HETATM    7  C   UNL     1      -8.929   4.401  66.779  1.00  0.00    -0.119 C  
HETATM    8  C   UNL     1      -7.503   3.878  66.517  1.00  0.00    -0.083 C  
HETATM    9  C   UNL     1      -9.657   3.568  67.862  1.00  0.00    -0.177 C  
ENDROOT
BRANCH   4  10
HETATM   10  O   UNL     1      -8.391   7.522  68.895  1.00  0.00    -0.127 OA 
BRANCH  10  11
HETATM   11  C   UNL     1      -9.613   7.995  69.279  1.00  0.00    -0.157 C  
HETATM   12  O   UNL     1     -10.650   7.892  68.628  1.00  0.00    -0.190 OA 
BRANCH  11  13
HETATM   13  C   UNL     1      -9.547   8.698  70.639  1.00  0.00    -0.186 C  
HETATM   14  O   UNL     1      -8.675   9.832  70.585  1.00  0.00    -0.316 OA 
HETATM   15  H   UNL     1      -8.634  10.268  71.428  1.00  0.00     0.000 HD 
BRANCH  13  16
HETATM   16  C   UNL     1     -10.901   9.182  71.114  1.00  0.00    -0.381 A  
HETATM   17  C   UNL     1     -11.397  10.421  70.679  1.00  0.00    -0.411 A  
HETATM   18  C   UNL     1     -12.661  10.860  71.076  1.00  0.00    -0.517 A  
HETATM   19  C   UNL     1     -13.445  10.066  71.911  1.00  0.00    -0.449 A  
HETATM   20  C   UNL     1     -12.966   8.835  72.352  1.00  0.00    -0.442 A  
HETATM   21  C   UNL     1     -11.701   8.395  71.957  1.00  0.00    -0.417 A  
ENDBRANCH  13  16
ENDBRANCH  11  13
ENDBRANCH  10  11
ENDBRANCH   4  10
TORSDOF 4
ENDMDL
MODEL      226
REMARK 921   NORMALIZED FREE ENERGY PREDICTED BY IDOCK:   -3.39 KCAL/MOL
REMARK 922        TOTAL FREE ENERGY PREDICTED BY IDOCK:   -4.74 KCAL/MOL
REMARK 923 INTER-LIGAND FREE ENERGY PREDICTED BY IDOCK:   -4.20 KCAL/MOL
REMARK 924 INTRA-LIGAND FREE ENERGY PREDICTED BY IDOCK:   -0.54 KCAL/MOL
REMARK 927      BINDING AFFINITY PREDICTED BY RF-SCORE:    0.00 PKD
ROOT
HETATM    1  C   UNL     1     -10.784  10.514  69.762  1.00  0.00    -0.314 C  
HETATM    2  C   UNL     1     -10.404   9.041  69.926  1.00  0.00    -0.219 C  
HETATM    3  C   UNL     1      -9.347   8.845  71.020  1.00  0.00    -0.313 C  
HETATM    4  C   UNL     1      -9.935   8.927  72.434  1.00  0.00     0.002 C  
HETATM    5  C   UNL     1     -11.044   7.882  72.602  1.00  0.00    -0.447 C  
HETATM    6  C   UNL     1     -13.133   6.833  71.668  1.00  0.00    -0.258 C  
HETATM    7  C   UNL     1     -12.190   8.051  71.578  1.00  0.00    -0.328 C  
HETATM    8  C   UNL     1     -13.038   9.295  71.909  1.00  0.00    -0.490 C  
HETATM    9  C   UNL     1     -11.613   8.115  70.142  1.00  0.00     0.095 C  
ENDROOT
BRANCH   4  10
HETATM   10  O   UNL     1      -8.908   8.660  73.411  1.00  0.00    -0.297 OA 
BRANCH  10  11
HETATM   11  C   UNL     1      -7.702   8.277  72.894  1.00  0.00    -0.117 C  
HETATM   12  O   UNL     1      -6.921   9.013  72.297  1.00  0.00    -0.314 OA 
BRANCH  11  13
HETATM   13  C   UNL     1      -7.429   6.789  73.137  1.00  0.00    -0.082 C  
HETATM   14  O   UNL     1      -7.764   6.420  74.479  1.00  0.00    -0.102 OA 
HETATM   15  H   UNL     1      -7.595   5.498  74.629  1.00  0.00     0.000 HD 
BRANCH  13  16
HETATM   16  C   UNL     1      -8.213   5.890  72.204  1.00  0.00    -0.108 A  
HETATM   17  C   UNL     1      -9.239   5.078  72.709  1.00  0.00    -0.144 A  
HETATM   18  C   UNL     1      -9.997   4.276  71.854  1.00  0.00    -0.255 A  
HETATM   19  C   UNL     1      -9.739   4.278  70.485  1.00  0.00    -0.282 A  
HETATM   20  C   UNL     1      -8.722   5.077  69.968  1.00  0.00    -0.119 A  
HETATM   21  C   UNL     1      -7.962   5.879  70.822  1.00  0.00    -0.114 A  
ENDBRANCH  13  16
ENDBRANCH  11  13
ENDBRANCH  10  11
ENDBRANCH   4  10
TORSDOF 4
ENDMDL
MODEL      227
REMARK 921   NORMALIZED FREE ENERGY PREDICTED BY IDOCK:   -3.39 KCAL/MOL
REMARK 922        TOTAL FREE ENERGY PREDICTED BY IDOCK:   -4.74 KCAL/MOL
REMARK 923 INTER-LIGAND FREE ENERGY PREDICTED BY IDOCK:   -4.71 KCAL/MOL
REMARK 924 INTRA-LIGAND FREE ENERGY PREDICTED BY IDOCK:   -0.02 KCAL/MOL
REMARK 927      BINDING AFFINITY PREDICTED BY RF-SCORE:    0.00 PKD
ROOT
HETATM    1  C   UNL     1     -12.701  12.755  64.539  1.00  0.00    -0.405 C  
HETATM    2  C   UNL     1     -11.215  12.720  64.176  1.00  0.00    -0.435 C  
HETATM    3  C   UNL     1     -10.494  14.002  64.607  1.00  0.00    -0.398 C  
HETATM    4  C   UNL     1     -10.200  14.040  66.112  1.00  0.00    -0.302 C  
HETATM    5  C   UNL     1      -9.360  12.821  66.512  1.00  0.00    -0.221 C  
HETATM    6  C   UNL     1      -9.045  10.326  66.394  1.00  0.00    -0.174 C  
HETATM    7  C   UNL     1     -10.048  11.479  66.175  1.00  0.00    -0.266 C  
HETATM    8  C   UNL     1     -11.235  11.221  67.123  1.00  0.00    -0.344 C  
HETATM    9  C   UNL     1     -10.486  11.466  64.689  1.00  0.00    -0.373 C  
ENDROOT
BRANCH   4  10
HETATM   10  O   UNL     1      -9.455  15.232  66.439  1.00  0.00    -0.255 OA 
BRANCH  10  11
HETATM   11  C   UNL     1      -8.489  15.068  67.390  1.00  0.00    -0.184 C  
HETATM   12  O   UNL     1      -7.452  14.425  67.244  1.00  0.00    -0.183 OA 
BRANCH  11  13
HETATM   13  C   UNL     1      -8.853  15.780  68.697  1.00  0.00    -0.199 C  
HETATM   14  O   UNL     1      -9.024  17.185  68.482  1.00  0.00    -0.251 OA 
HETATM   15  H   UNL     1      -9.249  17.627  69.291  1.00  0.00     0.000 HD 
BRANCH  13  16
HETATM   16  C   UNL     1     -10.129  15.253  69.316  1.00  0.00    -0.252 A  
HETATM   17  C   UNL     1     -11.230  16.106  69.494  1.00  0.00    -0.337 A  
HETATM   18  C   UNL     1     -12.426  15.621  70.025  1.00  0.00    -0.249 A  
HETATM   19  C   UNL     1     -12.538  14.279  70.382  1.00  0.00    -0.405 A  
HETATM   20  C   UNL     1     -11.455  13.420  70.213  1.00  0.00     0.015 A  
HETATM   21  C   UNL     1     -10.256  13.903  69.684  1.00  0.00     0.505 A  
ENDBRANCH  13  16
ENDBRANCH  11  13
ENDBRANCH  10  11
ENDBRANCH   4  10
TORSDOF 4
ENDMDL
MODEL      228
REMARK 921   NORMALIZED FREE ENERGY PREDICTED BY IDOCK:   -3.37 KCAL/MOL
REMARK 922        TOTAL FREE ENERGY PREDICTED BY IDOCK:   -4.71 KCAL/MOL
REMARK 923 INTER-LIGAND FREE ENERGY PREDICTED BY IDOCK:   -4.59 KCAL/MOL
REMARK 924 INTRA-LIGAND FREE ENERGY PREDICTED BY IDOCK:   -0.12 KCAL/MOL
REMARK 927      BINDING AFFINITY PREDICTED BY RF-SCORE:    0.00 PKD
ROOT
HETATM    1  C   UNL     1      -6.490   9.587  68.434  1.00  0.00    -0.053 C  
HETATM    2  C   UNL     1      -8.018   9.547  68.352  1.00  0.00    -0.093 C  
HETATM    3  C   UNL     1      -8.649  10.848  68.864  1.00  0.00    -0.143 C  
HETATM    4  C   UNL     1      -8.552  11.994  67.850  1.00  0.00    -0.165 C  
HETATM    5  C   UNL     1      -9.221  11.585  66.531  1.00  0.00    -0.203 C  
HETATM    6  C   UNL     1      -9.470   9.850  64.725  1.00  0.00    -0.356 C  
HETATM    7  C   UNL     1      -8.596  10.316  65.908  1.00  0.00    -0.160 C  
HETATM    8  C   UNL     1      -7.199  10.622  65.334  1.00  0.00    -0.012 C  
HETATM    9  C   UNL     1      -8.549   9.177  66.957  1.00  0.00    -0.127 C  
ENDROOT
BRANCH   4  10
HETATM   10  O   UNL     1      -9.228  13.162  68.359  1.00  0.00    -0.198 OA 
BRANCH  10  11
HETATM   11  C   UNL     1     -10.560  12.995  68.613  1.00  0.00    -0.236 C  
HETATM   12  O   UNL     1     -11.059  12.016  69.162  1.00  0.00    -0.232 OA 
BRANCH  11  13
HETATM   13  C   UNL     1     -11.386  14.186  68.115  1.00  0.00    -0.290 C  
HETATM   14  O   UNL     1     -10.710  15.421  68.377  1.00  0.00    -0.242 OA 
HETATM   15  H   UNL     1     -11.222  16.159  68.069  1.00  0.00     0.000 HD 
BRANCH  13  16
HETATM   16  C   UNL     1     -11.667  14.123  66.629  1.00  0.00    -0.422 A  
HETATM   17  C   UNL     1     -11.112  15.082  65.767  1.00  0.00    -0.346 A  
HETATM   18  C   UNL     1     -11.330  15.011  64.391  1.00  0.00    -0.207 A  
HETATM   19  C   UNL     1     -12.102  13.980  63.858  1.00  0.00    -0.350 A  
HETATM   20  C   UNL     1     -12.661  13.022  64.700  1.00  0.00    -0.425 A  
HETATM   21  C   UNL     1     -12.446  13.092  66.078  1.00  0.00    -0.330 A  
ENDBRANCH  13  16
ENDBRANCH  11  13
ENDBRANCH  10  11
ENDBRANCH   4  10
TORSDOF 4
ENDMDL
MODEL      229
REMARK 921   NORMALIZED FREE ENERGY PREDICTED BY IDOCK:   -3.37 KCAL/MOL
REMARK 922        TOTAL FREE ENERGY PREDICTED BY IDOCK:   -4.71 KCAL/MOL
REMARK 923 INTER-LIGAND FREE ENERGY PREDICTED BY IDOCK:   -4.76 KCAL/MOL
REMARK 924 INTRA-LIGAND FREE ENERGY PREDICTED BY IDOCK:    0.04 KCAL/MOL
REMARK 927      BINDING AFFINITY PREDICTED BY RF-SCORE:    0.00 PKD
ROOT
HETATM    1  C   UNL     1      -6.318   7.373  72.612  1.00  0.00    -0.055 C  
HETATM    2  C   UNL     1      -7.413   8.277  72.041  1.00  0.00    -0.124 C  
HETATM    3  C   UNL     1      -7.634   8.026  70.545  1.00  0.00    -0.076 C  
HETATM    4  C   UNL     1      -8.441   6.751  70.270  1.00  0.00    -0.135 C  
HETATM    5  C   UNL     1      -9.797   6.826  70.982  1.00  0.00    -0.192 C  
HETATM    6  C   UNL     1     -11.057   7.307  73.108  1.00  0.00    -0.336 C  
HETATM    7  C   UNL     1      -9.665   7.009  72.511  1.00  0.00    -0.170 C  
HETATM    8  C   UNL     1      -9.165   5.712  73.175  1.00  0.00    -0.132 C  
HETATM    9  C   UNL     1      -8.736   8.209  72.823  1.00  0.00    -0.281 C  
ENDROOT
BRANCH   4  10
HETATM   10  O   UNL     1      -8.679   6.613  68.854  1.00  0.00    -0.128 OA 
BRANCH  10  11
HETATM   11  C   UNL     1      -9.896   7.062  68.424  1.00  0.00    -0.146 C  
HETATM   12  O   UNL     1     -10.966   6.484  68.598  1.00  0.00    -0.278 OA 
BRANCH  11  13
HETATM   13  C   UNL     1      -9.777   8.392  67.672  1.00  0.00    -0.160 C  
HETATM   14  O   UNL     1     -10.304   8.277  66.346  1.00  0.00    -0.440 OA 
HETATM   15  H   UNL     1     -10.230   9.101  65.880  1.00  0.00     0.000 HD 
BRANCH  13  16
HETATM   16  C   UNL     1     -10.511   9.522  68.362  1.00  0.00    -0.261 A  
HETATM   17  C   UNL     1     -11.041  10.580  67.606  1.00  0.00    -0.375 A  
HETATM   18  C   UNL     1     -11.756  11.606  68.226  1.00  0.00    -0.374 A  
HETATM   19  C   UNL     1     -11.952  11.587  69.605  1.00  0.00    -0.407 A  
HETATM   20  C   UNL     1     -11.431  10.545  70.368  1.00  0.00    -0.427 A  
HETATM   21  C   UNL     1     -10.714   9.518  69.751  1.00  0.00    -0.259 A  
ENDBRANCH  13  16
ENDBRANCH  11  13
ENDBRANCH  10  11
ENDBRANCH   4  10
TORSDOF 4
ENDMDL
MODEL      230
REMARK 921   NORMALIZED FREE ENERGY PREDICTED BY IDOCK:   -3.37 KCAL/MOL
REMARK 922        TOTAL FREE ENERGY PREDICTED BY IDOCK:   -4.71 KCAL/MOL
REMARK 923 INTER-LIGAND FREE ENERGY PREDICTED BY IDOCK:   -4.23 KCAL/MOL
REMARK 924 INTRA-LIGAND FREE ENERGY PREDICTED BY IDOCK:   -0.48 KCAL/MOL
REMARK 927      BINDING AFFINITY PREDICTED BY RF-SCORE:    0.00 PKD
ROOT
HETATM    1  C   UNL     1     -10.160   5.531  68.608  1.00  0.00    -0.246 C  
HETATM    2  C   UNL     1     -10.667   6.030  67.253  1.00  0.00    -0.400 C  
HETATM    3  C   UNL     1     -10.574   7.556  67.138  1.00  0.00    -0.415 C  
HETATM    4  C   UNL     1      -9.146   8.045  66.866  1.00  0.00    -0.152 C  
HETATM    5  C   UNL     1      -8.608   7.402  65.582  1.00  0.00    -0.128 C  
HETATM    6  C   UNL     1      -8.271   5.299  64.239  1.00  0.00    -0.132 C  
HETATM    7  C   UNL     1      -8.601   5.857  65.640  1.00  0.00    -0.155 C  
HETATM    8  C   UNL     1      -7.499   5.351  66.590  1.00  0.00    -0.087 C  
HETATM    9  C   UNL     1     -10.000   5.335  66.053  1.00  0.00    -0.152 C  
ENDROOT
BRANCH   4  10
HETATM   10  O   UNL     1      -9.139   9.477  66.694  1.00  0.00    -0.142 OA 
BRANCH  10  11
HETATM   11  C   UNL     1      -8.205  10.145  67.434  1.00  0.00    -0.114 C  
HETATM   12  O   UNL     1      -7.014   9.852  67.504  1.00  0.00    -0.081 OA 
BRANCH  11  13
HETATM   13  C   UNL     1      -8.822  11.322  68.197  1.00  0.00    -0.159 C  
HETATM   14  O   UNL     1      -7.811  12.245  68.617  1.00  0.00    -0.193 OA 
HETATM   15  H   UNL     1      -8.194  12.974  69.089  1.00  0.00     0.000 HD 
BRANCH  13  16
HETATM   16  C   UNL     1      -9.830  12.092  67.370  1.00  0.00    -0.191 A  
HETATM   17  C   UNL     1      -9.393  12.960  66.357  1.00  0.00    -0.192 A  
HETATM   18  C   UNL     1     -10.314  13.643  65.561  1.00  0.00    -0.319 A  
HETATM   19  C   UNL     1     -11.681  13.466  65.765  1.00  0.00    -0.380 A  
HETATM   20  C   UNL     1     -12.130  12.610  66.767  1.00  0.00    -0.236 A  
HETATM   21  C   UNL     1     -11.211  11.926  67.566  1.00  0.00    -0.359 A  
ENDBRANCH  13  16
ENDBRANCH  11  13
ENDBRANCH  10  11
ENDBRANCH   4  10
TORSDOF 4
ENDMDL
MODEL      231
REMARK 921   NORMALIZED FREE ENERGY PREDICTED BY IDOCK:   -3.36 KCAL/MOL
REMARK 922        TOTAL FREE ENERGY PREDICTED BY IDOCK:   -4.69 KCAL/MOL
REMARK 923 INTER-LIGAND FREE ENERGY PREDICTED BY IDOCK:   -4.43 KCAL/MOL
REMARK 924 INTRA-LIGAND FREE ENERGY PREDICTED BY IDOCK:   -0.27 KCAL/MOL
REMARK 927      BINDING AFFINITY PREDICTED BY RF-SCORE:    0.00 PKD
ROOT
HETATM    1  C   UNL     1      -7.487   8.939  65.979  1.00  0.00    -0.090 C  
HETATM    2  C   UNL     1      -8.972   8.842  65.621  1.00  0.00    -0.248 C  
HETATM    3  C   UNL     1      -9.665   7.702  66.377  1.00  0.00    -0.197 C  
HETATM    4  C   UNL     1      -9.965   8.056  67.839  1.00  0.00    -0.180 C  
HETATM    5  C   UNL     1     -10.836   9.317  67.905  1.00  0.00    -0.181 C  
HETATM    6  C   UNL     1     -11.207  11.684  67.132  1.00  0.00    -0.371 C  
HETATM    7  C   UNL     1     -10.177  10.539  67.224  1.00  0.00    -0.260 C  
HETATM    8  C   UNL     1      -9.001  11.066  68.068  1.00  0.00    -0.145 C  
HETATM    9  C   UNL     1      -9.732  10.169  65.787  1.00  0.00    -0.307 C  
ENDROOT
BRANCH   4  10
HETATM   10  O   UNL     1     -10.683   6.976  68.471  1.00  0.00    -0.208 OA 
BRANCH  10  11
HETATM   11  C   UNL     1      -9.910   5.927  68.879  1.00  0.00    -0.145 C  
HETATM   12  O   UNL     1      -8.929   5.493  68.280  1.00  0.00    -0.108 OA 
BRANCH  11  13
HETATM   13  C   UNL     1     -10.418   5.326  70.194  1.00  0.00    -0.268 C  
HETATM   14  O   UNL     1      -9.864   4.023  70.408  1.00  0.00    -0.198 OA 
HETATM   15  H   UNL     1     -10.180   3.651  71.222  1.00  0.00     0.000 HD 
BRANCH  13  16
HETATM   16  C   UNL     1     -10.071   6.175  71.399  1.00  0.00    -0.230 A  
HETATM   17  C   UNL     1     -11.082   6.856  72.094  1.00  0.00    -0.277 A  
HETATM   18  C   UNL     1     -10.780   7.608  73.230  1.00  0.00    -0.409 A  
HETATM   19  C   UNL     1      -9.466   7.687  73.687  1.00  0.00    -0.340 A  
HETATM   20  C   UNL     1      -8.452   7.018  73.007  1.00  0.00    -0.131 A  
HETATM   21  C   UNL     1      -8.750   6.267  71.869  1.00  0.00    -0.136 A  
ENDBRANCH  13  16
ENDBRANCH  11  13
ENDBRANCH  10  11
ENDBRANCH   4  10
TORSDOF 4
ENDMDL
MODEL      232
REMARK 921   NORMALIZED FREE ENERGY PREDICTED BY IDOCK:   -3.35 KCAL/MOL
REMARK 922        TOTAL FREE ENERGY PREDICTED BY IDOCK:   -4.69 KCAL/MOL
REMARK 923 INTER-LIGAND FREE ENERGY PREDICTED BY IDOCK:   -5.43 KCAL/MOL
REMARK 924 INTRA-LIGAND FREE ENERGY PREDICTED BY IDOCK:    0.74 KCAL/MOL
REMARK 927      BINDING AFFINITY PREDICTED BY RF-SCORE:    0.00 PKD
ROOT
HETATM    1  C   UNL     1      -8.766   9.498  66.488  1.00  0.00    -0.147 C  
HETATM    2  C   UNL     1      -8.257   8.927  67.813  1.00  0.00    -0.110 C  
HETATM    3  C   UNL     1      -8.928   9.600  69.017  1.00  0.00    -0.148 C  
HETATM    4  C   UNL     1     -10.354   9.092  69.262  1.00  0.00    -0.219 C  
HETATM    5  C   UNL     1     -10.341   7.572  69.467  1.00  0.00    -0.216 C  
HETATM    6  C   UNL     1      -9.554   5.325  68.649  1.00  0.00    -0.183 C  
HETATM    7  C   UNL     1      -9.742   6.808  68.264  1.00  0.00    -0.126 C  
HETATM    8  C   UNL     1     -10.707   6.836  67.064  1.00  0.00    -0.435 C  
HETATM    9  C   UNL     1      -8.355   7.394  67.901  1.00  0.00    -0.119 C  
ENDROOT
BRANCH   4  10
HETATM   10  O   UNL     1     -10.899   9.705  70.448  1.00  0.00    -0.248 OA 
BRANCH  10  11
HETATM   11  C   UNL     1     -11.731  10.765  70.223  1.00  0.00    -0.352 C  
HETATM   12  O   UNL     1     -12.626  11.137  70.977  1.00  0.00    -0.365 OA 
BRANCH  11  13
HETATM   13  C   UNL     1     -11.427  11.450  68.886  1.00  0.00    -0.298 C  
HETATM   14  O   UNL     1     -12.357  11.038  67.878  1.00  0.00    -0.421 OA 
HETATM   15  H   UNL     1     -12.168  11.463  67.050  1.00  0.00     0.000 HD 
BRANCH  13  16
HETATM   16  C   UNL     1     -11.485  12.960  68.975  1.00  0.00    -0.358 A  
HETATM   17  C   UNL     1     -12.129  13.576  70.060  1.00  0.00    -0.411 A  
HETATM   18  C   UNL     1     -12.153  14.967  70.175  1.00  0.00    -0.379 A  
HETATM   19  C   UNL     1     -11.534  15.758  69.210  1.00  0.00    -0.368 A  
HETATM   20  C   UNL     1     -10.894  15.162  68.126  1.00  0.00    -0.266 A  
HETATM   21  C   UNL     1     -10.869  13.771  68.008  1.00  0.00    -0.263 A  
ENDBRANCH  13  16
ENDBRANCH  11  13
ENDBRANCH  10  11
ENDBRANCH   4  10
TORSDOF 4
ENDMDL
MODEL      233
REMARK 921   NORMALIZED FREE ENERGY PREDICTED BY IDOCK:   -3.33 KCAL/MOL
REMARK 922        TOTAL FREE ENERGY PREDICTED BY IDOCK:   -4.67 KCAL/MOL
REMARK 923 INTER-LIGAND FREE ENERGY PREDICTED BY IDOCK:   -4.05 KCAL/MOL
REMARK 924 INTRA-LIGAND FREE ENERGY PREDICTED BY IDOCK:   -0.62 KCAL/MOL
REMARK 927      BINDING AFFINITY PREDICTED BY RF-SCORE:    0.00 PKD
ROOT
HETATM    1  C   UNL     1      -7.189   6.792  67.895  1.00  0.00    -0.091 C  
HETATM    2  C   UNL     1      -7.173   6.666  69.420  1.00  0.00    -0.090 C  
HETATM    3  C   UNL     1      -7.679   7.943  70.102  1.00  0.00    -0.088 C  
HETATM    4  C   UNL     1      -9.206   8.075  70.055  1.00  0.00    -0.156 C  
HETATM    5  C   UNL     1      -9.857   6.852  70.713  1.00  0.00    -0.190 C  
HETATM    6  C   UNL     1      -9.961   4.343  70.899  1.00  0.00    -0.242 C  
HETATM    7  C   UNL     1      -9.454   5.520  70.039  1.00  0.00    -0.205 C  
HETATM    8  C   UNL     1     -10.123   5.382  68.658  1.00  0.00    -0.246 C  
HETATM    9  C   UNL     1      -7.911   5.421  69.942  1.00  0.00    -0.081 C  
ENDROOT
BRANCH   4  10
HETATM   10  O   UNL     1      -9.622   9.253  70.777  1.00  0.00    -0.245 OA 
BRANCH  10  11
HETATM   11  C   UNL     1     -10.598   9.990  70.169  1.00  0.00    -0.296 C  
HETATM   12  O   UNL     1     -11.539  10.532  70.743  1.00  0.00    -0.333 OA 
BRANCH  11  13
HETATM   13  C   UNL     1     -10.393  10.060  68.652  1.00  0.00    -0.190 C  
HETATM   14  O   UNL     1     -11.562   9.610  67.958  1.00  0.00    -0.410 OA 
HETATM   15  H   UNL     1     -11.436   9.653  67.018  1.00  0.00     0.000 HD 
BRANCH  13  16
HETATM   16  C   UNL     1     -10.082  11.460  68.166  1.00  0.00    -0.200 A  
HETATM   17  C   UNL     1      -8.989  12.161  68.698  1.00  0.00    -0.004 A  
HETATM   18  C   UNL     1      -8.667  13.436  68.229  1.00  0.00    -0.172 A  
HETATM   19  C   UNL     1      -9.431  14.024  67.223  1.00  0.00    -0.231 A  
HETATM   20  C   UNL     1     -10.521  13.341  66.687  1.00  0.00    -0.279 A  
HETATM   21  C   UNL     1     -10.846  12.067  67.156  1.00  0.00    -0.297 A  
ENDBRANCH  13  16
ENDBRANCH  11  13
ENDBRANCH  10  11
ENDBRANCH   4  10
TORSDOF 4
ENDMDL
MODEL      234
REMARK 921   NORMALIZED FREE ENERGY PREDICTED BY IDOCK:   -3.33 KCAL/MOL
REMARK 922        TOTAL FREE ENERGY PREDICTED BY IDOCK:   -4.67 KCAL/MOL
REMARK 923 INTER-LIGAND FREE ENERGY PREDICTED BY IDOCK:   -4.10 KCAL/MOL
REMARK 924 INTRA-LIGAND FREE ENERGY PREDICTED BY IDOCK:   -0.57 KCAL/MOL
REMARK 927      BINDING AFFINITY PREDICTED BY RF-SCORE:    0.00 PKD
ROOT
HETATM    1  C   UNL     1      -7.779   2.574  71.331  1.00  0.00    -0.040 C  
HETATM    2  C   UNL     1      -8.643   3.503  70.477  1.00  0.00    -0.114 C  
HETATM    3  C   UNL     1      -9.480   4.455  71.340  1.00  0.00    -0.220 C  
HETATM    4  C   UNL     1      -8.659   5.620  71.906  1.00  0.00    -0.131 C  
HETATM    5  C   UNL     1      -8.007   6.406  70.762  1.00  0.00    -0.111 C  
HETATM    6  C   UNL     1      -6.666   6.340  68.633  1.00  0.00    -0.061 C  
HETATM    7  C   UNL     1      -7.087   5.533  69.879  1.00  0.00    -0.063 C  
HETATM    8  C   UNL     1      -5.792   5.171  70.632  1.00  0.00    -0.017 C  
HETATM    9  C   UNL     1      -7.848   4.270  69.406  1.00  0.00    -0.057 C  
ENDROOT
BRANCH   4  10
HETATM   10  O   UNL     1      -9.516   6.516  72.642  1.00  0.00    -0.148 OA 
BRANCH  10  11
HETATM   11  C   UNL     1     -10.840   6.453  72.312  1.00  0.00    -0.239 C  
HETATM   12  O   UNL     1     -11.598   5.527  72.591  1.00  0.00    -0.300 OA 
BRANCH  11  13
HETATM   13  C   UNL     1     -11.287   7.689  71.524  1.00  0.00    -0.255 C  
HETATM   14  O   UNL     1     -10.610   8.862  71.987  1.00  0.00    -0.341 OA 
HETATM   15  H   UNL     1     -10.887   9.628  71.499  1.00  0.00     0.000 HD 
BRANCH  13  16
HETATM   16  C   UNL     1     -11.023   7.563  70.038  1.00  0.00    -0.252 A  
HETATM   17  C   UNL     1     -10.480   8.644  69.327  1.00  0.00    -0.226 A  
HETATM   18  C   UNL     1     -10.194   8.527  67.966  1.00  0.00    -0.264 A  
HETATM   19  C   UNL     1     -10.444   7.328  67.301  1.00  0.00    -0.380 A  
HETATM   20  C   UNL     1     -10.985   6.247  67.992  1.00  0.00    -0.418 A  
HETATM   21  C   UNL     1     -11.274   6.363  69.353  1.00  0.00    -0.459 A  
ENDBRANCH  13  16
ENDBRANCH  11  13
ENDBRANCH  10  11
ENDBRANCH   4  10
TORSDOF 4
ENDMDL
MODEL      235
REMARK 921   NORMALIZED FREE ENERGY PREDICTED BY IDOCK:   -3.32 KCAL/MOL
REMARK 922        TOTAL FREE ENERGY PREDICTED BY IDOCK:   -4.65 KCAL/MOL
REMARK 923 INTER-LIGAND FREE ENERGY PREDICTED BY IDOCK:   -4.89 KCAL/MOL
REMARK 924 INTRA-LIGAND FREE ENERGY PREDICTED BY IDOCK:    0.25 KCAL/MOL
REMARK 927      BINDING AFFINITY PREDICTED BY RF-SCORE:    0.00 PKD
ROOT
HETATM    1  C   UNL     1      -5.905   8.739  68.585  1.00  0.00    -0.044 C  
HETATM    2  C   UNL     1      -6.569   9.814  69.447  1.00  0.00    -0.049 C  
HETATM    3  C   UNL     1      -7.594  10.630  68.650  1.00  0.00    -0.103 C  
HETATM    4  C   UNL     1      -8.914   9.880  68.438  1.00  0.00    -0.120 C  
HETATM    5  C   UNL     1      -9.517   9.487  69.792  1.00  0.00    -0.228 C  
HETATM    6  C   UNL     1      -9.154   8.450  72.058  1.00  0.00    -0.296 C  
HETATM    7  C   UNL     1      -8.572   8.600  70.636  1.00  0.00    -0.183 C  
HETATM    8  C   UNL     1      -8.480   7.181  70.042  1.00  0.00    -0.140 C  
HETATM    9  C   UNL     1      -7.179   9.268  70.750  1.00  0.00    -0.126 C  
ENDROOT
BRANCH   4  10
HETATM   10  O   UNL     1      -9.858  10.727  67.750  1.00  0.00    -0.163 OA 
BRANCH  10  11
HETATM   11  C   UNL     1      -9.998  11.981  68.273  1.00  0.00    -0.203 C  
HETATM   12  O   UNL     1      -9.095  12.645  68.776  1.00  0.00    -0.009 OA 
BRANCH  11  13
HETATM   13  C   UNL     1     -11.444  12.479  68.171  1.00  0.00    -0.319 C  
HETATM   14  O   UNL     1     -12.257  11.543  67.457  1.00  0.00    -0.463 OA 
HETATM   15  H   UNL     1     -13.153  11.851  67.394  1.00  0.00     0.000 HD 
BRANCH  13  16
HETATM   16  C   UNL     1     -12.083  12.701  69.526  1.00  0.00    -0.253 A  
HETATM   17  C   UNL     1     -12.411  14.000  69.944  1.00  0.00    -0.367 A  
HETATM   18  C   UNL     1     -13.038  14.214  71.173  1.00  0.00    -0.398 A  
HETATM   19  C   UNL     1     -13.347  13.133  71.996  1.00  0.00    -0.587 A  
HETATM   20  C   UNL     1     -13.026  11.839  71.596  1.00  0.00    -0.467 A  
HETATM   21  C   UNL     1     -12.397  11.622  70.369  1.00  0.00    -0.373 A  
ENDBRANCH  13  16
ENDBRANCH  11  13
ENDBRANCH  10  11
ENDBRANCH   4  10
TORSDOF 4
ENDMDL
MODEL      236
REMARK 921   NORMALIZED FREE ENERGY PREDICTED BY IDOCK:   -3.31 KCAL/MOL
REMARK 922        TOTAL FREE ENERGY PREDICTED BY IDOCK:   -4.64 KCAL/MOL
REMARK 923 INTER-LIGAND FREE ENERGY PREDICTED BY IDOCK:   -4.63 KCAL/MOL
REMARK 924 INTRA-LIGAND FREE ENERGY PREDICTED BY IDOCK:   -0.01 KCAL/MOL
REMARK 927      BINDING AFFINITY PREDICTED BY RF-SCORE:    0.00 PKD
ROOT
HETATM    1  C   UNL     1      -9.458   2.813  71.266  1.00  0.00    -0.219 C  
HETATM    2  C   UNL     1      -8.926   4.247  71.227  1.00  0.00    -0.168 C  
HETATM    3  C   UNL     1      -9.568   5.061  70.098  1.00  0.00    -0.257 C  
HETATM    4  C   UNL     1     -10.992   5.520  70.432  1.00  0.00    -0.129 C  
HETATM    5  C   UNL     1     -10.985   6.351  71.721  1.00  0.00    -0.298 C  
HETATM    6  C   UNL     1     -10.231   6.553  74.114  1.00  0.00    -0.380 C  
HETATM    7  C   UNL     1     -10.416   5.578  72.933  1.00  0.00    -0.250 C  
HETATM    8  C   UNL     1     -11.405   4.494  73.402  1.00  0.00    -0.376 C  
HETATM    9  C   UNL     1      -9.033   4.978  72.576  1.00  0.00    -0.137 C  
ENDROOT
BRANCH   4  10
HETATM   10  O   UNL     1     -11.509   6.342  69.365  1.00  0.00    -0.401 OA 
BRANCH  10  11
HETATM   11  C   UNL     1     -10.562   6.972  68.608  1.00  0.00    -0.210 C  
HETATM   12  O   UNL     1      -9.644   7.659  69.049  1.00  0.00    -0.150 OA 
BRANCH  11  13
HETATM   13  C   UNL     1     -10.782   6.733  67.111  1.00  0.00    -0.371 C  
HETATM   14  O   UNL     1     -10.503   7.918  66.358  1.00  0.00    -0.464 OA 
HETATM   15  H   UNL     1     -10.640   7.770  65.430  1.00  0.00     0.000 HD 
BRANCH  13  16
HETATM   16  C   UNL     1      -9.911   5.624  66.561  1.00  0.00    -0.195 A  
HETATM   17  C   UNL     1      -8.513   5.715  66.656  1.00  0.00    -0.113 A  
HETATM   18  C   UNL     1      -7.701   4.681  66.190  1.00  0.00    -0.091 A  
HETATM   19  C   UNL     1      -8.273   3.543  65.626  1.00  0.00    -0.097 A  
HETATM   20  C   UNL     1      -9.658   3.438  65.522  1.00  0.00    -0.087 A  
HETATM   21  C   UNL     1     -10.474   4.472  65.986  1.00  0.00    -0.236 A  
ENDBRANCH  13  16
ENDBRANCH  11  13
ENDBRANCH  10  11
ENDBRANCH   4  10
TORSDOF 4
ENDMDL
MODEL      237
REMARK 921   NORMALIZED FREE ENERGY PREDICTED BY IDOCK:   -3.30 KCAL/MOL
REMARK 922        TOTAL FREE ENERGY PREDICTED BY IDOCK:   -4.62 KCAL/MOL
REMARK 923 INTER-LIGAND FREE ENERGY PREDICTED BY IDOCK:   -3.94 KCAL/MOL
REMARK 924 INTRA-LIGAND FREE ENERGY PREDICTED BY IDOCK:   -0.68 KCAL/MOL
REMARK 927      BINDING AFFINITY PREDICTED BY RF-SCORE:    0.00 PKD
ROOT
HETATM    1  C   UNL     1     -12.081   6.729  71.094  1.00  0.00    -0.422 C  
HETATM    2  C   UNL     1     -11.045   6.187  70.106  1.00  0.00    -0.448 C  
HETATM    3  C   UNL     1     -11.034   6.988  68.798  1.00  0.00    -0.150 C  
HETATM    4  C   UNL     1     -10.310   8.333  68.932  1.00  0.00    -0.215 C  
HETATM    5  C   UNL     1      -8.869   8.107  69.406  1.00  0.00    -0.143 C  
HETATM    6  C   UNL     1      -7.323   6.977  71.040  1.00  0.00    -0.077 C  
HETATM    7  C   UNL     1      -8.790   7.364  70.760  1.00  0.00    -0.149 C  
HETATM    8  C   UNL     1      -9.236   8.283  71.914  1.00  0.00    -0.272 C  
HETATM    9  C   UNL     1      -9.632   6.065  70.701  1.00  0.00    -0.201 C  
ENDROOT
BRANCH   4  10
HETATM   10  O   UNL     1     -10.268   9.000  67.654  1.00  0.00    -0.211 OA 
BRANCH  10  11
HETATM   11  C   UNL     1     -10.432  10.356  67.702  1.00  0.00    -0.233 C  
HETATM   12  O   UNL     1     -11.249  10.946  68.405  1.00  0.00    -0.241 OA 
BRANCH  11  13
HETATM   13  C   UNL     1      -9.471  11.077  66.751  1.00  0.00    -0.182 C  
HETATM   14  O   UNL     1     -10.191  11.898  65.825  1.00  0.00    -0.227 OA 
HETATM   15  H   UNL     1      -9.596  12.345  65.235  1.00  0.00     0.000 HD 
BRANCH  13  16
HETATM   16  C   UNL     1      -8.484  11.965  67.479  1.00  0.00    -0.161 A  
HETATM   17  C   UNL     1      -7.390  11.397  68.150  1.00  0.00    -0.092 A  
HETATM   18  C   UNL     1      -6.450  12.208  68.789  1.00  0.00    -0.078 A  
HETATM   19  C   UNL     1      -6.591  13.594  68.764  1.00  0.00    -0.101 A  
HETATM   20  C   UNL     1      -7.673  14.172  68.105  1.00  0.00    -0.140 A  
HETATM   21  C   UNL     1      -8.616  13.364  67.466  1.00  0.00    -0.200 A  
ENDBRANCH  13  16
ENDBRANCH  11  13
ENDBRANCH  10  11
ENDBRANCH   4  10
TORSDOF 4
ENDMDL
MODEL      238
REMARK 921   NORMALIZED FREE ENERGY PREDICTED BY IDOCK:   -3.29 KCAL/MOL
REMARK 922        TOTAL FREE ENERGY PREDICTED BY IDOCK:   -4.61 KCAL/MOL
REMARK 923 INTER-LIGAND FREE ENERGY PREDICTED BY IDOCK:   -4.79 KCAL/MOL
REMARK 924 INTRA-LIGAND FREE ENERGY PREDICTED BY IDOCK:    0.17 KCAL/MOL
REMARK 927      BINDING AFFINITY PREDICTED BY RF-SCORE:    0.00 PKD
ROOT
HETATM    1  C   UNL     1      -6.409   9.620  68.428  1.00  0.00    -0.051 C  
HETATM    2  C   UNL     1      -7.904   9.943  68.489  1.00  0.00    -0.081 C  
HETATM    3  C   UNL     1      -8.154  11.420  68.817  1.00  0.00    -0.112 C  
HETATM    4  C   UNL     1      -7.928  12.342  67.612  1.00  0.00    -0.161 C  
HETATM    5  C   UNL     1      -8.834  11.916  66.450  1.00  0.00    -0.152 C  
HETATM    6  C   UNL     1      -9.698  10.043  65.006  1.00  0.00    -0.386 C  
HETATM    7  C   UNL     1      -8.597  10.454  66.007  1.00  0.00    -0.158 C  
HETATM    8  C   UNL     1      -7.252  10.318  65.268  1.00  0.00    -0.134 C  
HETATM    9  C   UNL     1      -8.678   9.509  67.232  1.00  0.00    -0.132 C  
ENDROOT
BRANCH   4  10
HETATM   10  O   UNL     1      -8.252  13.703  67.964  1.00  0.00    -0.139 OA 
BRANCH  10  11
HETATM   11  C   UNL     1      -9.434  14.166  67.458  1.00  0.00    -0.210 C  
HETATM   12  O   UNL     1     -10.550  13.802  67.817  1.00  0.00    -0.242 OA 
BRANCH  11  13
HETATM   13  C   UNL     1      -9.209  15.208  66.358  1.00  0.00    -0.300 C  
HETATM   14  O   UNL     1      -9.945  14.871  65.177  1.00  0.00    -0.354 OA 
HETATM   15  H   UNL     1      -9.805  15.516  64.495  1.00  0.00     0.000 HD 
BRANCH  13  16
HETATM   16  C   UNL     1      -9.627  16.602  66.776  1.00  0.00    -0.270 A  
HETATM   17  C   UNL     1     -10.205  17.473  65.840  1.00  0.00    -0.251 A  
HETATM   18  C   UNL     1     -10.632  18.746  66.223  1.00  0.00    -0.429 A  
HETATM   19  C   UNL     1     -10.490  19.161  67.546  1.00  0.00    -0.549 A  
HETATM   20  C   UNL     1      -9.916  18.309  68.486  1.00  0.00    -0.413 A  
HETATM   21  C   UNL     1      -9.486  17.036  68.104  1.00  0.00    -0.262 A  
ENDBRANCH  13  16
ENDBRANCH  11  13
ENDBRANCH  10  11
ENDBRANCH   4  10
TORSDOF 4
ENDMDL
MODEL      239
REMARK 921   NORMALIZED FREE ENERGY PREDICTED BY IDOCK:   -3.27 KCAL/MOL
REMARK 922        TOTAL FREE ENERGY PREDICTED BY IDOCK:   -4.59 KCAL/MOL
REMARK 923 INTER-LIGAND FREE ENERGY PREDICTED BY IDOCK:   -4.06 KCAL/MOL
REMARK 924 INTRA-LIGAND FREE ENERGY PREDICTED BY IDOCK:   -0.53 KCAL/MOL
REMARK 927      BINDING AFFINITY PREDICTED BY RF-SCORE:    0.00 PKD
ROOT
HETATM    1  C   UNL     1     -12.715   7.267  71.356  1.00  0.00    -0.427 C  
HETATM    2  C   UNL     1     -11.641   6.434  70.651  1.00  0.00    -0.412 C  
HETATM    3  C   UNL     1     -10.872   7.259  69.613  1.00  0.00    -0.238 C  
HETATM    4  C   UNL     1      -9.835   8.194  70.248  1.00  0.00    -0.184 C  
HETATM    5  C   UNL     1      -8.844   7.381  71.091  1.00  0.00    -0.142 C  
HETATM    6  C   UNL     1      -8.504   5.614  72.851  1.00  0.00    -0.122 C  
HETATM    7  C   UNL     1      -9.533   6.570  72.213  1.00  0.00    -0.144 C  
HETATM    8  C   UNL     1     -10.030   7.502  73.335  1.00  0.00    -0.378 C  
HETATM    9  C   UNL     1     -10.684   5.719  71.621  1.00  0.00    -0.314 C  
ENDROOT
BRANCH   4  10
HETATM   10  O   UNL     1      -9.096   8.882  69.218  1.00  0.00    -0.142 OA 
BRANCH  10  11
HETATM   11  C   UNL     1      -9.519   8.642  67.942  1.00  0.00    -0.139 C  
HETATM   12  O   UNL     1     -10.581   9.032  67.462  1.00  0.00    -0.265 OA 
BRANCH  11  13
HETATM   13  C   UNL     1      -8.506   7.802  67.157  1.00  0.00    -0.124 C  
HETATM   14  O   UNL     1      -7.176   8.027  67.636  1.00  0.00    -0.087 OA 
HETATM   15  H   UNL     1      -6.548   7.507  67.150  1.00  0.00     0.000 HD 
BRANCH  13  16
HETATM   16  C   UNL     1      -8.781   6.316  67.251  1.00  0.00    -0.105 A  
HETATM   17  C   UNL     1      -8.086   5.529  68.183  1.00  0.00    -0.096 A  
HETATM   18  C   UNL     1      -8.360   4.166  68.307  1.00  0.00    -0.099 A  
HETATM   19  C   UNL     1      -9.332   3.574  67.504  1.00  0.00    -0.249 A  
HETATM   20  C   UNL     1     -10.029   4.340  66.573  1.00  0.00    -0.214 A  
HETATM   21  C   UNL     1      -9.756   5.703  66.446  1.00  0.00    -0.180 A  
ENDBRANCH  13  16
ENDBRANCH  11  13
ENDBRANCH  10  11
ENDBRANCH   4  10
TORSDOF 4
ENDMDL
MODEL      240
REMARK 921   NORMALIZED FREE ENERGY PREDICTED BY IDOCK:   -3.24 KCAL/MOL
REMARK 922        TOTAL FREE ENERGY PREDICTED BY IDOCK:   -4.55 KCAL/MOL
REMARK 923 INTER-LIGAND FREE ENERGY PREDICTED BY IDOCK:   -4.08 KCAL/MOL
REMARK 924 INTRA-LIGAND FREE ENERGY PREDICTED BY IDOCK:   -0.47 KCAL/MOL
REMARK 927      BINDING AFFINITY PREDICTED BY RF-SCORE:    0.00 PKD
ROOT
HETATM    1  C   UNL     1      -8.614   7.213  70.669  1.00  0.00    -0.143 C  
HETATM    2  C   UNL     1      -9.849   6.471  70.153  1.00  0.00    -0.185 C  
HETATM    3  C   UNL     1     -10.688   7.346  69.215  1.00  0.00    -0.197 C  
HETATM    4  C   UNL     1     -10.081   7.462  67.811  1.00  0.00    -0.184 C  
HETATM    5  C   UNL     1      -9.915   6.066  67.196  1.00  0.00    -0.186 C  
HETATM    6  C   UNL     1      -9.099   3.702  67.484  1.00  0.00    -0.185 C  
HETATM    7  C   UNL     1      -9.021   5.136  68.048  1.00  0.00    -0.117 C  
HETATM    8  C   UNL     1      -7.544   5.568  67.961  1.00  0.00    -0.081 C  
HETATM    9  C   UNL     1      -9.526   5.110  69.512  1.00  0.00    -0.205 C  
ENDROOT
BRANCH   4  10
HETATM   10  O   UNL     1     -10.953   8.232  66.958  1.00  0.00    -0.134 OA 
BRANCH  10  11
HETATM   11  C   UNL     1     -10.369   9.308  66.353  1.00  0.00    -0.168 C  
HETATM   12  O   UNL     1      -9.395   9.259  65.605  1.00  0.00    -0.217 OA 
BRANCH  11  13
HETATM   13  C   UNL     1     -11.070  10.618  66.726  1.00  0.00    -0.030 C  
HETATM   14  O   UNL     1     -11.844  10.461  67.920  1.00  0.00    -0.702 OA 
HETATM   15  H   UNL     1     -12.279  11.273  68.151  1.00  0.00     0.000 HD 
BRANCH  13  16
HETATM   16  C   UNL     1     -10.099  11.757  66.956  1.00  0.00    -0.232 A  
HETATM   17  C   UNL     1     -10.273  12.976  66.282  1.00  0.00    -0.291 A  
HETATM   18  C   UNL     1      -9.409  14.047  66.517  1.00  0.00    -0.274 A  
HETATM   19  C   UNL     1      -8.364  13.914  67.428  1.00  0.00    -0.208 A  
HETATM   20  C   UNL     1      -8.177  12.710  68.103  1.00  0.00    -0.170 A  
HETATM   21  C   UNL     1      -9.038  11.636  67.869  1.00  0.00    -0.171 A  
ENDBRANCH  13  16
ENDBRANCH  11  13
ENDBRANCH  10  11
ENDBRANCH   4  10
TORSDOF 4
ENDMDL
MODEL      241
REMARK 921   NORMALIZED FREE ENERGY PREDICTED BY IDOCK:   -3.20 KCAL/MOL
REMARK 922        TOTAL FREE ENERGY PREDICTED BY IDOCK:   -4.51 KCAL/MOL
REMARK 923 INTER-LIGAND FREE ENERGY PREDICTED BY IDOCK:   -3.70 KCAL/MOL
REMARK 924 INTRA-LIGAND FREE ENERGY PREDICTED BY IDOCK:   -0.81 KCAL/MOL
REMARK 927      BINDING AFFINITY PREDICTED BY RF-SCORE:    0.00 PKD
ROOT
HETATM    1  C   UNL     1     -10.874   7.764  67.648  1.00  0.00    -0.149 C  
HETATM    2  C   UNL     1      -9.948   6.565  67.431  1.00  0.00    -0.180 C  
HETATM    3  C   UNL     1      -9.150   6.691  66.128  1.00  0.00    -0.143 C  
HETATM    4  C   UNL     1      -7.975   7.671  66.244  1.00  0.00    -0.105 C  
HETATM    5  C   UNL     1      -7.039   7.234  67.377  1.00  0.00    -0.088 C  
HETATM    6  C   UNL     1      -6.804   6.484  69.769  1.00  0.00    -0.058 C  
HETATM    7  C   UNL     1      -7.750   7.148  68.747  1.00  0.00    -0.116 C  
HETATM    8  C   UNL     1      -8.068   8.557  69.286  1.00  0.00    -0.113 C  
HETATM    9  C   UNL     1      -9.025   6.277  68.628  1.00  0.00    -0.127 C  
ENDROOT
BRANCH   4  10
HETATM   10  O   UNL     1      -7.223   7.686  65.014  1.00  0.00    -0.061 OA 
BRANCH  10  11
HETATM   11  C   UNL     1      -7.704   8.527  64.050  1.00  0.00    -0.137 C  
HETATM   12  O   UNL     1      -8.228   8.172  62.997  1.00  0.00    -0.165 OA 
BRANCH  11  13
HETATM   13  C   UNL     1      -7.504   9.998  64.429  1.00  0.00    -0.141 C  
HETATM   14  O   UNL     1      -6.957  10.738  63.333  1.00  0.00    -0.351 OA 
HETATM   15  H   UNL     1      -6.833  11.649  63.567  1.00  0.00     0.000 HD 
BRANCH  13  16
HETATM   16  C   UNL     1      -8.793  10.676  64.843  1.00  0.00    -0.204 A  
HETATM   17  C   UNL     1      -9.678  11.160  63.866  1.00  0.00    -0.325 A  
HETATM   18  C   UNL     1     -10.888  11.750  64.234  1.00  0.00    -0.404 A  
HETATM   19  C   UNL     1     -11.229  11.862  65.580  1.00  0.00    -0.360 A  
HETATM   20  C   UNL     1     -10.361  11.389  66.561  1.00  0.00    -0.277 A  
HETATM   21  C   UNL     1      -9.149  10.800  66.196  1.00  0.00    -0.193 A  
ENDBRANCH  13  16
ENDBRANCH  11  13
ENDBRANCH  10  11
ENDBRANCH   4  10
TORSDOF 4
ENDMDL
MODEL      242
REMARK 921   NORMALIZED FREE ENERGY PREDICTED BY IDOCK:   -3.20 KCAL/MOL
REMARK 922        TOTAL FREE ENERGY PREDICTED BY IDOCK:   -4.51 KCAL/MOL
REMARK 923 INTER-LIGAND FREE ENERGY PREDICTED BY IDOCK:   -4.19 KCAL/MOL
REMARK 924 INTRA-LIGAND FREE ENERGY PREDICTED BY IDOCK:   -0.32 KCAL/MOL
REMARK 927      BINDING AFFINITY PREDICTED BY RF-SCORE:    0.00 PKD
ROOT
HETATM    1  C   UNL     1     -11.361   9.464  71.288  1.00  0.00    -0.436 C  
HETATM    2  C   UNL     1     -11.855   8.030  71.489  1.00  0.00    -0.328 C  
HETATM    3  C   UNL     1     -11.599   7.162  70.252  1.00  0.00    -0.260 C  
HETATM    4  C   UNL     1     -10.136   6.719  70.130  1.00  0.00    -0.178 C  
HETATM    5  C   UNL     1      -9.715   5.951  71.390  1.00  0.00    -0.196 C  
HETATM    6  C   UNL     1      -9.656   5.866  73.905  1.00  0.00    -0.155 C  
HETATM    7  C   UNL     1      -9.876   6.782  72.683  1.00  0.00    -0.183 C  
HETATM    8  C   UNL     1      -8.805   7.888  72.759  1.00  0.00    -0.247 C  
HETATM    9  C   UNL     1     -11.309   7.365  72.764  1.00  0.00    -0.356 C  
ENDROOT
BRANCH   4  10
HETATM   10  O   UNL     1      -9.977   5.846  68.993  1.00  0.00    -0.146 OA 
BRANCH  10  11
HETATM   11  C   UNL     1      -9.956   6.473  67.780  1.00  0.00    -0.131 C  
HETATM   12  O   UNL     1     -10.931   6.643  67.052  1.00  0.00    -0.376 OA 
BRANCH  11  13
HETATM   13  C   UNL     1      -8.545   6.945  67.410  1.00  0.00    -0.121 C  
HETATM   14  O   UNL     1      -7.629   5.845  67.388  1.00  0.00    -0.093 OA 
HETATM   15  H   UNL     1      -6.755   6.136  67.159  1.00  0.00     0.000 HD 
BRANCH  13  16
HETATM   16  C   UNL     1      -8.489   7.616  66.054  1.00  0.00    -0.149 A  
HETATM   17  C   UNL     1      -8.884   8.955  65.915  1.00  0.00    -0.215 A  
HETATM   18  C   UNL     1      -8.797   9.597  64.679  1.00  0.00    -0.253 A  
HETATM   19  C   UNL     1      -8.313   8.910  63.568  1.00  0.00    -0.168 A  
HETATM   20  C   UNL     1      -7.919   7.580  63.689  1.00  0.00    -0.074 A  
HETATM   21  C   UNL     1      -8.006   6.935  64.924  1.00  0.00    -0.124 A  
ENDBRANCH  13  16
ENDBRANCH  11  13
ENDBRANCH  10  11
ENDBRANCH   4  10
TORSDOF 4
ENDMDL
MODEL      243
REMARK 921   NORMALIZED FREE ENERGY PREDICTED BY IDOCK:   -3.19 KCAL/MOL
REMARK 922        TOTAL FREE ENERGY PREDICTED BY IDOCK:   -4.49 KCAL/MOL
REMARK 923 INTER-LIGAND FREE ENERGY PREDICTED BY IDOCK:   -3.69 KCAL/MOL
REMARK 924 INTRA-LIGAND FREE ENERGY PREDICTED BY IDOCK:   -0.80 KCAL/MOL
REMARK 927      BINDING AFFINITY PREDICTED BY RF-SCORE:    0.00 PKD
ROOT
HETATM    1  C   UNL     1      -7.301   7.027  69.077  1.00  0.00    -0.093 C  
HETATM    2  C   UNL     1      -8.802   6.734  69.122  1.00  0.00    -0.134 C  
HETATM    3  C   UNL     1      -9.635   7.999  68.885  1.00  0.00    -0.152 C  
HETATM    4  C   UNL     1      -9.685   8.409  67.408  1.00  0.00    -0.170 C  
HETATM    5  C   UNL     1     -10.250   7.259  66.565  1.00  0.00    -0.139 C  
HETATM    6  C   UNL     1     -10.187   4.806  66.004  1.00  0.00    -0.308 C  
HETATM    7  C   UNL     1      -9.424   5.958  66.691  1.00  0.00    -0.165 C  
HETATM    8  C   UNL     1      -8.074   6.095  65.960  1.00  0.00    -0.118 C  
HETATM    9  C   UNL     1      -9.234   5.593  68.185  1.00  0.00    -0.114 C  
ENDROOT
BRANCH   4  10
HETATM   10  O   UNL     1     -10.543   9.556  67.243  1.00  0.00    -0.264 OA 
BRANCH  10  11
HETATM   11  C   UNL     1      -9.918  10.767  67.343  1.00  0.00    -0.184 C  
HETATM   12  O   UNL     1      -9.640  11.337  68.395  1.00  0.00    -0.182 OA 
BRANCH  11  13
HETATM   13  C   UNL     1      -9.603  11.357  65.965  1.00  0.00    -0.221 C  
HETATM   14  O   UNL     1      -8.863  12.577  66.089  1.00  0.00    -0.419 OA 
HETATM   15  H   UNL     1      -8.668  12.943  65.235  1.00  0.00     0.000 HD 
BRANCH  13  16
HETATM   16  C   UNL     1      -8.794  10.417  65.096  1.00  0.00    -0.207 A  
HETATM   17  C   UNL     1      -9.310   9.979  63.866  1.00  0.00    -0.315 A  
HETATM   18  C   UNL     1      -8.557   9.145  63.038  1.00  0.00    -0.196 A  
HETATM   19  C   UNL     1      -7.281   8.742  63.426  1.00  0.00    -0.094 A  
HETATM   20  C   UNL     1      -6.756   9.167  64.644  1.00  0.00    -0.082 A  
HETATM   21  C   UNL     1      -7.508  10.000  65.476  1.00  0.00    -0.137 A  
ENDBRANCH  13  16
ENDBRANCH  11  13
ENDBRANCH  10  11
ENDBRANCH   4  10
TORSDOF 4
ENDMDL
MODEL      244
REMARK 921   NORMALIZED FREE ENERGY PREDICTED BY IDOCK:   -3.14 KCAL/MOL
REMARK 922        TOTAL FREE ENERGY PREDICTED BY IDOCK:   -4.43 KCAL/MOL
REMARK 923 INTER-LIGAND FREE ENERGY PREDICTED BY IDOCK:   -3.89 KCAL/MOL
REMARK 924 INTRA-LIGAND FREE ENERGY PREDICTED BY IDOCK:   -0.53 KCAL/MOL
REMARK 927      BINDING AFFINITY PREDICTED BY RF-SCORE:    0.00 PKD
ROOT
HETATM    1  C   UNL     1      -9.658  15.506  65.763  1.00  0.00    -0.367 C  
HETATM    2  C   UNL     1      -9.820  15.674  67.276  1.00  0.00    -0.225 C  
HETATM    3  C   UNL     1      -9.482  14.383  68.030  1.00  0.00    -0.209 C  
HETATM    4  C   UNL     1      -7.973  14.141  68.145  1.00  0.00    -0.143 C  
HETATM    5  C   UNL     1      -7.303  15.331  68.843  1.00  0.00    -0.146 C  
HETATM    6  C   UNL     1      -7.033  17.830  68.990  1.00  0.00    -0.236 C  
HETATM    7  C   UNL     1      -7.535  16.670  68.105  1.00  0.00    -0.170 C  
HETATM    8  C   UNL     1      -6.720  16.722  66.798  1.00  0.00    -0.257 C  
HETATM    9  C   UNL     1      -9.049  16.877  67.847  1.00  0.00    -0.233 C  
ENDROOT
BRANCH   4  10
HETATM   10  O   UNL     1      -7.721  12.956  68.929  1.00  0.00    -0.039 OA 
BRANCH  10  11
HETATM   11  C   UNL     1      -6.966  12.001  68.309  1.00  0.00    -0.075 C  
HETATM   12  O   UNL     1      -6.367  12.150  67.247  1.00  0.00    -0.130 OA 
BRANCH  11  13
HETATM   13  C   UNL     1      -6.958  10.686  69.096  1.00  0.00    -0.085 C  
HETATM   14  O   UNL     1      -6.801  10.931  70.498  1.00  0.00    -0.483 OA 
HETATM   15  H   UNL     1      -6.795  10.117  70.985  1.00  0.00     0.000 HD 
BRANCH  13  16
HETATM   16  C   UNL     1      -8.228   9.884  68.910  1.00  0.00    -0.118 A  
HETATM   17  C   UNL     1      -8.489   9.254  67.684  1.00  0.00    -0.116 A  
HETATM   18  C   UNL     1      -9.637   8.478  67.514  1.00  0.00    -0.194 A  
HETATM   19  C   UNL     1     -10.536   8.321  68.566  1.00  0.00    -0.199 A  
HETATM   20  C   UNL     1     -10.292   8.942  69.789  1.00  0.00    -0.213 A  
HETATM   21  C   UNL     1      -9.146   9.720  69.961  1.00  0.00    -0.258 A  
ENDBRANCH  13  16
ENDBRANCH  11  13
ENDBRANCH  10  11
ENDBRANCH   4  10
TORSDOF 4
ENDMDL
MODEL      245
REMARK 921   NORMALIZED FREE ENERGY PREDICTED BY IDOCK:   -3.13 KCAL/MOL
REMARK 922        TOTAL FREE ENERGY PREDICTED BY IDOCK:   -4.41 KCAL/MOL
REMARK 923 INTER-LIGAND FREE ENERGY PREDICTED BY IDOCK:   -3.96 KCAL/MOL
REMARK 924 INTRA-LIGAND FREE ENERGY PREDICTED BY IDOCK:   -0.46 KCAL/MOL
REMARK 927      BINDING AFFINITY PREDICTED BY RF-SCORE:    0.00 PKD
ROOT
HETATM    1  C   UNL     1      -5.558   6.055  68.365  1.00  0.00    -0.012 C  
HETATM    2  C   UNL     1      -6.053   4.935  69.283  1.00  0.00    -0.025 C  
HETATM    3  C   UNL     1      -7.376   5.302  69.966  1.00  0.00    -0.064 C  
HETATM    4  C   UNL     1      -8.584   5.169  69.030  1.00  0.00    -0.089 C  
HETATM    5  C   UNL     1      -8.669   3.738  68.486  1.00  0.00    -0.134 C  
HETATM    6  C   UNL     1      -7.475   1.798  67.413  1.00  0.00    -0.059 C  
HETATM    7  C   UNL     1      -7.397   3.309  67.718  1.00  0.00    -0.054 C  
HETATM    8  C   UNL     1      -7.310   4.032  66.360  1.00  0.00    -0.076 C  
HETATM    9  C   UNL     1      -6.141   3.565  68.588  1.00  0.00    -0.028 C  
ENDROOT
BRANCH   4  10
HETATM   10  O   UNL     1      -9.800   5.453  69.751  1.00  0.00    -0.166 OA 
BRANCH  10  11
HETATM   11  C   UNL     1     -10.439   6.602  69.380  1.00  0.00    -0.219 C  
HETATM   12  O   UNL     1     -11.208   6.710  68.428  1.00  0.00    -0.230 OA 
BRANCH  11  13
HETATM   13  C   UNL     1     -10.073   7.776  70.295  1.00  0.00    -0.195 C  
HETATM   14  O   UNL     1      -9.287   8.745  69.592  1.00  0.00    -0.154 OA 
HETATM   15  H   UNL     1      -9.059   9.472  70.159  1.00  0.00     0.000 HD 
BRANCH  13  16
HETATM   16  C   UNL     1     -11.288   8.487  70.849  1.00  0.00    -0.304 A  
HETATM   17  C   UNL     1     -12.277   7.761  71.531  1.00  0.00    -0.344 A  
HETATM   18  C   UNL     1     -13.382   8.412  72.083  1.00  0.00    -0.341 A  
HETATM   19  C   UNL     1     -13.511   9.794  71.963  1.00  0.00    -0.498 A  
HETATM   20  C   UNL     1     -12.539  10.528  71.288  1.00  0.00    -0.531 A  
HETATM   21  C   UNL     1     -11.434   9.879  70.733  1.00  0.00    -0.433 A  
ENDBRANCH  13  16
ENDBRANCH  11  13
ENDBRANCH  10  11
ENDBRANCH   4  10
TORSDOF 4
ENDMDL
MODEL      246
REMARK 921   NORMALIZED FREE ENERGY PREDICTED BY IDOCK:   -3.11 KCAL/MOL
REMARK 922        TOTAL FREE ENERGY PREDICTED BY IDOCK:   -4.40 KCAL/MOL
REMARK 923 INTER-LIGAND FREE ENERGY PREDICTED BY IDOCK:   -4.92 KCAL/MOL
REMARK 924 INTRA-LIGAND FREE ENERGY PREDICTED BY IDOCK:    0.52 KCAL/MOL
REMARK 927      BINDING AFFINITY PREDICTED BY RF-SCORE:    0.00 PKD
ROOT
HETATM    1  C   UNL     1     -12.132   6.462  71.574  1.00  0.00    -0.289 C  
HETATM    2  C   UNL     1     -10.712   6.237  71.048  1.00  0.00    -0.313 C  
HETATM    3  C   UNL     1     -10.042   7.553  70.638  1.00  0.00    -0.187 C  
HETATM    4  C   UNL     1      -9.546   8.366  71.840  1.00  0.00    -0.254 C  
HETATM    5  C   UNL     1      -8.565   7.529  72.670  1.00  0.00    -0.154 C  
HETATM    6  C   UNL     1      -8.073   5.335  73.801  1.00  0.00    -0.109 C  
HETATM    7  C   UNL     1      -9.185   6.210  73.185  1.00  0.00    -0.132 C  
HETATM    8  C   UNL     1     -10.204   6.488  74.306  1.00  0.00    -0.373 C  
HETATM    9  C   UNL     1      -9.822   5.429  72.009  1.00  0.00    -0.212 C  
ENDROOT
BRANCH   4  10
HETATM   10  O   UNL     1      -8.860   9.551  71.385  1.00  0.00    -0.209 OA 
BRANCH  10  11
HETATM   11  C   UNL     1      -8.866   9.740  70.032  1.00  0.00    -0.215 C  
HETATM   12  O   UNL     1      -7.878   9.684  69.304  1.00  0.00    -0.085 OA 
BRANCH  11  13
HETATM   13  C   UNL     1     -10.273  10.050  69.509  1.00  0.00    -0.234 C  
HETATM   14  O   UNL     1     -10.815  11.206  70.157  1.00  0.00    -0.457 OA 
HETATM   15  H   UNL     1     -11.687  11.398  69.833  1.00  0.00     0.000 HD 
BRANCH  13  16
HETATM   16  C   UNL     1     -10.300  10.306  68.017  1.00  0.00    -0.215 A  
HETATM   17  C   UNL     1     -10.591  11.589  67.529  1.00  0.00    -0.243 A  
HETATM   18  C   UNL     1     -10.578  11.847  66.158  1.00  0.00    -0.295 A  
HETATM   19  C   UNL     1     -10.272  10.828  65.258  1.00  0.00    -0.351 A  
HETATM   20  C   UNL     1      -9.983   9.549  65.727  1.00  0.00    -0.316 A  
HETATM   21  C   UNL     1      -9.997   9.288  67.098  1.00  0.00    -0.276 A  
ENDBRANCH  13  16
ENDBRANCH  11  13
ENDBRANCH  10  11
ENDBRANCH   4  10
TORSDOF 4
ENDMDL
MODEL      247
REMARK 921   NORMALIZED FREE ENERGY PREDICTED BY IDOCK:   -3.10 KCAL/MOL
REMARK 922        TOTAL FREE ENERGY PREDICTED BY IDOCK:   -4.38 KCAL/MOL
REMARK 923 INTER-LIGAND FREE ENERGY PREDICTED BY IDOCK:   -3.38 KCAL/MOL
REMARK 924 INTRA-LIGAND FREE ENERGY PREDICTED BY IDOCK:   -1.00 KCAL/MOL
REMARK 927      BINDING AFFINITY PREDICTED BY RF-SCORE:    0.00 PKD
ROOT
HETATM    1  C   UNL     1     -11.010   7.033  67.120  1.00  0.00    -0.393 C  
HETATM    2  C   UNL     1      -9.988   5.967  66.720  1.00  0.00    -0.215 C  
HETATM    3  C   UNL     1      -8.778   6.580  66.005  1.00  0.00    -0.155 C  
HETATM    4  C   UNL     1      -7.800   7.261  66.970  1.00  0.00    -0.112 C  
HETATM    5  C   UNL     1      -7.316   6.254  68.022  1.00  0.00    -0.089 C  
HETATM    6  C   UNL     1      -7.924   4.480  69.702  1.00  0.00    -0.061 C  
HETATM    7  C   UNL     1      -8.474   5.638  68.841  1.00  0.00    -0.102 C  
HETATM    8  C   UNL     1      -9.065   6.674  69.816  1.00  0.00    -0.143 C  
HETATM    9  C   UNL     1      -9.552   5.065  67.888  1.00  0.00    -0.176 C  
ENDROOT
BRANCH   4  10
HETATM   10  O   UNL     1      -6.651   7.747  66.247  1.00  0.00    -0.048 OA 
BRANCH  10  11
HETATM   11  C   UNL     1      -6.845   8.918  65.570  1.00  0.00    -0.076 C  
HETATM   12  O   UNL     1      -6.839   9.040  64.348  1.00  0.00    -0.084 OA 
BRANCH  11  13
HETATM   13  C   UNL     1      -7.066  10.095  66.526  1.00  0.00    -0.103 C  
HETATM   14  O   UNL     1      -6.543  11.307  65.973  1.00  0.00    -0.350 OA 
HETATM   15  H   UNL     1      -6.679  12.037  66.565  1.00  0.00     0.000 HD 
BRANCH  13  16
HETATM   16  C   UNL     1      -8.529  10.329  66.839  1.00  0.00    -0.126 A  
HETATM   17  C   UNL     1      -8.986  10.250  68.164  1.00  0.00    -0.130 A  
HETATM   18  C   UNL     1     -10.323  10.504  68.471  1.00  0.00    -0.199 A  
HETATM   19  C   UNL     1     -11.220  10.841  67.459  1.00  0.00    -0.346 A  
HETATM   20  C   UNL     1     -10.783  10.921  66.139  1.00  0.00    -0.225 A  
HETATM   21  C   UNL     1      -9.445  10.666  65.829  1.00  0.00    -0.244 A  
ENDBRANCH  13  16
ENDBRANCH  11  13
ENDBRANCH  10  11
ENDBRANCH   4  10
TORSDOF 4
ENDMDL
MODEL      248
REMARK 921   NORMALIZED FREE ENERGY PREDICTED BY IDOCK:   -3.09 KCAL/MOL
REMARK 922        TOTAL FREE ENERGY PREDICTED BY IDOCK:   -4.37 KCAL/MOL
REMARK 923 INTER-LIGAND FREE ENERGY PREDICTED BY IDOCK:   -4.66 KCAL/MOL
REMARK 924 INTRA-LIGAND FREE ENERGY PREDICTED BY IDOCK:    0.30 KCAL/MOL
REMARK 927      BINDING AFFINITY PREDICTED BY RF-SCORE:    0.00 PKD
ROOT
HETATM    1  C   UNL     1      -7.783  17.075  68.150  1.00  0.00    -0.197 C  
HETATM    2  C   UNL     1      -8.410  15.925  68.942  1.00  0.00    -0.226 C  
HETATM    3  C   UNL     1      -9.319  15.059  68.063  1.00  0.00    -0.185 C  
HETATM    4  C   UNL     1      -8.534  14.104  67.156  1.00  0.00    -0.195 C  
HETATM    5  C   UNL     1      -7.631  13.199  68.005  1.00  0.00    -0.144 C  
HETATM    6  C   UNL     1      -5.934  13.028  69.856  1.00  0.00    -0.136 C  
HETATM    7  C   UNL     1      -6.630  13.994  68.874  1.00  0.00    -0.101 C  
HETATM    8  C   UNL     1      -5.522  14.616  68.001  1.00  0.00    -0.127 C  
HETATM    9  C   UNL     1      -7.381  15.068  69.700  1.00  0.00    -0.181 C  
ENDROOT
BRANCH   4  10
HETATM   10  O   UNL     1      -9.445  13.267  66.413  1.00  0.00    -0.258 OA 
BRANCH  10  11
HETATM   11  C   UNL     1      -9.147  11.934  66.426  1.00  0.00    -0.208 C  
HETATM   12  O   UNL     1      -8.022  11.457  66.300  1.00  0.00    -0.134 OA 
BRANCH  11  13
HETATM   13  C   UNL     1     -10.403  11.074  66.604  1.00  0.00    -0.240 C  
HETATM   14  O   UNL     1     -10.146   9.713  66.244  1.00  0.00    -0.258 OA 
HETATM   15  H   UNL     1     -10.924   9.180  66.355  1.00  0.00     0.000 HD 
BRANCH  13  16
HETATM   16  C   UNL     1     -10.920  11.082  68.027  1.00  0.00    -0.312 A  
HETATM   17  C   UNL     1     -10.715   9.967  68.856  1.00  0.00    -0.243 A  
HETATM   18  C   UNL     1     -11.150   9.979  70.182  1.00  0.00    -0.371 A  
HETATM   19  C   UNL     1     -11.792  11.103  70.697  1.00  0.00    -0.403 A  
HETATM   20  C   UNL     1     -12.005  12.216  69.887  1.00  0.00    -0.380 A  
HETATM   21  C   UNL     1     -11.572  12.206  68.559  1.00  0.00    -0.366 A  
ENDBRANCH  13  16
ENDBRANCH  11  13
ENDBRANCH  10  11
ENDBRANCH   4  10
TORSDOF 4
ENDMDL
MODEL      249
REMARK 921   NORMALIZED FREE ENERGY PREDICTED BY IDOCK:   -3.06 KCAL/MOL
REMARK 922        TOTAL FREE ENERGY PREDICTED BY IDOCK:   -4.33 KCAL/MOL
REMARK 923 INTER-LIGAND FREE ENERGY PREDICTED BY IDOCK:   -4.11 KCAL/MOL
REMARK 924 INTRA-LIGAND FREE ENERGY PREDICTED BY IDOCK:   -0.22 KCAL/MOL
REMARK 927      BINDING AFFINITY PREDICTED BY RF-SCORE:    0.00 PKD
ROOT
HETATM    1  C   UNL     1      -5.200   8.766  69.761  1.00  0.00    -0.030 C  
HETATM    2  C   UNL     1      -5.314   8.126  71.147  1.00  0.00    -0.029 C  
HETATM    3  C   UNL     1      -6.447   8.750  71.970  1.00  0.00    -0.061 C  
HETATM    4  C   UNL     1      -7.834   8.251  71.545  1.00  0.00    -0.117 C  
HETATM    5  C   UNL     1      -7.898   6.723  71.661  1.00  0.00    -0.101 C  
HETATM    6  C   UNL     1      -6.816   4.507  71.158  1.00  0.00    -0.035 C  
HETATM    7  C   UNL     1      -6.829   6.009  70.803  1.00  0.00    -0.062 C  
HETATM    8  C   UNL     1      -7.177   6.108  69.305  1.00  0.00    -0.082 C  
HETATM    9  C   UNL     1      -5.427   6.593  71.108  1.00  0.00    -0.027 C  
ENDROOT
BRANCH   4  10
HETATM   10  O   UNL     1      -8.846   8.815  72.405  1.00  0.00    -0.391 OA 
BRANCH  10  11
HETATM   11  C   UNL     1     -10.132   8.619  71.990  1.00  0.00    -0.331 C  
HETATM   12  O   UNL     1     -10.990   7.994  72.609  1.00  0.00    -0.334 OA 
BRANCH  11  13
HETATM   13  C   UNL     1     -10.394   9.271  70.628  1.00  0.00    -0.263 C  
HETATM   14  O   UNL     1      -9.358  10.203  70.300  1.00  0.00    -0.378 OA 
HETATM   15  H   UNL     1      -9.520  10.607  69.457  1.00  0.00     0.000 HD 
BRANCH  13  16
HETATM   16  C   UNL     1     -10.476   8.262  69.502  1.00  0.00    -0.228 A  
HETATM   17  C   UNL     1     -10.225   8.662  68.180  1.00  0.00    -0.250 A  
HETATM   18  C   UNL     1     -10.258   7.732  67.139  1.00  0.00    -0.365 A  
HETATM   19  C   UNL     1     -10.538   6.394  67.406  1.00  0.00    -0.363 A  
HETATM   20  C   UNL     1     -10.791   5.983  68.712  1.00  0.00    -0.391 A  
HETATM   21  C   UNL     1     -10.762   6.910  69.756  1.00  0.00    -0.276 A  
ENDBRANCH  13  16
ENDBRANCH  11  13
ENDBRANCH  10  11
ENDBRANCH   4  10
TORSDOF 4
ENDMDL
MODEL      250
REMARK 921   NORMALIZED FREE ENERGY PREDICTED BY IDOCK:   -3.05 KCAL/MOL
REMARK 922        TOTAL FREE ENERGY PREDICTED BY IDOCK:   -4.32 KCAL/MOL
REMARK 923 INTER-LIGAND FREE ENERGY PREDICTED BY IDOCK:   -4.00 KCAL/MOL
REMARK 924 INTRA-LIGAND FREE ENERGY PREDICTED BY IDOCK:   -0.32 KCAL/MOL
REMARK 927      BINDING AFFINITY PREDICTED BY RF-SCORE:    0.00 PKD
ROOT
HETATM    1  C   UNL     1     -12.361   9.283  71.449  1.00  0.00    -0.421 C  
HETATM    2  C   UNL     1     -11.947   7.965  72.107  1.00  0.00    -0.379 C  
HETATM    3  C   UNL     1     -12.084   6.781  71.143  1.00  0.00    -0.422 C  
HETATM    4  C   UNL     1     -10.942   6.713  70.121  1.00  0.00    -0.305 C  
HETATM    5  C   UNL     1      -9.594   6.629  70.846  1.00  0.00    -0.183 C  
HETATM    6  C   UNL     1      -8.088   7.546  72.644  1.00  0.00    -0.134 C  
HETATM    7  C   UNL     1      -9.343   7.827  71.791  1.00  0.00    -0.179 C  
HETATM    8  C   UNL     1      -9.054   9.108  70.984  1.00  0.00    -0.305 C  
HETATM    9  C   UNL     1     -10.549   8.010  72.747  1.00  0.00    -0.420 C  
ENDROOT
BRANCH   4  10
HETATM   10  O   UNL     1     -11.087   5.539  69.296  1.00  0.00    -0.183 OA 
BRANCH  10  11
HETATM   11  C   UNL     1     -10.011   4.697  69.292  1.00  0.00    -0.161 C  
HETATM   12  O   UNL     1      -9.734   3.897  70.182  1.00  0.00    -0.196 OA 
BRANCH  11  13
HETATM   13  C   UNL     1      -9.159   4.873  68.031  1.00  0.00    -0.114 C  
HETATM   14  O   UNL     1      -9.970   5.261  66.917  1.00  0.00    -0.155 OA 
HETATM   15  H   UNL     1      -9.442   5.370  66.135  1.00  0.00     0.000 HD 
BRANCH  13  16
HETATM   16  C   UNL     1      -8.077   5.920  68.197  1.00  0.00    -0.109 A  
HETATM   17  C   UNL     1      -8.202   7.166  67.564  1.00  0.00    -0.117 A  
HETATM   18  C   UNL     1      -7.232   8.154  67.742  1.00  0.00    -0.091 A  
HETATM   19  C   UNL     1      -6.128   7.909  68.556  1.00  0.00    -0.040 A  
HETATM   20  C   UNL     1      -5.989   6.677  69.189  1.00  0.00    -0.022 A  
HETATM   21  C   UNL     1      -6.957   5.686  69.011  1.00  0.00    -0.063 A  
ENDBRANCH  13  16
ENDBRANCH  11  13
ENDBRANCH  10  11
ENDBRANCH   4  10
TORSDOF 4
ENDMDL
MODEL      251
REMARK 921   NORMALIZED FREE ENERGY PREDICTED BY IDOCK:   -3.04 KCAL/MOL
REMARK 922        TOTAL FREE ENERGY PREDICTED BY IDOCK:   -4.30 KCAL/MOL
REMARK 923 INTER-LIGAND FREE ENERGY PREDICTED BY IDOCK:   -3.89 KCAL/MOL
REMARK 924 INTRA-LIGAND FREE ENERGY PREDICTED BY IDOCK:   -0.41 KCAL/MOL
REMARK 927      BINDING AFFINITY PREDICTED BY RF-SCORE:    0.00 PKD
ROOT
HETATM    1  C   UNL     1      -5.803   6.080  68.269  1.00  0.00    -0.016 C  
HETATM    2  C   UNL     1      -6.669   5.664  69.461  1.00  0.00    -0.059 C  
HETATM    3  C   UNL     1      -7.662   6.764  69.853  1.00  0.00    -0.109 C  
HETATM    4  C   UNL     1      -8.868   6.840  68.909  1.00  0.00    -0.128 C  
HETATM    5  C   UNL     1      -9.591   5.487  68.874  1.00  0.00    -0.178 C  
HETATM    6  C   UNL     1      -9.409   2.988  68.635  1.00  0.00    -0.237 C  
HETATM    7  C   UNL     1      -8.675   4.328  68.418  1.00  0.00    -0.118 C  
HETATM    8  C   UNL     1      -8.374   4.430  66.910  1.00  0.00    -0.101 C  
HETATM    9  C   UNL     1      -7.377   4.313  69.263  1.00  0.00    -0.054 C  
ENDROOT
BRANCH   4  10
HETATM   10  O   UNL     1      -9.798   7.839  69.376  1.00  0.00    -0.171 OA 
BRANCH  10  11
HETATM   11  C   UNL     1     -10.317   8.646  68.403  1.00  0.00    -0.201 C  
HETATM   12  O   UNL     1     -10.496   8.320  67.232  1.00  0.00    -0.274 OA 
BRANCH  11  13
HETATM   13  C   UNL     1     -10.650  10.041  68.942  1.00  0.00    -0.218 C  
HETATM   14  O   UNL     1      -9.804  10.376  70.047  1.00  0.00    -0.414 OA 
HETATM   15  H   UNL     1     -10.010  11.241  70.381  1.00  0.00     0.000 HD 
BRANCH  13  16
HETATM   16  C   UNL     1     -10.493  11.125  67.898  1.00  0.00    -0.220 A  
HETATM   17  C   UNL     1     -11.623  11.649  67.252  1.00  0.00    -0.316 A  
HETATM   18  C   UNL     1     -11.494  12.678  66.318  1.00  0.00    -0.415 A  
HETATM   19  C   UNL     1     -10.236  13.196  66.019  1.00  0.00    -0.287 A  
HETATM   20  C   UNL     1      -9.105  12.685  66.649  1.00  0.00    -0.193 A  
HETATM   21  C   UNL     1      -9.230  11.655  67.583  1.00  0.00    -0.178 A  
ENDBRANCH  13  16
ENDBRANCH  11  13
ENDBRANCH  10  11
ENDBRANCH   4  10
TORSDOF 4
ENDMDL
MODEL      252
REMARK 921   NORMALIZED FREE ENERGY PREDICTED BY IDOCK:   -3.01 KCAL/MOL
REMARK 922        TOTAL FREE ENERGY PREDICTED BY IDOCK:   -4.27 KCAL/MOL
REMARK 923 INTER-LIGAND FREE ENERGY PREDICTED BY IDOCK:   -3.59 KCAL/MOL
REMARK 924 INTRA-LIGAND FREE ENERGY PREDICTED BY IDOCK:   -0.68 KCAL/MOL
REMARK 927      BINDING AFFINITY PREDICTED BY RF-SCORE:    0.00 PKD
ROOT
HETATM    1  C   UNL     1     -10.369   4.569  65.844  1.00  0.00    -0.289 C  
HETATM    2  C   UNL     1      -8.895   4.918  66.059  1.00  0.00    -0.126 C  
HETATM    3  C   UNL     1      -8.712   6.384  66.469  1.00  0.00    -0.133 C  
HETATM    4  C   UNL     1      -9.062   6.637  67.941  1.00  0.00    -0.114 C  
HETATM    5  C   UNL     1      -8.205   5.742  68.844  1.00  0.00    -0.101 C  
HETATM    6  C   UNL     1      -7.323   3.434  69.327  1.00  0.00    -0.049 C  
HETATM    7  C   UNL     1      -8.383   4.236  68.543  1.00  0.00    -0.091 C  
HETATM    8  C   UNL     1      -9.761   3.742  69.026  1.00  0.00    -0.094 C  
HETATM    9  C   UNL     1      -8.174   3.969  67.032  1.00  0.00    -0.100 C  
ENDROOT
BRANCH   4  10
HETATM   10  O   UNL     1      -8.797   8.013  68.282  1.00  0.00    -0.133 OA 
BRANCH  10  11
HETATM   11  C   UNL     1      -9.769   8.625  69.021  1.00  0.00    -0.173 C  
HETATM   12  O   UNL     1     -10.904   8.881  68.626  1.00  0.00    -0.126 OA 
BRANCH  11  13
HETATM   13  C   UNL     1      -9.275   8.977  70.428  1.00  0.00    -0.209 C  
HETATM   14  O   UNL     1      -9.663  10.307  70.787  1.00  0.00    -0.128 OA 
HETATM   15  H   UNL     1      -9.357  10.525  71.659  1.00  0.00     0.000 HD 
BRANCH  13  16
HETATM   16  C   UNL     1      -9.813   8.040  71.489  1.00  0.00    -0.217 A  
HETATM   17  C   UNL     1      -9.324   8.110  72.802  1.00  0.00    -0.344 A  
HETATM   18  C   UNL     1      -9.841   7.281  73.798  1.00  0.00    -0.358 A  
HETATM   19  C   UNL     1     -10.854   6.373  73.495  1.00  0.00    -0.198 A  
HETATM   20  C   UNL     1     -11.348   6.289  72.196  1.00  0.00    -0.343 A  
HETATM   21  C   UNL     1     -10.831   7.117  71.197  1.00  0.00    -0.261 A  
ENDBRANCH  13  16
ENDBRANCH  11  13
ENDBRANCH  10  11
ENDBRANCH   4  10
TORSDOF 4
ENDMDL
MODEL      253
REMARK 921   NORMALIZED FREE ENERGY PREDICTED BY IDOCK:   -2.98 KCAL/MOL
REMARK 922        TOTAL FREE ENERGY PREDICTED BY IDOCK:   -4.23 KCAL/MOL
REMARK 923 INTER-LIGAND FREE ENERGY PREDICTED BY IDOCK:   -4.62 KCAL/MOL
REMARK 924 INTRA-LIGAND FREE ENERGY PREDICTED BY IDOCK:    0.39 KCAL/MOL
REMARK 927      BINDING AFFINITY PREDICTED BY RF-SCORE:    0.00 PKD
ROOT
HETATM    1  C   UNL     1      -9.040  14.923  67.776  1.00  0.00    -0.185 C  
HETATM    2  C   UNL     1      -9.063  13.578  67.045  1.00  0.00    -0.248 C  
HETATM    3  C   UNL     1      -9.429  12.425  67.988  1.00  0.00    -0.208 C  
HETATM    4  C   UNL     1     -10.930  12.366  68.298  1.00  0.00    -0.236 C  
HETATM    5  C   UNL     1     -11.729  12.235  66.995  1.00  0.00    -0.399 C  
HETATM    6  C   UNL     1     -12.124  13.069  64.653  1.00  0.00    -0.463 C  
HETATM    7  C   UNL     1     -11.471  13.399  66.011  1.00  0.00    -0.351 C  
HETATM    8  C   UNL     1     -12.130  14.697  66.517  1.00  0.00    -0.230 C  
HETATM    9  C   UNL     1      -9.948  13.577  65.787  1.00  0.00    -0.266 C  
ENDROOT
BRANCH   4  10
HETATM   10  O   UNL     1     -11.218  11.219  69.124  1.00  0.00    -0.230 OA 
BRANCH  10  11
HETATM   11  C   UNL     1     -10.869  10.014  68.584  1.00  0.00    -0.229 C  
HETATM   12  O   UNL     1     -10.821   9.762  67.382  1.00  0.00    -0.274 OA 
BRANCH  11  13
HETATM   13  C   UNL     1     -10.546   8.979  69.667  1.00  0.00    -0.224 C  
HETATM   14  O   UNL     1     -11.400   7.836  69.551  1.00  0.00    -0.451 OA 
HETATM   15  H   UNL     1     -11.200   7.195  70.223  1.00  0.00     0.000 HD 
BRANCH  13  16
HETATM   16  C   UNL     1      -9.114   8.491  69.603  1.00  0.00    -0.149 A  
HETATM   17  C   UNL     1      -8.769   7.437  68.742  1.00  0.00    -0.128 A  
HETATM   18  C   UNL     1      -7.445   7.006  68.644  1.00  0.00    -0.102 A  
HETATM   19  C   UNL     1      -6.451   7.623  69.401  1.00  0.00    -0.035 A  
HETATM   20  C   UNL     1      -6.778   8.668  70.260  1.00  0.00    -0.040 A  
HETATM   21  C   UNL     1      -8.102   9.101  70.363  1.00  0.00    -0.166 A  
ENDBRANCH  13  16
ENDBRANCH  11  13
ENDBRANCH  10  11
ENDBRANCH   4  10
TORSDOF 4
ENDMDL
MODEL      254
REMARK 921   NORMALIZED FREE ENERGY PREDICTED BY IDOCK:   -2.96 KCAL/MOL
REMARK 922        TOTAL FREE ENERGY PREDICTED BY IDOCK:   -4.20 KCAL/MOL
REMARK 923 INTER-LIGAND FREE ENERGY PREDICTED BY IDOCK:   -4.22 KCAL/MOL
REMARK 924 INTRA-LIGAND FREE ENERGY PREDICTED BY IDOCK:    0.01 KCAL/MOL
REMARK 927      BINDING AFFINITY PREDICTED BY RF-SCORE:    0.00 PKD
ROOT
HETATM    1  C   UNL     1     -10.702  14.041  65.516  1.00  0.00    -0.317 C  
HETATM    2  C   UNL     1     -11.942  13.375  66.117  1.00  0.00    -0.460 C  
HETATM    3  C   UNL     1     -11.732  11.871  66.332  1.00  0.00    -0.232 C  
HETATM    4  C   UNL     1     -10.877  11.562  67.567  1.00  0.00    -0.237 C  
HETATM    5  C   UNL     1     -11.523  12.172  68.817  1.00  0.00    -0.359 C  
HETATM    6  C   UNL     1     -12.567  14.192  69.898  1.00  0.00    -0.205 C  
HETATM    7  C   UNL     1     -11.708  13.703  68.712  1.00  0.00    -0.383 C  
HETATM    8  C   UNL     1     -10.351  14.426  68.819  1.00  0.00    -0.241 C  
HETATM    9  C   UNL     1     -12.447  14.060  67.398  1.00  0.00     0.035 C  
ENDROOT
BRANCH   4  10
HETATM   10  O   UNL     1     -10.781  10.135  67.756  1.00  0.00    -0.237 OA 
BRANCH  10  11
HETATM   11  C   UNL     1      -9.778   9.728  68.589  1.00  0.00    -0.155 C  
HETATM   12  O   UNL     1      -9.636  10.085  69.756  1.00  0.00    -0.222 OA 
BRANCH  11  13
HETATM   13  C   UNL     1      -8.818   8.760  67.889  1.00  0.00    -0.136 C  
HETATM   14  O   UNL     1      -7.466   9.002  68.292  1.00  0.00    -0.082 OA 
HETATM   15  H   UNL     1      -6.870   8.403  67.858  1.00  0.00     0.000 HD 
BRANCH  13  16
HETATM   16  C   UNL     1      -9.131   7.309  68.183  1.00  0.00    -0.134 A  
HETATM   17  C   UNL     1     -10.446   6.921  68.487  1.00  0.00    -0.229 A  
HETATM   18  C   UNL     1     -10.755   5.580  68.719  1.00  0.00    -0.195 A  
HETATM   19  C   UNL     1      -9.756   4.611  68.648  1.00  0.00    -0.217 A  
HETATM   20  C   UNL     1      -8.447   4.980  68.350  1.00  0.00    -0.094 A  
HETATM   21  C   UNL     1      -8.135   6.321  68.119  1.00  0.00    -0.115 A  
ENDBRANCH  13  16
ENDBRANCH  11  13
ENDBRANCH  10  11
ENDBRANCH   4  10
TORSDOF 4
ENDMDL
MODEL      255
REMARK 921   NORMALIZED FREE ENERGY PREDICTED BY IDOCK:   -2.96 KCAL/MOL
REMARK 922        TOTAL FREE ENERGY PREDICTED BY IDOCK:   -4.20 KCAL/MOL
REMARK 923 INTER-LIGAND FREE ENERGY PREDICTED BY IDOCK:   -4.26 KCAL/MOL
REMARK 924 INTRA-LIGAND FREE ENERGY PREDICTED BY IDOCK:    0.06 KCAL/MOL
REMARK 927      BINDING AFFINITY PREDICTED BY RF-SCORE:    0.00 PKD
ROOT
HETATM    1  C   UNL     1     -13.200   8.919  71.649  1.00  0.00    -0.411 C  
HETATM    2  C   UNL     1     -11.774   8.441  71.930  1.00  0.00    -0.398 C  
HETATM    3  C   UNL     1     -11.539   7.016  71.413  1.00  0.00    -0.329 C  
HETATM    4  C   UNL     1     -11.337   6.962  69.894  1.00  0.00    -0.271 C  
HETATM    5  C   UNL     1     -10.155   7.853  69.491  1.00  0.00    -0.195 C  
HETATM    6  C   UNL     1      -9.022  10.093  69.681  1.00  0.00    -0.190 C  
HETATM    7  C   UNL     1     -10.342   9.328  69.914  1.00  0.00    -0.241 C  
HETATM    8  C   UNL     1     -11.413  10.014  69.043  1.00  0.00    -0.069 C  
HETATM    9  C   UNL     1     -10.690   9.407  71.421  1.00  0.00    -0.407 C  
ENDROOT
BRANCH   4  10
HETATM   10  O   UNL     1     -11.046   5.610  69.483  1.00  0.00    -0.310 OA 
BRANCH  10  11
HETATM   11  C   UNL     1     -10.012   5.013  70.146  1.00  0.00    -0.258 C  
HETATM   12  O   UNL     1     -10.109   4.397  71.204  1.00  0.00    -0.186 OA 
BRANCH  11  13
HETATM   13  C   UNL     1      -8.680   5.210  69.413  1.00  0.00    -0.099 C  
HETATM   14  O   UNL     1      -7.627   4.496  70.069  1.00  0.00    -0.053 OA 
HETATM   15  H   UNL     1      -6.801   4.618  69.615  1.00  0.00     0.000 HD 
BRANCH  13  16
HETATM   16  C   UNL     1      -8.728   4.738  67.975  1.00  0.00    -0.110 A  
HETATM   17  C   UNL     1      -9.061   3.407  67.683  1.00  0.00    -0.204 A  
HETATM   18  C   UNL     1      -9.149   2.971  66.359  1.00  0.00    -0.156 A  
HETATM   19  C   UNL     1      -8.907   3.860  65.314  1.00  0.00    -0.126 A  
HETATM   20  C   UNL     1      -8.572   5.183  65.588  1.00  0.00    -0.139 A  
HETATM   21  C   UNL     1      -8.482   5.622  66.911  1.00  0.00    -0.111 A  
ENDBRANCH  13  16
ENDBRANCH  11  13
ENDBRANCH  10  11
ENDBRANCH   4  10
TORSDOF 4
ENDMDL
MODEL      256
REMARK 921   NORMALIZED FREE ENERGY PREDICTED BY IDOCK:   -2.95 KCAL/MOL
REMARK 922        TOTAL FREE ENERGY PREDICTED BY IDOCK:   -4.19 KCAL/MOL
REMARK 923 INTER-LIGAND FREE ENERGY PREDICTED BY IDOCK:   -3.49 KCAL/MOL
REMARK 924 INTRA-LIGAND FREE ENERGY PREDICTED BY IDOCK:   -0.70 KCAL/MOL
REMARK 927      BINDING AFFINITY PREDICTED BY RF-SCORE:    0.00 PKD
ROOT
HETATM    1  C   UNL     1      -9.372   7.038  71.245  1.00  0.00    -0.160 C  
HETATM    2  C   UNL     1     -10.383   6.037  70.681  1.00  0.00    -0.280 C  
HETATM    3  C   UNL     1     -10.621   6.252  69.182  1.00  0.00    -0.325 C  
HETATM    4  C   UNL     1      -9.482   5.702  68.315  1.00  0.00    -0.114 C  
HETATM    5  C   UNL     1      -9.289   4.205  68.593  1.00  0.00    -0.219 C  
HETATM    6  C   UNL     1      -9.028   2.379  70.306  1.00  0.00    -0.160 C  
HETATM    7  C   UNL     1      -8.974   3.904  70.076  1.00  0.00    -0.165 C  
HETATM    8  C   UNL     1      -7.545   4.357  70.434  1.00  0.00    -0.049 C  
HETATM    9  C   UNL     1     -10.034   4.571  70.989  1.00  0.00    -0.257 C  
ENDROOT
BRANCH   4  10
HETATM   10  O   UNL     1      -9.800   5.866  66.918  1.00  0.00    -0.136 OA 
BRANCH  10  11
HETATM   11  C   UNL     1      -8.911   6.621  66.206  1.00  0.00    -0.152 C  
HETATM   12  O   UNL     1      -8.703   6.521  65.000  1.00  0.00    -0.009 OA 
BRANCH  11  13
HETATM   13  C   UNL     1      -8.173   7.622  67.101  1.00  0.00    -0.118 C  
HETATM   14  O   UNL     1      -6.877   7.922  66.572  1.00  0.00    -0.067 OA 
HETATM   15  H   UNL     1      -6.420   8.542  67.126  1.00  0.00     0.000 HD 
BRANCH  13  16
HETATM   16  C   UNL     1      -8.919   8.931  67.255  1.00  0.00    -0.140 A  
HETATM   17  C   UNL     1      -9.642   9.459  66.174  1.00  0.00    -0.311 A  
HETATM   18  C   UNL     1     -10.368  10.643  66.316  1.00  0.00    -0.296 A  
HETATM   19  C   UNL     1     -10.382  11.311  67.538  1.00  0.00    -0.224 A  
HETATM   20  C   UNL     1      -9.668  10.801  68.619  1.00  0.00    -0.187 A  
HETATM   21  C   UNL     1      -8.940   9.618  68.480  1.00  0.00    -0.124 A  
ENDBRANCH  13  16
ENDBRANCH  11  13
ENDBRANCH  10  11
ENDBRANCH   4  10
TORSDOF 4
ENDMDL
MODEL      257
REMARK 921   NORMALIZED FREE ENERGY PREDICTED BY IDOCK:   -2.92 KCAL/MOL
REMARK 922        TOTAL FREE ENERGY PREDICTED BY IDOCK:   -4.16 KCAL/MOL
REMARK 923 INTER-LIGAND FREE ENERGY PREDICTED BY IDOCK:   -3.94 KCAL/MOL
REMARK 924 INTRA-LIGAND FREE ENERGY PREDICTED BY IDOCK:   -0.22 KCAL/MOL
REMARK 927      BINDING AFFINITY PREDICTED BY RF-SCORE:    0.00 PKD
ROOT
HETATM    1  C   UNL     1     -10.015   3.211  72.106  1.00  0.00    -0.232 C  
HETATM    2  C   UNL     1      -9.510   4.242  71.094  1.00  0.00    -0.233 C  
HETATM    3  C   UNL     1     -10.244   5.581  71.231  1.00  0.00    -0.283 C  
HETATM    4  C   UNL     1      -9.754   6.407  72.427  1.00  0.00    -0.153 C  
HETATM    5  C   UNL     1      -8.246   6.660  72.306  1.00  0.00    -0.104 C  
HETATM    6  C   UNL     1      -5.958   5.700  71.881  1.00  0.00    -0.030 C  
HETATM    7  C   UNL     1      -7.421   5.355  72.233  1.00  0.00    -0.096 C  
HETATM    8  C   UNL     1      -7.393   4.649  73.602  1.00  0.00    -0.081 C  
HETATM    9  C   UNL     1      -7.983   4.433  71.122  1.00  0.00    -0.081 C  
ENDROOT
BRANCH   4  10
HETATM   10  O   UNL     1     -10.428   7.682  72.454  1.00  0.00    -0.214 OA 
BRANCH  10  11
HETATM   11  C   UNL     1     -11.123   7.994  71.321  1.00  0.00    -0.247 C  
HETATM   12  O   UNL     1     -12.153   7.439  70.945  1.00  0.00    -0.307 OA 
BRANCH  11  13
HETATM   13  C   UNL     1     -10.457   9.134  70.543  1.00  0.00    -0.236 C  
HETATM   14  O   UNL     1      -9.294   9.609  71.229  1.00  0.00    -0.321 OA 
HETATM   15  H   UNL     1      -8.881  10.315  70.747  1.00  0.00     0.000 HD 
BRANCH  13  16
HETATM   16  C   UNL     1     -10.030   8.720  69.150  1.00  0.00    -0.193 A  
HETATM   17  C   UNL     1      -9.029   7.751  68.980  1.00  0.00    -0.145 A  
HETATM   18  C   UNL     1      -8.656   7.332  67.702  1.00  0.00    -0.126 A  
HETATM   19  C   UNL     1      -9.280   7.873  66.580  1.00  0.00    -0.238 A  
HETATM   20  C   UNL     1     -10.274   8.836  66.732  1.00  0.00    -0.354 A  
HETATM   21  C   UNL     1     -10.647   9.259  68.009  1.00  0.00    -0.262 A  
ENDBRANCH  13  16
ENDBRANCH  11  13
ENDBRANCH  10  11
ENDBRANCH   4  10
TORSDOF 4
ENDMDL
MODEL      258
REMARK 921   NORMALIZED FREE ENERGY PREDICTED BY IDOCK:   -2.92 KCAL/MOL
REMARK 922        TOTAL FREE ENERGY PREDICTED BY IDOCK:   -4.16 KCAL/MOL
REMARK 923 INTER-LIGAND FREE ENERGY PREDICTED BY IDOCK:   -3.85 KCAL/MOL
REMARK 924 INTRA-LIGAND FREE ENERGY PREDICTED BY IDOCK:   -0.31 KCAL/MOL
REMARK 927      BINDING AFFINITY PREDICTED BY RF-SCORE:    0.00 PKD
ROOT
HETATM    1  C   UNL     1      -8.097   7.752  66.977  1.00  0.00    -0.117 C  
HETATM    2  C   UNL     1      -9.624   7.692  67.057  1.00  0.00    -0.228 C  
HETATM    3  C   UNL     1     -10.099   6.939  68.305  1.00  0.00    -0.182 C  
HETATM    4  C   UNL     1      -9.992   7.781  69.583  1.00  0.00    -0.190 C  
HETATM    5  C   UNL     1     -10.801   9.074  69.427  1.00  0.00    -0.152 C  
HETATM    6  C   UNL     1     -11.346  11.081  68.009  1.00  0.00    -0.374 C  
HETATM    7  C   UNL     1     -10.339   9.933  68.228  1.00  0.00    -0.232 C  
HETATM    8  C   UNL     1      -8.974  10.587  68.518  1.00  0.00    -0.147 C  
HETATM    9  C   UNL     1     -10.300   9.069  66.942  1.00  0.00    -0.324 C  
ENDROOT
BRANCH   4  10
HETATM   10  O   UNL     1     -10.523   7.045  70.704  1.00  0.00    -0.207 OA 
BRANCH  10  11
HETATM   11  C   UNL     1      -9.904   7.282  71.899  1.00  0.00    -0.162 C  
HETATM   12  O   UNL     1     -10.226   8.151  72.704  1.00  0.00    -0.283 OA 
BRANCH  11  13
HETATM   13  C   UNL     1      -8.725   6.329  72.124  1.00  0.00    -0.133 C  
HETATM   14  O   UNL     1      -7.745   6.923  72.983  1.00  0.00    -0.088 OA 
HETATM   15  H   UNL     1      -7.015   6.333  73.122  1.00  0.00     0.000 HD 
BRANCH  13  16
HETATM   16  C   UNL     1      -9.145   5.015  72.748  1.00  0.00    -0.137 A  
HETATM   17  C   UNL     1      -8.197   4.211  73.399  1.00  0.00    -0.090 A  
HETATM   18  C   UNL     1      -8.580   3.018  74.014  1.00  0.00    -0.073 A  
HETATM   19  C   UNL     1      -9.914   2.616  73.988  1.00  0.00    -0.154 A  
HETATM   20  C   UNL     1     -10.866   3.402  73.344  1.00  0.00    -0.311 A  
HETATM   21  C   UNL     1     -10.486   4.595  72.726  1.00  0.00    -0.261 A  
ENDBRANCH  13  16
ENDBRANCH  11  13
ENDBRANCH  10  11
ENDBRANCH   4  10
TORSDOF 4
ENDMDL
MODEL      259
REMARK 921   NORMALIZED FREE ENERGY PREDICTED BY IDOCK:   -2.89 KCAL/MOL
REMARK 922        TOTAL FREE ENERGY PREDICTED BY IDOCK:   -4.12 KCAL/MOL
REMARK 923 INTER-LIGAND FREE ENERGY PREDICTED BY IDOCK:   -4.00 KCAL/MOL
REMARK 924 INTRA-LIGAND FREE ENERGY PREDICTED BY IDOCK:   -0.12 KCAL/MOL
REMARK 927      BINDING AFFINITY PREDICTED BY RF-SCORE:    0.00 PKD
ROOT
HETATM    1  C   UNL     1      -9.354  18.780  68.812  1.00  0.00    -0.357 C  
HETATM    2  C   UNL     1      -9.875  17.810  67.749  1.00  0.00    -0.295 C  
HETATM    3  C   UNL     1      -8.802  16.800  67.325  1.00  0.00    -0.216 C  
HETATM    4  C   UNL     1      -8.601  15.681  68.354  1.00  0.00    -0.173 C  
HETATM    5  C   UNL     1      -9.926  14.947  68.596  1.00  0.00    -0.224 C  
HETATM    6  C   UNL     1     -12.389  15.117  69.087  1.00  0.00    -0.087 C  
HETATM    7  C   UNL     1     -11.050  15.884  69.095  1.00  0.00    -0.302 C  
HETATM    8  C   UNL     1     -10.794  16.315  70.553  1.00  0.00    -0.137 C  
HETATM    9  C   UNL     1     -11.183  17.104  68.150  1.00  0.00     0.024 C  
ENDROOT
BRANCH   4  10
HETATM   10  O   UNL     1      -7.637  14.727  67.863  1.00  0.00    -0.114 OA 
BRANCH  10  11
HETATM   11  C   UNL     1      -8.102  13.448  67.734  1.00  0.00    -0.173 C  
HETATM   12  O   UNL     1      -8.309  12.672  68.664  1.00  0.00    -0.093 OA 
BRANCH  11  13
HETATM   13  C   UNL     1      -8.330  13.074  66.266  1.00  0.00     0.715 C  
HETATM   14  O   UNL     1      -7.978  11.707  66.027  1.00  0.00    -0.371 OA 
HETATM   15  H   UNL     1      -8.120  11.474  65.118  1.00  0.00     0.000 HD 
BRANCH  13  16
HETATM   16  C   UNL     1      -9.768  13.259  65.831  1.00  0.00    -0.188 A  
HETATM   17  C   UNL     1     -10.220  14.521  65.414  1.00  0.00    -0.415 A  
HETATM   18  C   UNL     1     -11.532  14.696  64.972  1.00  0.00    -0.386 A  
HETATM   19  C   UNL     1     -12.408  13.613  64.939  1.00  0.00    -0.442 A  
HETATM   20  C   UNL     1     -11.976  12.355  65.352  1.00  0.00    -0.457 A  
HETATM   21  C   UNL     1     -10.664  12.178  65.797  1.00  0.00    -0.303 A  
ENDBRANCH  13  16
ENDBRANCH  11  13
ENDBRANCH  10  11
ENDBRANCH   4  10
TORSDOF 4
ENDMDL
MODEL      260
REMARK 921   NORMALIZED FREE ENERGY PREDICTED BY IDOCK:   -2.86 KCAL/MOL
REMARK 922        TOTAL FREE ENERGY PREDICTED BY IDOCK:   -4.08 KCAL/MOL
REMARK 923 INTER-LIGAND FREE ENERGY PREDICTED BY IDOCK:   -4.21 KCAL/MOL
REMARK 924 INTRA-LIGAND FREE ENERGY PREDICTED BY IDOCK:    0.13 KCAL/MOL
REMARK 927      BINDING AFFINITY PREDICTED BY RF-SCORE:    0.00 PKD
ROOT
HETATM    1  C   UNL     1      -8.939  14.671  68.105  1.00  0.00    -0.179 C  
HETATM    2  C   UNL     1      -9.225  13.892  66.819  1.00  0.00    -0.267 C  
HETATM    3  C   UNL     1      -9.321  12.384  67.076  1.00  0.00    -0.204 C  
HETATM    4  C   UNL     1     -10.657  11.974  67.709  1.00  0.00    -0.207 C  
HETATM    5  C   UNL     1     -11.819  12.414  66.810  1.00  0.00    -0.385 C  
HETATM    6  C   UNL     1     -12.886  14.257  65.467  1.00  0.00    -0.334 C  
HETATM    7  C   UNL     1     -11.839  13.938  66.555  1.00  0.00    -0.440 C  
HETATM    8  C   UNL     1     -12.271  14.699  67.824  1.00  0.00    -0.082 C  
HETATM    9  C   UNL     1     -10.453  14.409  66.048  1.00  0.00    -0.307 C  
ENDROOT
BRANCH   4  10
HETATM   10  O   UNL     1     -10.714  10.540  67.855  1.00  0.00    -0.218 OA 
BRANCH  10  11
HETATM   11  C   UNL     1      -9.720   9.853  67.218  1.00  0.00    -0.171 C  
HETATM   12  O   UNL     1      -9.503   9.877  66.009  1.00  0.00    -0.173 OA 
BRANCH  11  13
HETATM   13  C   UNL     1      -8.891   9.016  68.199  1.00  0.00    -0.133 C  
HETATM   14  O   UNL     1      -8.543   9.784  69.356  1.00  0.00    -0.138 OA 
HETATM   15  H   UNL     1      -8.029   9.266  69.964  1.00  0.00     0.000 HD 
BRANCH  13  16
HETATM   16  C   UNL     1      -9.619   7.777  68.673  1.00  0.00    -0.154 A  
HETATM   17  C   UNL     1     -10.158   7.730  69.969  1.00  0.00    -0.201 A  
HETATM   18  C   UNL     1     -10.867   6.609  70.403  1.00  0.00    -0.316 A  
HETATM   19  C   UNL     1     -11.050   5.524  69.548  1.00  0.00     0.067 A  
HETATM   20  C   UNL     1     -10.520   5.555  68.261  1.00  0.00    -0.225 A  
HETATM   21  C   UNL     1      -9.808   6.674  67.824  1.00  0.00    -0.144 A  
ENDBRANCH  13  16
ENDBRANCH  11  13
ENDBRANCH  10  11
ENDBRANCH   4  10
TORSDOF 4
ENDMDL
MODEL      261
REMARK 921   NORMALIZED FREE ENERGY PREDICTED BY IDOCK:   -2.81 KCAL/MOL
REMARK 922        TOTAL FREE ENERGY PREDICTED BY IDOCK:   -4.01 KCAL/MOL
REMARK 923 INTER-LIGAND FREE ENERGY PREDICTED BY IDOCK:   -4.03 KCAL/MOL
REMARK 924 INTRA-LIGAND FREE ENERGY PREDICTED BY IDOCK:    0.01 KCAL/MOL
REMARK 927      BINDING AFFINITY PREDICTED BY RF-SCORE:    0.00 PKD
ROOT
HETATM    1  C   UNL     1     -10.828  10.972  64.430  1.00  0.00    -0.263 C  
HETATM    2  C   UNL     1      -9.420  11.306  64.928  1.00  0.00    -0.223 C  
HETATM    3  C   UNL     1      -9.451  12.036  66.276  1.00  0.00    -0.237 C  
HETATM    4  C   UNL     1      -9.725  11.094  67.455  1.00  0.00    -0.173 C  
HETATM    5  C   UNL     1      -8.664   9.987  67.498  1.00  0.00    -0.125 C  
HETATM    6  C   UNL     1      -7.377   8.228  66.237  1.00  0.00    -0.078 C  
HETATM    7  C   UNL     1      -8.613   9.152  66.197  1.00  0.00    -0.149 C  
HETATM    8  C   UNL     1      -9.848   8.238  66.086  1.00  0.00    -0.138 C  
HETATM    9  C   UNL     1      -8.479  10.089  64.971  1.00  0.00    -0.167 C  
ENDROOT
BRANCH   4  10
HETATM   10  O   UNL     1      -9.666  11.827  68.696  1.00  0.00    -0.191 OA 
BRANCH  10  11
HETATM   11  C   UNL     1      -9.178  13.099  68.595  1.00  0.00     0.029 C  
HETATM   12  O   UNL     1      -7.987  13.402  68.576  1.00  0.00    -0.139 OA 
BRANCH  11  13
HETATM   13  C   UNL     1     -10.305  14.134  68.518  1.00  0.00    -0.249 C  
HETATM   14  O   UNL     1     -10.776  14.474  69.826  1.00  0.00    -0.414 OA 
HETATM   15  H   UNL     1     -11.474  15.115  69.779  1.00  0.00     0.000 HD 
BRANCH  13  16
HETATM   16  C   UNL     1      -9.876  15.417  67.838  1.00  0.00    -0.219 A  
HETATM   17  C   UNL     1      -9.177  16.396  68.561  1.00  0.00    -0.226 A  
HETATM   18  C   UNL     1      -8.740  17.565  67.934  1.00  0.00    -0.247 A  
HETATM   19  C   UNL     1      -8.994  17.767  66.580  1.00  0.00    -0.280 A  
HETATM   20  C   UNL     1      -9.687  16.806  65.849  1.00  0.00    -0.247 A  
HETATM   21  C   UNL     1     -10.127  15.637  66.474  1.00  0.00    -0.293 A  
ENDBRANCH  13  16
ENDBRANCH  11  13
ENDBRANCH  10  11
ENDBRANCH   4  10
TORSDOF 4
ENDMDL
MODEL      262
REMARK 921   NORMALIZED FREE ENERGY PREDICTED BY IDOCK:   -2.77 KCAL/MOL
REMARK 922        TOTAL FREE ENERGY PREDICTED BY IDOCK:   -3.97 KCAL/MOL
REMARK 923 INTER-LIGAND FREE ENERGY PREDICTED BY IDOCK:   -4.28 KCAL/MOL
REMARK 924 INTRA-LIGAND FREE ENERGY PREDICTED BY IDOCK:    0.30 KCAL/MOL
REMARK 927      BINDING AFFINITY PREDICTED BY RF-SCORE:    0.00 PKD
ROOT
HETATM    1  C   UNL     1      -7.183  17.618  68.856  1.00  0.00    -0.256 C  
HETATM    2  C   UNL     1      -7.123  16.720  67.618  1.00  0.00    -0.154 C  
HETATM    3  C   UNL     1      -7.058  15.236  67.995  1.00  0.00    -0.139 C  
HETATM    4  C   UNL     1      -8.417  14.673  68.427  1.00  0.00    -0.160 C  
HETATM    5  C   UNL     1      -9.446  14.872  67.307  1.00  0.00    -0.216 C  
HETATM    6  C   UNL     1     -10.492  16.438  65.636  1.00  0.00    -0.364 C  
HETATM    7  C   UNL     1      -9.626  16.355  66.911  1.00  0.00    -0.255 C  
HETATM    8  C   UNL     1     -10.381  17.126  68.012  1.00  0.00    -0.353 C  
HETATM    9  C   UNL     1      -8.248  16.993  66.605  1.00  0.00    -0.295 C  
ENDROOT
BRANCH   4  10
HETATM   10  O   UNL     1      -8.304  13.260  68.694  1.00  0.00    -0.109 OA 
BRANCH  10  11
HETATM   11  C   UNL     1      -9.079  12.458  67.905  1.00  0.00    -0.191 C  
HETATM   12  O   UNL     1      -8.912  12.274  66.702  1.00  0.00    -0.204 OA 
BRANCH  11  13
HETATM   13  C   UNL     1     -10.213  11.804  68.701  1.00  0.00    -0.201 C  
HETATM   14  O   UNL     1     -11.418  11.758  67.928  1.00  0.00    -0.279 OA 
HETATM   15  H   UNL     1     -12.121  11.353  68.421  1.00  0.00     0.000 HD 
BRANCH  13  16
HETATM   16  C   UNL     1      -9.889  10.389  69.129  1.00  0.00    -0.237 A  
HETATM   17  C   UNL     1     -10.924   9.473  69.372  1.00  0.00    -0.192 A  
HETATM   18  C   UNL     1     -10.636   8.154  69.728  1.00  0.00    -0.231 A  
HETATM   19  C   UNL     1      -9.313   7.734  69.841  1.00  0.00    -0.157 A  
HETATM   20  C   UNL     1      -8.274   8.632  69.605  1.00  0.00    -0.114 A  
HETATM   21  C   UNL     1      -8.559   9.952  69.252  1.00  0.00    -0.169 A  
ENDBRANCH  13  16
ENDBRANCH  11  13
ENDBRANCH  10  11
ENDBRANCH   4  10
TORSDOF 4
ENDMDL
MODEL      263
REMARK 921   NORMALIZED FREE ENERGY PREDICTED BY IDOCK:   -2.77 KCAL/MOL
REMARK 922        TOTAL FREE ENERGY PREDICTED BY IDOCK:   -3.97 KCAL/MOL
REMARK 923 INTER-LIGAND FREE ENERGY PREDICTED BY IDOCK:   -4.43 KCAL/MOL
REMARK 924 INTRA-LIGAND FREE ENERGY PREDICTED BY IDOCK:    0.46 KCAL/MOL
REMARK 927      BINDING AFFINITY PREDICTED BY RF-SCORE:    0.00 PKD
ROOT
HETATM    1  C   UNL     1     -10.000  19.721  68.274  1.00  0.00    -0.557 C  
HETATM    2  C   UNL     1      -9.452  18.803  67.178  1.00  0.00    -0.328 C  
HETATM    3  C   UNL     1      -8.045  18.295  67.513  1.00  0.00    -0.241 C  
HETATM    4  C   UNL     1      -8.052  17.169  68.554  1.00  0.00    -0.260 C  
HETATM    5  C   UNL     1      -8.913  16.001  68.056  1.00  0.00    -0.187 C  
HETATM    6  C   UNL     1     -11.095  15.248  67.050  1.00  0.00    -0.305 C  
HETATM    7  C   UNL     1     -10.373  16.413  67.760  1.00  0.00    -0.287 C  
HETATM    8  C   UNL     1     -11.141  16.680  69.069  1.00  0.00    -0.234 C  
HETATM    9  C   UNL     1     -10.397  17.643  66.819  1.00  0.00    -0.331 C  
ENDROOT
BRANCH   4  10
HETATM   10  O   UNL     1      -6.710  16.685  68.767  1.00  0.00    -0.155 OA 
BRANCH  10  11
HETATM   11  C   UNL     1      -6.623  15.396  69.209  1.00  0.00    -0.143 C  
HETATM   12  O   UNL     1      -6.552  15.054  70.387  1.00  0.00    -0.117 OA 
BRANCH  11  13
HETATM   13  C   UNL     1      -6.611  14.397  68.047  1.00  0.00    -0.150 C  
HETATM   14  O   UNL     1      -5.319  14.345  67.433  1.00  0.00    -0.334 OA 
HETATM   15  H   UNL     1      -5.312  13.726  66.712  1.00  0.00     0.000 HD 
BRANCH  13  16
HETATM   16  C   UNL     1      -6.970  12.991  68.480  1.00  0.00    -0.102 A  
HETATM   17  C   UNL     1      -6.150  12.303  69.387  1.00  0.00    -0.107 A  
HETATM   18  C   UNL     1      -6.492  11.023  69.825  1.00  0.00    -0.137 A  
HETATM   19  C   UNL     1      -7.659  10.416  69.364  1.00  0.00    -0.140 A  
HETATM   20  C   UNL     1      -8.482  11.085  68.462  1.00  0.00    -0.153 A  
HETATM   21  C   UNL     1      -8.141  12.365  68.021  1.00  0.00    -0.162 A  
ENDBRANCH  13  16
ENDBRANCH  11  13
ENDBRANCH  10  11
ENDBRANCH   4  10
TORSDOF 4
ENDMDL
MODEL      264
REMARK 921   NORMALIZED FREE ENERGY PREDICTED BY IDOCK:   -2.76 KCAL/MOL
REMARK 922        TOTAL FREE ENERGY PREDICTED BY IDOCK:   -3.95 KCAL/MOL
REMARK 923 INTER-LIGAND FREE ENERGY PREDICTED BY IDOCK:   -3.32 KCAL/MOL
REMARK 924 INTRA-LIGAND FREE ENERGY PREDICTED BY IDOCK:   -0.63 KCAL/MOL
REMARK 927      BINDING AFFINITY PREDICTED BY RF-SCORE:    0.00 PKD
ROOT
HETATM    1  C   UNL     1      -7.024  12.937  69.767  1.00  0.00     0.384 C  
HETATM    2  C   UNL     1      -6.189  11.703  69.416  1.00  0.00    -0.100 C  
HETATM    3  C   UNL     1      -6.760  10.430  70.051  1.00  0.00    -0.145 C  
HETATM    4  C   UNL     1      -7.993   9.898  69.309  1.00  0.00    -0.121 C  
HETATM    5  C   UNL     1      -7.642   9.624  67.841  1.00  0.00    -0.083 C  
HETATM    6  C   UNL     1      -6.579  10.464  65.719  1.00  0.00    -0.126 C  
HETATM    7  C   UNL     1      -7.122  10.879  67.102  1.00  0.00    -0.103 C  
HETATM    8  C   UNL     1      -8.268  11.878  66.849  1.00  0.00    -0.157 C  
HETATM    9  C   UNL     1      -5.964  11.524  67.904  1.00  0.00    -0.045 C  
ENDROOT
BRANCH   4  10
HETATM   10  O   UNL     1      -8.434   8.662  69.908  1.00  0.00    -0.122 OA 
BRANCH  10  11
HETATM   11  C   UNL     1      -9.434   8.790  70.829  1.00  0.00    -0.206 C  
HETATM   12  O   UNL     1      -9.283   9.148  71.994  1.00  0.00    -0.339 OA 
BRANCH  11  13
HETATM   13  C   UNL     1     -10.798   8.415  70.240  1.00  0.00    -0.239 C  
HETATM   14  O   UNL     1     -11.456   9.568  69.703  1.00  0.00    -0.429 OA 
HETATM   15  H   UNL     1     -12.301   9.336  69.338  1.00  0.00     0.000 HD 
BRANCH  13  16
HETATM   16  C   UNL     1     -10.696   7.388  69.133  1.00  0.00    -0.180 A  
HETATM   17  C   UNL     1     -10.751   7.793  67.790  1.00  0.00    -0.197 A  
HETATM   18  C   UNL     1     -10.616   6.861  66.761  1.00  0.00    -0.304 A  
HETATM   19  C   UNL     1     -10.423   5.514  67.060  1.00  0.00    -0.336 A  
HETATM   20  C   UNL     1     -10.368   5.095  68.387  1.00  0.00    -0.140 A  
HETATM   21  C   UNL     1     -10.504   6.026  69.419  1.00  0.00    -0.331 A  
ENDBRANCH  13  16
ENDBRANCH  11  13
ENDBRANCH  10  11
ENDBRANCH   4  10
TORSDOF 4
ENDMDL
MODEL      265
REMARK 921   NORMALIZED FREE ENERGY PREDICTED BY IDOCK:   -2.74 KCAL/MOL
REMARK 922        TOTAL FREE ENERGY PREDICTED BY IDOCK:   -3.93 KCAL/MOL
REMARK 923 INTER-LIGAND FREE ENERGY PREDICTED BY IDOCK:   -3.34 KCAL/MOL
REMARK 924 INTRA-LIGAND FREE ENERGY PREDICTED BY IDOCK:   -0.59 KCAL/MOL
REMARK 927      BINDING AFFINITY PREDICTED BY RF-SCORE:    0.00 PKD
ROOT
HETATM    1  C   UNL     1     -10.837  10.807  66.828  1.00  0.00    -0.256 C  
HETATM    2  C   UNL     1     -10.853  11.485  68.200  1.00  0.00    -0.259 C  
HETATM    3  C   UNL     1      -9.438  11.664  68.763  1.00  0.00    -0.068 C  
HETATM    4  C   UNL     1      -8.685  12.831  68.113  1.00  0.00    -0.193 C  
HETATM    5  C   UNL     1      -9.476  14.132  68.297  1.00  0.00    -0.211 C  
HETATM    6  C   UNL     1     -11.694  15.311  68.125  1.00  0.00    -0.297 C  
HETATM    7  C   UNL     1     -10.898  14.062  67.693  1.00  0.00    -0.270 C  
HETATM    8  C   UNL     1     -10.838  14.082  66.154  1.00  0.00    -0.291 C  
HETATM    9  C   UNL     1     -11.638  12.808  68.223  1.00  0.00    -0.375 C  
ENDROOT
BRANCH   4  10
HETATM   10  O   UNL     1      -7.394  12.994  68.737  1.00  0.00    -0.105 OA 
BRANCH  10  11
HETATM   11  C   UNL     1      -6.405  12.196  68.237  1.00  0.00    -0.053 C  
HETATM   12  O   UNL     1      -6.046  12.163  67.063  1.00  0.00    -0.155 OA 
BRANCH  11  13
HETATM   13  C   UNL     1      -5.783  11.314  69.326  1.00  0.00    -0.043 C  
HETATM   14  O   UNL     1      -5.880  11.942  70.608  1.00  0.00    -0.244 OA 
HETATM   15  H   UNL     1      -5.495  11.395  71.283  1.00  0.00     0.000 HD 
BRANCH  13  16
HETATM   16  C   UNL     1      -6.446   9.956  69.428  1.00  0.00    -0.046 A  
HETATM   17  C   UNL     1      -7.452   9.735  70.382  1.00  0.00    -0.161 A  
HETATM   18  C   UNL     1      -8.099   8.501  70.459  1.00  0.00    -0.112 A  
HETATM   19  C   UNL     1      -7.751   7.474  69.583  1.00  0.00    -0.100 A  
HETATM   20  C   UNL     1      -6.754   7.678  68.632  1.00  0.00    -0.054 A  
HETATM   21  C   UNL     1      -6.103   8.911  68.555  1.00  0.00    -0.046 A  
ENDBRANCH  13  16
ENDBRANCH  11  13
ENDBRANCH  10  11
ENDBRANCH   4  10
TORSDOF 4
ENDMDL
MODEL      266
REMARK 921   NORMALIZED FREE ENERGY PREDICTED BY IDOCK:   -2.65 KCAL/MOL
REMARK 922        TOTAL FREE ENERGY PREDICTED BY IDOCK:   -3.83 KCAL/MOL
REMARK 923 INTER-LIGAND FREE ENERGY PREDICTED BY IDOCK:   -3.36 KCAL/MOL
REMARK 924 INTRA-LIGAND FREE ENERGY PREDICTED BY IDOCK:   -0.47 KCAL/MOL
REMARK 927      BINDING AFFINITY PREDICTED BY RF-SCORE:    0.00 PKD
ROOT
HETATM    1  C   UNL     1      -7.554   7.165  62.569  1.00  0.00    -0.107 C  
HETATM    2  C   UNL     1      -6.543   7.476  63.675  1.00  0.00    -0.053 C  
HETATM    3  C   UNL     1      -6.792   8.853  64.302  1.00  0.00    -0.082 C  
HETATM    4  C   UNL     1      -7.973   8.856  65.279  1.00  0.00    -0.116 C  
HETATM    5  C   UNL     1      -7.737   7.824  66.389  1.00  0.00    -0.093 C  
HETATM    6  C   UNL     1      -7.086   5.470  66.997  1.00  0.00    -0.070 C  
HETATM    7  C   UNL     1      -7.545   6.390  65.847  1.00  0.00    -0.084 C  
HETATM    8  C   UNL     1      -8.880   5.820  65.328  1.00  0.00    -0.057 C  
HETATM    9  C   UNL     1      -6.451   6.379  64.750  1.00  0.00    -0.034 C  
ENDROOT
BRANCH   4  10
HETATM   10  O   UNL     1      -8.106  10.156  65.889  1.00  0.00    -0.125 OA 
BRANCH  10  11
HETATM   11  C   UNL     1      -9.350  10.714  65.800  1.00  0.00    -0.186 C  
HETATM   12  O   UNL     1      -9.948  10.948  64.752  1.00  0.00    -0.257 OA 
BRANCH  11  13
HETATM   13  C   UNL     1      -9.928  11.036  67.182  1.00  0.00    -0.187 C  
HETATM   14  O   UNL     1      -8.988  10.720  68.214  1.00  0.00    -0.132 OA 
HETATM   15  H   UNL     1      -9.346  10.919  69.071  1.00  0.00     0.000 HD 
BRANCH  13  16
HETATM   16  C   UNL     1     -10.304  12.494  67.334  1.00  0.00    -0.222 A  
HETATM   17  C   UNL     1      -9.396  13.497  66.961  1.00  0.00    -0.247 A  
HETATM   18  C   UNL     1      -9.747  14.845  67.058  1.00  0.00    -0.240 A  
HETATM   19  C   UNL     1     -11.009  15.206  67.526  1.00  0.00    -0.310 A  
HETATM   20  C   UNL     1     -11.920  14.223  67.902  1.00  0.00    -0.364 A  
HETATM   21  C   UNL     1     -11.571  12.874  67.808  1.00  0.00    -0.391 A  
ENDBRANCH  13  16
ENDBRANCH  11  13
ENDBRANCH  10  11
ENDBRANCH   4  10
TORSDOF 4
ENDMDL
MODEL      267
REMARK 921   NORMALIZED FREE ENERGY PREDICTED BY IDOCK:   -2.56 KCAL/MOL
REMARK 922        TOTAL FREE ENERGY PREDICTED BY IDOCK:   -3.71 KCAL/MOL
REMARK 923 INTER-LIGAND FREE ENERGY PREDICTED BY IDOCK:   -3.24 KCAL/MOL
REMARK 924 INTRA-LIGAND FREE ENERGY PREDICTED BY IDOCK:   -0.46 KCAL/MOL
REMARK 927      BINDING AFFINITY PREDICTED BY RF-SCORE:    0.00 PKD
ROOT
HETATM    1  C   UNL     1     -11.022  13.167  70.049  1.00  0.00     0.542 C  
HETATM    2  C   UNL     1     -11.924  11.947  69.847  1.00  0.00    -0.398 C  
HETATM    3  C   UNL     1     -12.150  11.648  68.360  1.00  0.00    -0.105 C  
HETATM    4  C   UNL     1     -10.948  10.959  67.704  1.00  0.00    -0.293 C  
HETATM    5  C   UNL     1     -10.622   9.656  68.445  1.00  0.00    -0.264 C  
HETATM    6  C   UNL     1     -10.226   8.508  70.650  1.00  0.00    -0.230 C  
HETATM    7  C   UNL     1     -10.310   9.877  69.943  1.00  0.00    -0.298 C  
HETATM    8  C   UNL     1      -8.937  10.554  70.121  1.00  0.00     0.644 C  
HETATM    9  C   UNL     1     -11.446  10.697  70.605  1.00  0.00    -0.374 C  
ENDROOT
BRANCH   4  10
HETATM   10  O   UNL     1     -11.252  10.636  66.331  1.00  0.00    -0.019 OA 
BRANCH  10  11
HETATM   11  C   UNL     1     -10.193  10.705  65.472  1.00  0.00    -0.262 C  
HETATM   12  O   UNL     1      -9.395   9.796  65.256  1.00  0.00    -0.217 OA 
BRANCH  11  13
HETATM   13  C   UNL     1     -10.098  12.078  64.798  1.00  0.00    -0.257 C  
HETATM   14  O   UNL     1     -11.359  12.460  64.238  1.00  0.00    -0.319 OA 
HETATM   15  H   UNL     1     -11.300  13.311  63.820  1.00  0.00     0.000 HD 
BRANCH  13  16
HETATM   16  C   UNL     1      -9.670  13.171  65.754  1.00  0.00    -0.151 A  
HETATM   17  C   UNL     1     -10.131  14.485  65.571  1.00  0.00    -0.394 A  
HETATM   18  C   UNL     1      -9.777  15.492  66.470  1.00  0.00    -0.290 A  
HETATM   19  C   UNL     1      -8.962  15.200  67.561  1.00  0.00    -0.187 A  
HETATM   20  C   UNL     1      -8.495  13.903  67.755  1.00  0.00    -0.183 A  
HETATM   21  C   UNL     1      -8.846  12.893  66.857  1.00  0.00    -0.188 A  
ENDBRANCH  13  16
ENDBRANCH  11  13
ENDBRANCH  10  11
ENDBRANCH   4  10
TORSDOF 4
ENDMDL
MODEL      268
REMARK 921   NORMALIZED FREE ENERGY PREDICTED BY IDOCK:   -2.55 KCAL/MOL
REMARK 922        TOTAL FREE ENERGY PREDICTED BY IDOCK:   -3.70 KCAL/MOL
REMARK 923 INTER-LIGAND FREE ENERGY PREDICTED BY IDOCK:   -3.78 KCAL/MOL
REMARK 924 INTRA-LIGAND FREE ENERGY PREDICTED BY IDOCK:    0.08 KCAL/MOL
REMARK 927      BINDING AFFINITY PREDICTED BY RF-SCORE:    0.00 PKD
ROOT
HETATM    1  C   UNL     1      -6.960   5.763  66.009  1.00  0.00    -0.059 C  
HETATM    2  C   UNL     1      -6.694   4.956  67.282  1.00  0.00    -0.055 C  
HETATM    3  C   UNL     1      -6.861   5.811  68.543  1.00  0.00    -0.063 C  
HETATM    4  C   UNL     1      -8.331   6.046  68.911  1.00  0.00    -0.107 C  
HETATM    5  C   UNL     1      -9.043   4.701  69.107  1.00  0.00    -0.166 C  
HETATM    6  C   UNL     1      -9.512   2.396  68.212  1.00  0.00    -0.222 C  
HETATM    7  C   UNL     1      -8.983   3.800  67.852  1.00  0.00    -0.158 C  
HETATM    8  C   UNL     1      -9.900   4.349  66.742  1.00  0.00    -0.241 C  
HETATM    9  C   UNL     1      -7.518   3.659  67.370  1.00  0.00    -0.067 C  
ENDROOT
BRANCH   4  10
HETATM   10  O   UNL     1      -8.418   6.789  70.144  1.00  0.00    -0.136 OA 
BRANCH  10  11
HETATM   11  C   UNL     1      -7.964   6.130  71.251  1.00  0.00    -0.113 C  
HETATM   12  O   UNL     1      -6.811   5.742  71.421  1.00  0.00    -0.059 OA 
BRANCH  11  13
HETATM   13  C   UNL     1      -9.079   5.913  72.279  1.00  0.00    -0.141 C  
HETATM   14  O   UNL     1      -8.618   6.205  73.602  1.00  0.00    -0.124 OA 
HETATM   15  H   UNL     1      -9.309   6.070  74.239  1.00  0.00     0.000 HD 
BRANCH  13  16
HETATM   16  C   UNL     1     -10.295   6.776  72.016  1.00  0.00    -0.217 A  
HETATM   17  C   UNL     1     -10.255   8.150  72.297  1.00  0.00    -0.348 A  
HETATM   18  C   UNL     1     -11.355   8.964  72.020  1.00  0.00    -0.427 A  
HETATM   19  C   UNL     1     -12.505   8.415  71.457  1.00  0.00    -0.342 A  
HETATM   20  C   UNL     1     -12.561   7.053  71.175  1.00  0.00    -0.387 A  
HETATM   21  C   UNL     1     -11.463   6.236  71.452  1.00  0.00    -0.352 A  
ENDBRANCH  13  16
ENDBRANCH  11  13
ENDBRANCH  10  11
ENDBRANCH   4  10
TORSDOF 4
ENDMDL
MODEL      269
REMARK 921   NORMALIZED FREE ENERGY PREDICTED BY IDOCK:   -2.54 KCAL/MOL
REMARK 922        TOTAL FREE ENERGY PREDICTED BY IDOCK:   -3.69 KCAL/MOL
REMARK 923 INTER-LIGAND FREE ENERGY PREDICTED BY IDOCK:   -3.19 KCAL/MOL
REMARK 924 INTRA-LIGAND FREE ENERGY PREDICTED BY IDOCK:   -0.50 KCAL/MOL
REMARK 927      BINDING AFFINITY PREDICTED BY RF-SCORE:    0.00 PKD
ROOT
HETATM    1  C   UNL     1      -8.376  11.429  66.492  1.00  0.00    -0.164 C  
HETATM    2  C   UNL     1      -9.890  11.250  66.357  1.00  0.00    -0.243 C  
HETATM    3  C   UNL     1     -10.381   9.992  67.081  1.00  0.00    -0.300 C  
HETATM    4  C   UNL     1     -10.465  10.177  68.601  1.00  0.00    -0.202 C  
HETATM    5  C   UNL     1     -11.390  11.353  68.935  1.00  0.00    -0.334 C  
HETATM    6  C   UNL     1     -12.028  13.747  68.489  1.00  0.00    -0.402 C  
HETATM    7  C   UNL     1     -10.927  12.683  68.298  1.00  0.00    -0.275 C  
HETATM    8  C   UNL     1      -9.666  13.217  69.006  1.00  0.00     0.287 C  
HETATM    9  C   UNL     1     -10.695  12.491  66.779  1.00  0.00    -0.261 C  
ENDROOT
BRANCH   4  10
HETATM   10  O   UNL     1     -11.004   8.987  69.214  1.00  0.00    -0.161 OA 
BRANCH  10  11
HETATM   11  C   UNL     1     -10.444   7.814  68.794  1.00  0.00    -0.181 C  
HETATM   12  O   UNL     1     -11.047   6.902  68.235  1.00  0.00    -0.169 OA 
BRANCH  11  13
HETATM   13  C   UNL     1      -8.946   7.754  69.114  1.00  0.00    -0.145 C  
HETATM   14  O   UNL     1      -8.707   6.973  70.289  1.00  0.00    -0.142 OA 
HETATM   15  H   UNL     1      -7.779   6.936  70.488  1.00  0.00     0.000 HD 
BRANCH  13  16
HETATM   16  C   UNL     1      -8.131   7.151  67.989  1.00  0.00    -0.120 A  
HETATM   17  C   UNL     1      -7.635   5.843  68.103  1.00  0.00    -0.089 A  
HETATM   18  C   UNL     1      -6.918   5.262  67.056  1.00  0.00    -0.065 A  
HETATM   19  C   UNL     1      -6.690   5.979  65.884  1.00  0.00    -0.052 A  
HETATM   20  C   UNL     1      -7.173   7.278  65.756  1.00  0.00    -0.070 A  
HETATM   21  C   UNL     1      -7.890   7.863  66.803  1.00  0.00    -0.103 A  
ENDBRANCH  13  16
ENDBRANCH  11  13
ENDBRANCH  10  11
ENDBRANCH   4  10
TORSDOF 4
ENDMDL
MODEL      270
REMARK 921   NORMALIZED FREE ENERGY PREDICTED BY IDOCK:   -2.51 KCAL/MOL
REMARK 922        TOTAL FREE ENERGY PREDICTED BY IDOCK:   -3.65 KCAL/MOL
REMARK 923 INTER-LIGAND FREE ENERGY PREDICTED BY IDOCK:   -3.19 KCAL/MOL
REMARK 924 INTRA-LIGAND FREE ENERGY PREDICTED BY IDOCK:   -0.46 KCAL/MOL
REMARK 927      BINDING AFFINITY PREDICTED BY RF-SCORE:    0.00 PKD
ROOT
HETATM    1  C   UNL     1      -7.087   5.934  66.363  1.00  0.00    -0.068 C  
HETATM    2  C   UNL     1      -6.885   5.185  67.682  1.00  0.00    -0.060 C  
HETATM    3  C   UNL     1      -7.354   6.013  68.884  1.00  0.00    -0.085 C  
HETATM    4  C   UNL     1      -8.880   6.024  69.038  1.00  0.00    -0.121 C  
HETATM    5  C   UNL     1      -9.403   4.588  69.171  1.00  0.00    -0.214 C  
HETATM    6  C   UNL     1      -9.391   2.232  68.284  1.00  0.00    -0.267 C  
HETATM    7  C   UNL     1      -9.033   3.699  67.962  1.00  0.00    -0.168 C  
HETATM    8  C   UNL     1      -9.856   4.095  66.721  1.00  0.00    -0.203 C  
HETATM    9  C   UNL     1      -7.510   3.779  67.691  1.00  0.00    -0.067 C  
ENDROOT
BRANCH   4  10
HETATM   10  O   UNL     1      -9.250   6.753  70.226  1.00  0.00    -0.155 OA 
BRANCH  10  11
HETATM   11  C   UNL     1     -10.154   7.759  70.030  1.00  0.00    -0.201 C  
HETATM   12  O   UNL     1     -11.161   7.681  69.331  1.00  0.00    -0.126 OA 
BRANCH  11  13
HETATM   13  C   UNL     1      -9.758   9.032  70.787  1.00  0.00    -0.246 C  
HETATM   14  O   UNL     1     -10.893   9.610  71.441  1.00  0.00    -0.340 OA 
HETATM   15  H   UNL     1     -10.648  10.399  71.910  1.00  0.00     0.000 HD 
BRANCH  13  16
HETATM   16  C   UNL     1      -8.699   8.782  71.839  1.00  0.00    -0.199 A  
HETATM   17  C   UNL     1      -7.339   8.860  71.501  1.00  0.00    -0.081 A  
HETATM   18  C   UNL     1      -6.354   8.673  72.472  1.00  0.00    -0.071 A  
HETATM   19  C   UNL     1      -6.715   8.408  73.791  1.00  0.00    -0.141 A  
HETATM   20  C   UNL     1      -8.060   8.325  74.142  1.00  0.00    -0.284 A  
HETATM   21  C   UNL     1      -9.048   8.510  73.173  1.00  0.00    -0.093 A  
ENDBRANCH  13  16
ENDBRANCH  11  13
ENDBRANCH  10  11
ENDBRANCH   4  10
TORSDOF 4
ENDMDL
MODEL      271
REMARK 921   NORMALIZED FREE ENERGY PREDICTED BY IDOCK:   -2.37 KCAL/MOL
REMARK 922        TOTAL FREE ENERGY PREDICTED BY IDOCK:   -3.48 KCAL/MOL
REMARK 923 INTER-LIGAND FREE ENERGY PREDICTED BY IDOCK:   -2.42 KCAL/MOL
REMARK 924 INTRA-LIGAND FREE ENERGY PREDICTED BY IDOCK:   -1.06 KCAL/MOL
REMARK 927      BINDING AFFINITY PREDICTED BY RF-SCORE:    0.00 PKD
ROOT
HETATM    1  C   UNL     1      -7.062   5.865  66.324  1.00  0.00    -0.068 C  
HETATM    2  C   UNL     1      -6.818   4.968  67.540  1.00  0.00    -0.060 C  
HETATM    3  C   UNL     1      -7.168   5.681  68.852  1.00  0.00    -0.077 C  
HETATM    4  C   UNL     1      -8.679   5.743  69.109  1.00  0.00    -0.113 C  
HETATM    5  C   UNL     1      -9.266   4.326  69.124  1.00  0.00    -0.209 C  
HETATM    6  C   UNL     1      -9.430   2.082  67.995  1.00  0.00    -0.199 C  
HETATM    7  C   UNL     1      -9.018   3.558  67.806  1.00  0.00    -0.171 C  
HETATM    8  C   UNL     1      -9.895   4.122  66.672  1.00  0.00    -0.210 C  
HETATM    9  C   UNL     1      -7.512   3.599  67.444  1.00  0.00    -0.067 C  
ENDROOT
BRANCH   4  10
HETATM   10  O   UNL     1      -8.937   6.355  70.389  1.00  0.00    -0.152 OA 
BRANCH  10  11
HETATM   11  C   UNL     1      -9.611   7.543  70.338  1.00  0.00    -0.168 C  
HETATM   12  O   UNL     1     -10.706   7.714  69.809  1.00  0.00    -0.243 OA 
BRANCH  11  13
HETATM   13  C   UNL     1      -8.827   8.669  71.020  1.00  0.00    -0.191 C  
HETATM   14  O   UNL     1      -8.445   8.294  72.348  1.00  0.00    -0.162 OA 
HETATM   15  H   UNL     1      -7.960   8.992  72.770  1.00  0.00     0.000 HD 
BRANCH  13  16
HETATM   16  C   UNL     1      -7.567   9.043  70.269  1.00  0.00    -0.087 A  
HETATM   17  C   UNL     1      -6.309   8.831  70.855  1.00  0.00    -0.049 A  
HETATM   18  C   UNL     1      -5.140   9.133  70.157  1.00  0.00    -0.028 A  
HETATM   19  C   UNL     1      -5.211   9.647  68.864  1.00  0.00    -0.036 A  
HETATM   20  C   UNL     1      -6.451   9.865  68.269  1.00  0.00    -0.055 A  
HETATM   21  C   UNL     1      -7.623   9.566  68.966  1.00  0.00    -0.075 A  
ENDBRANCH  13  16
ENDBRANCH  11  13
ENDBRANCH  10  11
ENDBRANCH   4  10
TORSDOF 4
ENDMDL
MODEL      272
REMARK 921   NORMALIZED FREE ENERGY PREDICTED BY IDOCK:   -2.37 KCAL/MOL
REMARK 922        TOTAL FREE ENERGY PREDICTED BY IDOCK:   -3.47 KCAL/MOL
REMARK 923 INTER-LIGAND FREE ENERGY PREDICTED BY IDOCK:   -2.72 KCAL/MOL
REMARK 924 INTRA-LIGAND FREE ENERGY PREDICTED BY IDOCK:   -0.76 KCAL/MOL
REMARK 927      BINDING AFFINITY PREDICTED BY RF-SCORE:    0.00 PKD
ROOT
HETATM    1  C   UNL     1      -7.109   5.805  65.204  1.00  0.00    -0.064 C  
HETATM    2  C   UNL     1      -6.831   5.369  66.645  1.00  0.00    -0.063 C  
HETATM    3  C   UNL     1      -7.205   6.463  67.652  1.00  0.00    -0.086 C  
HETATM    4  C   UNL     1      -8.716   6.554  67.895  1.00  0.00    -0.116 C  
HETATM    5  C   UNL     1      -9.251   5.202  68.385  1.00  0.00    -0.142 C  
HETATM    6  C   UNL     1      -9.334   2.707  68.061  1.00  0.00    -0.255 C  
HETATM    7  C   UNL     1      -8.976   4.051  67.391  1.00  0.00    -0.146 C  
HETATM    8  C   UNL     1      -9.875   4.179  66.146  1.00  0.00    -0.207 C  
HETATM    9  C   UNL     1      -7.474   4.021  67.015  1.00  0.00    -0.073 C  
ENDROOT
BRANCH   4  10
HETATM   10  O   UNL     1      -8.995   7.545  68.905  1.00  0.00    -0.135 OA 
BRANCH  10  11
HETATM   11  C   UNL     1      -9.801   8.572  68.502  1.00  0.00    -0.173 C  
HETATM   12  O   UNL     1     -10.746   8.469  67.724  1.00  0.00    -0.201 OA 
BRANCH  11  13
HETATM   13  C   UNL     1      -9.379   9.904  69.132  1.00  0.00    -0.193 C  
HETATM   14  O   UNL     1      -9.334   9.802  70.559  1.00  0.00    -0.330 OA 
HETATM   15  H   UNL     1      -9.073  10.627  70.950  1.00  0.00     0.000 HD 
BRANCH  13  16
HETATM   16  C   UNL     1      -8.018  10.370  68.662  1.00  0.00    -0.115 A  
HETATM   17  C   UNL     1      -7.745  10.471  67.289  1.00  0.00    -0.106 A  
HETATM   18  C   UNL     1      -6.507  10.938  66.843  1.00  0.00    -0.097 A  
HETATM   19  C   UNL     1      -5.529  11.311  67.763  1.00  0.00    -0.044 A  
HETATM   20  C   UNL     1      -5.784  11.215  69.129  1.00  0.00    -0.041 A  
HETATM   21  C   UNL     1      -7.021  10.746  69.577  1.00  0.00    -0.130 A  
ENDBRANCH  13  16
ENDBRANCH  11  13
ENDBRANCH  10  11
ENDBRANCH   4  10
TORSDOF 4
ENDMDL
MODEL      273
REMARK 921   NORMALIZED FREE ENERGY PREDICTED BY IDOCK:   -2.29 KCAL/MOL
REMARK 922        TOTAL FREE ENERGY PREDICTED BY IDOCK:   -3.38 KCAL/MOL
REMARK 923 INTER-LIGAND FREE ENERGY PREDICTED BY IDOCK:   -3.72 KCAL/MOL
REMARK 924 INTRA-LIGAND FREE ENERGY PREDICTED BY IDOCK:    0.34 KCAL/MOL
REMARK 927      BINDING AFFINITY PREDICTED BY RF-SCORE:    0.00 PKD
ROOT
HETATM    1  C   UNL     1      -9.511   5.495  68.273  1.00  0.00    -0.137 C  
HETATM    2  C   UNL     1      -8.946   6.427  67.198  1.00  0.00    -0.109 C  
HETATM    3  C   UNL     1      -9.723   7.747  67.125  1.00  0.00    -0.243 C  
HETATM    4  C   UNL     1      -9.359   8.713  68.260  1.00  0.00    -0.137 C  
HETATM    5  C   UNL     1      -7.853   9.004  68.237  1.00  0.00    -0.100 C  
HETATM    6  C   UNL     1      -5.514   8.083  68.111  1.00  0.00    -0.033 C  
HETATM    7  C   UNL     1      -6.992   7.728  68.376  1.00  0.00    -0.072 C  
HETATM    8  C   UNL     1      -7.064   7.175  69.813  1.00  0.00    -0.073 C  
HETATM    9  C   UNL     1      -7.433   6.673  67.332  1.00  0.00    -0.096 C  
ENDROOT
BRANCH   4  10
HETATM   10  O   UNL     1     -10.064   9.960  68.091  1.00  0.00    -0.154 OA 
BRANCH  10  11
HETATM   11  C   UNL     1     -10.048  10.468  66.823  1.00  0.00    -0.219 C  
HETATM   12  O   UNL     1     -10.576   9.947  65.844  1.00  0.00    -0.079 OA 
BRANCH  11  13
HETATM   13  C   UNL     1      -9.268  11.785  66.750  1.00  0.00    -0.194 C  
HETATM   14  O   UNL     1      -9.061  12.181  65.390  1.00  0.00    -0.426 OA 
HETATM   15  H   UNL     1      -8.577  12.997  65.344  1.00  0.00     0.000 HD 
BRANCH  13  16
HETATM   16  C   UNL     1      -9.973  12.923  67.456  1.00  0.00    -0.215 A  
HETATM   17  C   UNL     1      -9.237  14.018  67.934  1.00  0.00    -0.195 A  
HETATM   18  C   UNL     1      -9.881  15.092  68.550  1.00  0.00    -0.220 A  
HETATM   19  C   UNL     1     -11.267  15.087  68.693  1.00  0.00    -0.289 A  
HETATM   20  C   UNL     1     -12.011  14.007  68.226  1.00  0.00    -0.384 A  
HETATM   21  C   UNL     1     -11.369  12.930  67.611  1.00  0.00    -0.349 A  
ENDBRANCH  13  16
ENDBRANCH  11  13
ENDBRANCH  10  11
ENDBRANCH   4  10
TORSDOF 4
ENDMDL
MODEL      274
REMARK 921   NORMALIZED FREE ENERGY PREDICTED BY IDOCK:   -1.86 KCAL/MOL
REMARK 922        TOTAL FREE ENERGY PREDICTED BY IDOCK:   -2.85 KCAL/MOL
REMARK 923 INTER-LIGAND FREE ENERGY PREDICTED BY IDOCK:   -2.93 KCAL/MOL
REMARK 924 INTRA-LIGAND FREE ENERGY PREDICTED BY IDOCK:    0.09 KCAL/MOL
REMARK 927      BINDING AFFINITY PREDICTED BY RF-SCORE:    0.00 PKD
ROOT
HETATM    1  C   UNL     1      -8.004   7.769  63.513  1.00  0.00    -0.104 C  
HETATM    2  C   UNL     1      -7.167   8.333  64.664  1.00  0.00    -0.083 C  
HETATM    3  C   UNL     1      -7.808   9.586  65.271  1.00  0.00    -0.111 C  
HETATM    4  C   UNL     1      -8.990   9.262  66.192  1.00  0.00    -0.165 C  
HETATM    5  C   UNL     1      -8.535   8.323  67.317  1.00  0.00    -0.124 C  
HETATM    6  C   UNL     1      -7.300   6.228  67.966  1.00  0.00    -0.089 C  
HETATM    7  C   UNL     1      -7.937   6.998  66.791  1.00  0.00    -0.108 C  
HETATM    8  C   UNL     1      -9.043   6.093  66.214  1.00  0.00    -0.165 C  
HETATM    9  C   UNL     1      -6.832   7.293  65.747  1.00  0.00    -0.056 C  
ENDROOT
BRANCH   4  10
HETATM   10  O   UNL     1      -9.497  10.473  66.789  1.00  0.00    -0.158 OA 
BRANCH  10  11
HETATM   11  C   UNL     1      -8.543  11.336  67.248  1.00  0.00    -0.143 C  
HETATM   12  O   UNL     1      -7.769  11.110  68.175  1.00  0.00    -0.098 OA 
BRANCH  11  13
HETATM   13  C   UNL     1      -8.552  12.656  66.470  1.00  0.00     0.060 C  
HETATM   14  O   UNL     1      -9.670  12.715  65.578  1.00  0.00    -0.398 OA 
HETATM   15  H   UNL     1      -9.676  13.533  65.095  1.00  0.00     0.000 HD 
BRANCH  13  16
HETATM   16  C   UNL     1      -8.623  13.869  67.374  1.00  0.00    -0.206 A  
HETATM   17  C   UNL     1      -9.864  14.456  67.667  1.00  0.00    -0.224 A  
HETATM   18  C   UNL     1      -9.946  15.548  68.532  1.00  0.00    -0.208 A  
HETATM   19  C   UNL     1      -8.791  16.065  69.116  1.00  0.00    -0.245 A  
HETATM   20  C   UNL     1      -7.553  15.495  68.834  1.00  0.00    -0.166 A  
HETATM   21  C   UNL     1      -7.467  14.403  67.967  1.00  0.00    -0.144 A  
ENDBRANCH  13  16
ENDBRANCH  11  13
ENDBRANCH  10  11
ENDBRANCH   4  10
TORSDOF 4
ENDMDL
MODEL      275
REMARK 921   NORMALIZED FREE ENERGY PREDICTED BY IDOCK:   -0.51 KCAL/MOL
REMARK 922        TOTAL FREE ENERGY PREDICTED BY IDOCK:   -1.19 KCAL/MOL
REMARK 923 INTER-LIGAND FREE ENERGY PREDICTED BY IDOCK:   -2.66 KCAL/MOL
REMARK 924 INTRA-LIGAND FREE ENERGY PREDICTED BY IDOCK:    1.48 KCAL/MOL
REMARK 927      BINDING AFFINITY PREDICTED BY RF-SCORE:    0.00 PKD
ROOT
HETATM    1  C   UNL     1      -8.643   6.794  63.641  1.00  0.00     0.488 C  
HETATM    2  C   UNL     1      -7.727   7.670  64.499  1.00  0.00    -0.126 C  
HETATM    3  C   UNL     1      -8.495   8.352  65.637  1.00  0.00    -0.179 C  
HETATM    4  C   UNL     1      -8.798   7.401  66.802  1.00  0.00    -0.137 C  
HETATM    5  C   UNL     1      -7.492   6.808  67.347  1.00  0.00    -0.096 C  
HETATM    6  C   UNL     1      -5.296   5.685  66.845  1.00  0.00    -0.008 C  
HETATM    7  C   UNL     1      -6.686   6.040  66.276  1.00  0.00    -0.060 C  
HETATM    8  C   UNL     1      -7.376   4.707  65.925  1.00  0.00    -0.077 C  
HETATM    9  C   UNL     1      -6.485   6.929  65.024  1.00  0.00    -0.043 C  
ENDROOT
BRANCH   4  10
HETATM   10  O   UNL     1      -9.451   8.119  67.868  1.00  0.00    -0.143 OA 
BRANCH  10  11
HETATM   11  C   UNL     1      -9.834   9.393  67.559  1.00  0.00    -0.173 C  
HETATM   12  O   UNL     1      -9.496  10.010  66.552  1.00  0.00    -0.162 OA 
BRANCH  11  13
HETATM   13  C   UNL     1     -10.743   9.990  68.639  1.00  0.00    -0.226 C  
HETATM   14  O   UNL     1     -12.053  10.244  68.120  1.00  0.00    -0.534 OA 
HETATM   15  H   UNL     1     -12.616  10.614  68.789  1.00  0.00     0.000 HD 
BRANCH  13  16
HETATM   16  C   UNL     1     -10.893   9.085  69.843  1.00  0.00    -0.228 A  
HETATM   17  C   UNL     1     -10.189   9.363  71.024  1.00  0.00    -0.369 A  
HETATM   18  C   UNL     1     -10.351   8.560  72.154  1.00  0.00    -0.409 A  
HETATM   19  C   UNL     1     -11.221   7.471  72.118  1.00  0.00    -0.313 A  
HETATM   20  C   UNL     1     -11.926   7.181  70.953  1.00  0.00    -0.375 A  
HETATM   21  C   UNL     1     -11.763   7.982  69.820  1.00  0.00     0.509 A  
ENDBRANCH  13  16
ENDBRANCH  11  13
ENDBRANCH  10  11
ENDBRANCH   4  10
TORSDOF 4
ENDMDL
MODEL      276
REMARK 921   NORMALIZED FREE ENERGY PREDICTED BY IDOCK:    0.04 KCAL/MOL
REMARK 922        TOTAL FREE ENERGY PREDICTED BY IDOCK:   -0.50 KCAL/MOL
REMARK 923 INTER-LIGAND FREE ENERGY PREDICTED BY IDOCK:   -0.07 KCAL/MOL
REMARK 924 INTRA-LIGAND FREE ENERGY PREDICTED BY IDOCK:   -0.43 KCAL/MOL
REMARK 927      BINDING AFFINITY PREDICTED BY RF-SCORE:    0.00 PKD
ROOT
HETATM    1  C   UNL     1      -6.690  13.669  70.622  1.00  0.00     0.682 C  
HETATM    2  C   UNL     1      -6.146  12.289  70.246  1.00  0.00    -0.075 C  
HETATM    3  C   UNL     1      -7.257  11.233  70.200  1.00  0.00     0.678 C  
HETATM    4  C   UNL     1      -8.110  11.325  68.928  1.00  0.00    -0.090 C  
HETATM    5  C   UNL     1      -7.218  11.184  67.688  1.00  0.00    -0.094 C  
HETATM    6  C   UNL     1      -5.129  11.902  66.482  1.00  0.00     0.088 C  
HETATM    7  C   UNL     1      -6.108  12.258  67.620  1.00  0.00    -0.120 C  
HETATM    8  C   UNL     1      -6.704  13.637  67.278  1.00  0.00     0.169 C  
HETATM    9  C   UNL     1      -5.316  12.288  68.951  1.00  0.00    -0.054 C  
ENDROOT
BRANCH   4  10
HETATM   10  O   UNL     1      -9.084  10.261  68.910  1.00  0.00    -0.149 OA 
BRANCH  10  11
HETATM   11  C   UNL     1     -10.246  10.551  68.252  1.00  0.00    -0.163 C  
HETATM   12  O   UNL     1     -11.300  10.882  68.788  1.00  0.00    -0.248 OA 
BRANCH  11  13
HETATM   13  C   UNL     1     -10.090  10.402  66.735  1.00  0.00    -0.214 C  
HETATM   14  O   UNL     1     -10.610   9.145  66.289  1.00  0.00    -0.101 OA 
HETATM   15  H   UNL     1     -10.513   9.053  65.349  1.00  0.00     0.000 HD 
BRANCH  13  16
HETATM   16  C   UNL     1     -10.804  11.492  65.963  1.00  0.00    -0.330 A  
HETATM   17  C   UNL     1     -11.998  11.206  65.284  1.00  0.00     1.179 A  
HETATM   18  C   UNL     1     -12.687  12.212  64.604  1.00  0.00    -0.156 A  
HETATM   19  C   UNL     1     -12.192  13.515  64.597  1.00  0.00    -0.450 A  
HETATM   20  C   UNL     1     -11.007  13.814  65.264  1.00  0.00    -0.322 A  
HETATM   21  C   UNL     1     -10.315  12.809  65.943  1.00  0.00    -0.298 A  
ENDBRANCH  13  16
ENDBRANCH  11  13
ENDBRANCH  10  11
ENDBRANCH   4  10
TORSDOF 4
ENDMDL
MODEL      277
REMARK 921   NORMALIZED FREE ENERGY PREDICTED BY IDOCK:    0.77 KCAL/MOL
REMARK 922        TOTAL FREE ENERGY PREDICTED BY IDOCK:    0.39 KCAL/MOL
REMARK 923 INTER-LIGAND FREE ENERGY PREDICTED BY IDOCK:   -0.07 KCAL/MOL
REMARK 924 INTRA-LIGAND FREE ENERGY PREDICTED BY IDOCK:    0.46 KCAL/MOL
REMARK 927      BINDING AFFINITY PREDICTED BY RF-SCORE:    0.00 PKD
ROOT
HETATM    1  C   UNL     1      -9.002   6.831  63.546  1.00  0.00     1.191 C  
HETATM    2  C   UNL     1      -7.990   7.716  64.278  1.00  0.00    -0.112 C  
HETATM    3  C   UNL     1      -8.583   8.322  65.555  1.00  0.00    -0.183 C  
HETATM    4  C   UNL     1      -8.653   7.318  66.712  1.00  0.00    -0.127 C  
HETATM    5  C   UNL     1      -7.254   6.765  67.010  1.00  0.00    -0.081 C  
HETATM    6  C   UNL     1      -5.131   5.758  66.107  1.00  0.00    -0.009 C  
HETATM    7  C   UNL     1      -6.608   6.071  65.789  1.00  0.00    -0.047 C  
HETATM    8  C   UNL     1      -7.296   4.722  65.501  1.00  0.00    -0.073 C  
HETATM    9  C   UNL     1      -6.651   7.013  64.560  1.00  0.00    -0.042 C  
ENDROOT
BRANCH   4  10
HETATM   10  O   UNL     1      -9.147   7.968  67.900  1.00  0.00    -0.132 OA 
BRANCH  10  11
HETATM   11  C   UNL     1     -10.442   7.677  68.224  1.00  0.00    -0.174 C  
HETATM   12  O   UNL     1     -11.250   7.120  67.485  1.00  0.00    -0.147 OA 
BRANCH  11  13
HETATM   13  C   UNL     1     -10.791   8.145  69.641  1.00  0.00    -0.158 C  
HETATM   14  O   UNL     1     -11.321   7.066  70.419  1.00  0.00    -0.286 OA 
HETATM   15  H   UNL     1     -11.538   7.356  71.297  1.00  0.00     0.000 HD 
BRANCH  13  16
HETATM   16  C   UNL     1      -9.595   8.701  70.385  1.00  0.00    -0.196 A  
HETATM   17  C   UNL     1      -9.428   8.428  71.752  1.00  0.00    -0.302 A  
HETATM   18  C   UNL     1      -8.308   8.901  72.438  1.00  0.00     0.211 A  
HETATM   19  C   UNL     1      -7.343   9.649  71.768  1.00  0.00     0.917 A  
HETATM   20  C   UNL     1      -7.495   9.930  70.413  1.00  0.00    -0.137 A  
HETATM   21  C   UNL     1      -8.615   9.460  69.724  1.00  0.00    -0.182 A  
ENDBRANCH  13  16
ENDBRANCH  11  13
ENDBRANCH  10  11
ENDBRANCH   4  10
TORSDOF 4
ENDMDL
MODEL      278
REMARK 921   NORMALIZED FREE ENERGY PREDICTED BY IDOCK:    1.22 KCAL/MOL
REMARK 922        TOTAL FREE ENERGY PREDICTED BY IDOCK:    0.95 KCAL/MOL
REMARK 923 INTER-LIGAND FREE ENERGY PREDICTED BY IDOCK:    1.13 KCAL/MOL
REMARK 924 INTRA-LIGAND FREE ENERGY PREDICTED BY IDOCK:   -0.18 KCAL/MOL
REMARK 927      BINDING AFFINITY PREDICTED BY RF-SCORE:    0.00 PKD
ROOT
HETATM    1  C   UNL     1      -9.622   7.619  62.566  1.00  0.00     2.751 C  
HETATM    2  C   UNL     1      -8.513   8.174  63.463  1.00  0.00     0.102 C  
HETATM    3  C   UNL     1      -8.796   7.909  64.946  1.00  0.00     0.235 C  
HETATM    4  C   UNL     1      -8.503   6.461  65.356  1.00  0.00    -0.123 C  
HETATM    5  C   UNL     1      -7.042   6.113  65.044  1.00  0.00    -0.061 C  
HETATM    6  C   UNL     1      -5.162   6.145  63.370  1.00  0.00    -0.018 C  
HETATM    7  C   UNL     1      -6.689   6.287  63.549  1.00  0.00    -0.040 C  
HETATM    8  C   UNL     1      -7.341   5.177  62.702  1.00  0.00    -0.043 C  
HETATM    9  C   UNL     1      -7.105   7.699  63.066  1.00  0.00    -0.075 C  
ENDROOT
BRANCH   4  10
HETATM   10  O   UNL     1      -8.715   6.296  66.774  1.00  0.00    -0.113 OA 
BRANCH  10  11
HETATM   11  C   UNL     1      -9.693   5.404  67.114  1.00  0.00    -0.146 C  
HETATM   12  O   UNL     1     -10.199   4.584  66.353  1.00  0.00    -0.246 OA 
BRANCH  11  13
HETATM   13  C   UNL     1     -10.108   5.551  68.581  1.00  0.00    -0.183 C  
HETATM   14  O   UNL     1     -10.034   4.292  69.260  1.00  0.00    -0.167 OA 
HETATM   15  H   UNL     1     -10.292   4.383  70.170  1.00  0.00     0.000 HD 
BRANCH  13  16
HETATM   16  C   UNL     1      -9.240   6.532  69.340  1.00  0.00    -0.144 A  
HETATM   17  C   UNL     1      -7.874   6.268  69.524  1.00  0.00    -0.101 A  
HETATM   18  C   UNL     1      -7.056   7.185  70.185  1.00  0.00    -0.066 A  
HETATM   19  C   UNL     1      -7.591   8.376  70.669  1.00  0.00    -0.070 A  
HETATM   20  C   UNL     1      -8.945   8.652  70.497  1.00  0.00    -0.185 A  
HETATM   21  C   UNL     1      -9.767   7.736  69.837  1.00  0.00    -0.176 A  
ENDBRANCH  13  16
ENDBRANCH  11  13
ENDBRANCH  10  11
ENDBRANCH   4  10
TORSDOF 4
ENDMDL
MODEL      279
REMARK 921   NORMALIZED FREE ENERGY PREDICTED BY IDOCK:    2.10 KCAL/MOL
REMARK 922        TOTAL FREE ENERGY PREDICTED BY IDOCK:    2.04 KCAL/MOL
REMARK 923 INTER-LIGAND FREE ENERGY PREDICTED BY IDOCK:    2.11 KCAL/MOL
REMARK 924 INTRA-LIGAND FREE ENERGY PREDICTED BY IDOCK:   -0.08 KCAL/MOL
REMARK 927      BINDING AFFINITY PREDICTED BY RF-SCORE:    0.00 PKD
ROOT
HETATM    1  C   UNL     1      -5.864  14.415  71.161  1.00  0.00    -0.169 C  
HETATM    2  C   UNL     1      -5.689  13.144  70.327  1.00  0.00    -0.155 C  
HETATM    3  C   UNL     1      -6.978  12.317  70.273  1.00  0.00     1.211 C  
HETATM    4  C   UNL     1      -8.017  12.897  69.306  1.00  0.00     0.627 C  
HETATM    5  C   UNL     1      -7.418  13.003  67.898  1.00  0.00    -0.137 C  
HETATM    6  C   UNL     1      -5.490  13.744  66.459  1.00  0.00     3.140 C  
HETATM    7  C   UNL     1      -6.148  13.883  67.848  1.00  0.00    -0.153 C  
HETATM    8  C   UNL     1      -6.507  15.371  68.022  1.00  0.00    -0.148 C  
HETATM    9  C   UNL     1      -5.132  13.407  68.917  1.00  0.00    -0.067 C  
ENDROOT
BRANCH   4  10
HETATM   10  O   UNL     1      -9.171  12.034  69.245  1.00  0.00     0.397 OA 
BRANCH  10  11
HETATM   11  C   UNL     1     -10.296  12.608  68.725  1.00  0.00    -0.112 C  
HETATM   12  O   UNL     1     -11.212  13.095  69.382  1.00  0.00    -0.226 OA 
BRANCH  11  13
HETATM   13  C   UNL     1     -10.297  12.566  67.193  1.00  0.00    -0.220 C  
HETATM   14  O   UNL     1     -11.315  11.684  66.707  1.00  0.00    -0.326 OA 
HETATM   15  H   UNL     1     -11.316  11.657  65.758  1.00  0.00     0.000 HD 
BRANCH  13  16
HETATM   16  C   UNL     1     -10.534  13.925  66.570  1.00  0.00    -0.282 A  
HETATM   17  C   UNL     1     -11.213  14.029  65.346  1.00  0.00    -0.319 A  
HETATM   18  C   UNL     1     -11.473  15.280  64.782  1.00  0.00    -0.364 A  
HETATM   19  C   UNL     1     -11.061  16.439  65.435  1.00  0.00    -0.055 A  
HETATM   20  C   UNL     1     -10.385  16.353  66.649  1.00  0.00    -0.292 A  
HETATM   21  C   UNL     1     -10.121  15.103  67.214  1.00  0.00    -0.235 A  
ENDBRANCH  13  16
ENDBRANCH  11  13
ENDBRANCH  10  11
ENDBRANCH   4  10
TORSDOF 4
ENDMDL
MODEL      280
REMARK 921   NORMALIZED FREE ENERGY PREDICTED BY IDOCK:    3.67 KCAL/MOL
REMARK 922        TOTAL FREE ENERGY PREDICTED BY IDOCK:    3.98 KCAL/MOL
REMARK 923 INTER-LIGAND FREE ENERGY PREDICTED BY IDOCK:    3.24 KCAL/MOL
REMARK 924 INTRA-LIGAND FREE ENERGY PREDICTED BY IDOCK:    0.74 KCAL/MOL
REMARK 927      BINDING AFFINITY PREDICTED BY RF-SCORE:    0.00 PKD
ROOT
HETATM    1  C   UNL     1      -5.854  14.434  71.262  1.00  0.00    -0.149 C  
HETATM    2  C   UNL     1      -5.837  13.046  70.617  1.00  0.00    -0.123 C  
HETATM    3  C   UNL     1      -7.238  12.425  70.566  1.00  0.00     2.658 C  
HETATM    4  C   UNL     1      -8.107  13.014  69.448  1.00  0.00     0.919 C  
HETATM    5  C   UNL     1      -7.415  12.827  68.092  1.00  0.00    -0.124 C  
HETATM    6  C   UNL     1      -5.308  13.054  66.734  1.00  0.00     1.127 C  
HETATM    7  C   UNL     1      -6.018  13.487  68.034  1.00  0.00    -0.131 C  
HETATM    8  C   UNL     1      -6.141  15.022  67.983  1.00  0.00    -0.161 C  
HETATM    9  C   UNL     1      -5.160  13.019  69.236  1.00  0.00    -0.073 C  
ENDROOT
BRANCH   4  10
HETATM   10  O   UNL     1      -9.380  12.337  69.405  1.00  0.00     0.674 OA 
BRANCH  10  11
HETATM   11  C   UNL     1      -9.352  11.084  68.861  1.00  0.00    -0.145 C  
HETATM   12  O   UNL     1      -9.625  10.811  67.695  1.00  0.00    -0.157 OA 
BRANCH  11  13
HETATM   13  C   UNL     1      -8.943  10.028  69.893  1.00  0.00    -0.146 C  
HETATM   14  O   UNL     1     -10.055   9.665  70.719  1.00  0.00    -0.278 OA 
HETATM   15  H   UNL     1      -9.802   9.010  71.359  1.00  0.00     0.000 HD 
BRANCH  13  16
HETATM   16  C   UNL     1      -8.413   8.761  69.256  1.00  0.00    -0.122 A  
HETATM   17  C   UNL     1      -7.867   8.800  67.963  1.00  0.00    -0.102 A  
HETATM   18  C   UNL     1      -7.337   7.648  67.381  1.00  0.00    -0.092 A  
HETATM   19  C   UNL     1      -7.343   6.444  68.084  1.00  0.00    -0.089 A  
HETATM   20  C   UNL     1      -7.882   6.389  69.366  1.00  0.00    -0.105 A  
HETATM   21  C   UNL     1      -8.415   7.540  69.950  1.00  0.00    -0.138 A  
ENDBRANCH  13  16
ENDBRANCH  11  13
ENDBRANCH  10  11
ENDBRANCH   4  10
TORSDOF 4
ENDMDL
