MODEL        1
REMARK 921   NORMALIZED FREE ENERGY PREDICTED BY IDOCK:   -6.39 KCAL/MOL
REMARK 922        TOTAL FREE ENERGY PREDICTED BY IDOCK:   -8.19 KCAL/MOL
REMARK 923 INTER-LIGAND FREE ENERGY PREDICTED BY IDOCK:   -7.88 KCAL/MOL
REMARK 924 INTRA-LIGAND FREE ENERGY PREDICTED BY IDOCK:   -0.30 KCAL/MOL
REMARK 927      BINDING AFFINITY PREDICTED BY RF-SCORE:    0.00 PKD
ROOT
HETATM    1  C   UNL     1     -13.972  13.522  72.266  1.00  0.00    -0.539 C  
HETATM    2  N   UNL     1     -13.629  14.920  72.525  1.00  0.00    -0.426 NA 
HETATM    3  C   UNL     1     -12.693  14.996  73.652  1.00  0.00    -0.512 C  
ENDROOT
BRANCH   2   4
HETATM    4  C   UNL     1     -13.096  15.564  71.300  1.00  0.00    -0.511 C  
BRANCH   4   5
HETATM    5  C   UNL     1     -11.617  15.952  71.430  1.00  0.00    -0.464 C  
BRANCH   5   6
HETATM    6  O   UNL     1     -11.131  16.690  70.305  1.00  0.00    -0.297 OA 
BRANCH   6   7
HETATM    7  C   UNL     1     -10.535  15.918  69.355  1.00  0.00    -0.265 C  
HETATM    8  C   UNL     1     -10.769  16.517  67.967  1.00  0.00    -0.343 C  
HETATM    9  O   UNL     1      -9.978  14.852  69.579  1.00  0.00    -0.171 OA 
HETATM   10  C   UNL     1     -10.124  17.891  67.785  1.00  0.00    -0.350 A  
HETATM   11  C   UNL     1     -10.419  15.500  66.839  1.00  0.00    -0.301 C  
HETATM   12  O   UNL     1      -9.026  15.172  66.853  1.00  0.00    -0.218 OA 
HETATM   13  C   UNL     1      -8.889  18.217  68.361  1.00  0.00    -0.305 A  
HETATM   14  C   UNL     1     -11.233  14.195  66.906  1.00  0.00    -0.326 C  
HETATM   15  C   UNL     1     -11.061  13.591  65.515  1.00  0.00    -0.303 C  
HETATM   16  H   UNL     1      -8.813  14.552  66.166  1.00  0.00     0.000 HD 
HETATM   17  C   UNL     1      -8.310  19.467  68.132  1.00  0.00    -0.363 A  
HETATM   18  C   UNL     1      -8.943  20.397  67.308  1.00  0.00    -0.460 A  
HETATM   19  C   UNL     1     -11.093  14.784  64.572  1.00  0.00    -0.260 C  
HETATM   20  C   UNL     1     -10.772  16.013  65.427  1.00  0.00    -0.399 C  
HETATM   21  C   UNL     1     -10.170  20.089  66.733  1.00  0.00    -0.592 A  
HETATM   22  C   UNL     1     -10.765  18.855  66.985  1.00  0.00    -0.477 A  
ENDBRANCH   6   7
ENDBRANCH   5   6
ENDBRANCH   4   5
ENDBRANCH   2   4
TORSDOF 4
ENDMDL
MODEL        2
REMARK 921   NORMALIZED FREE ENERGY PREDICTED BY IDOCK:   -6.35 KCAL/MOL
REMARK 922        TOTAL FREE ENERGY PREDICTED BY IDOCK:   -8.14 KCAL/MOL
REMARK 923 INTER-LIGAND FREE ENERGY PREDICTED BY IDOCK:   -7.76 KCAL/MOL
REMARK 924 INTRA-LIGAND FREE ENERGY PREDICTED BY IDOCK:   -0.38 KCAL/MOL
REMARK 927      BINDING AFFINITY PREDICTED BY RF-SCORE:    0.00 PKD
ROOT
HETATM    1  C   UNL     1     -10.386  18.204  66.185  1.00  0.00    -0.385 C  
HETATM    2  N   UNL     1      -9.822  17.047  65.490  1.00  0.00    -0.544 NA 
HETATM    3  C   UNL     1      -8.748  16.463  66.301  1.00  0.00    -0.334 C  
ENDROOT
BRANCH   2   4
HETATM    4  C   UNL     1     -10.884  16.065  65.161  1.00  0.00    -0.395 C  
BRANCH   4   5
HETATM    5  C   UNL     1     -10.798  14.792  66.014  1.00  0.00    -0.318 C  
BRANCH   5   6
HETATM    6  O   UNL     1     -11.957  14.582  66.827  1.00  0.00    -0.397 OA 
BRANCH   6   7
HETATM    7  C   UNL     1     -11.776  14.897  68.139  1.00  0.00    -0.318 C  
HETATM    8  C   UNL     1     -12.135  13.700  69.021  1.00  0.00    -0.348 C  
HETATM    9  O   UNL     1     -11.464  16.008  68.547  1.00  0.00    -0.370 OA 
HETATM   10  C   UNL     1     -11.224  12.492  68.802  1.00  0.00    -0.318 A  
HETATM   11  C   UNL     1     -12.283  14.117  70.516  1.00  0.00    -0.361 C  
HETATM   12  O   UNL     1     -11.040  14.589  71.046  1.00  0.00    -0.513 OA 
HETATM   13  C   UNL     1      -9.856  12.631  68.531  1.00  0.00    -0.152 A  
HETATM   14  C   UNL     1     -13.360  15.190  70.757  1.00  0.00    -0.389 C  
HETATM   15  C   UNL     1     -13.629  15.099  72.257  1.00  0.00    -0.566 C  
HETATM   16  H   UNL     1     -11.130  14.843  71.957  1.00  0.00     0.000 HD 
HETATM   17  C   UNL     1      -9.047  11.501  68.384  1.00  0.00    -0.185 A  
HETATM   18  C   UNL     1      -9.587  10.224  68.528  1.00  0.00    -0.165 A  
HETATM   19  C   UNL     1     -13.560  13.612  72.570  1.00  0.00    -0.675 C  
HETATM   20  C   UNL     1     -12.780  12.969  71.420  1.00  0.00    -0.375 C  
HETATM   21  C   UNL     1     -10.942  10.072  68.792  1.00  0.00    -0.242 A  
HETATM   22  C   UNL     1     -11.758  11.196  68.908  1.00  0.00    -0.406 A  
ENDBRANCH   6   7
ENDBRANCH   5   6
ENDBRANCH   4   5
ENDBRANCH   2   4
TORSDOF 4
ENDMDL
MODEL        3
REMARK 921   NORMALIZED FREE ENERGY PREDICTED BY IDOCK:   -6.32 KCAL/MOL
REMARK 922        TOTAL FREE ENERGY PREDICTED BY IDOCK:   -8.10 KCAL/MOL
REMARK 923 INTER-LIGAND FREE ENERGY PREDICTED BY IDOCK:   -7.51 KCAL/MOL
REMARK 924 INTRA-LIGAND FREE ENERGY PREDICTED BY IDOCK:   -0.59 KCAL/MOL
REMARK 927      BINDING AFFINITY PREDICTED BY RF-SCORE:    0.00 PKD
ROOT
HETATM    1  C   UNL     1     -10.322  19.726  68.310  1.00  0.00    -0.410 C  
HETATM    2  N   UNL     1      -9.440  20.229  67.258  1.00  0.00    -0.400 NA 
HETATM    3  C   UNL     1      -8.041  20.044  67.658  1.00  0.00    -0.306 C  
ENDROOT
BRANCH   2   4
HETATM    4  C   UNL     1      -9.750  19.579  65.960  1.00  0.00    -0.309 C  
BRANCH   4   5
HETATM    5  C   UNL     1     -10.583  18.301  66.122  1.00  0.00    -0.303 C  
BRANCH   5   6
HETATM    6  O   UNL     1      -9.820  17.106  65.932  1.00  0.00    -0.486 OA 
BRANCH   6   7
HETATM    7  C   UNL     1      -9.642  16.378  67.069  1.00  0.00    -0.237 C  
HETATM    8  C   UNL     1     -10.876  15.517  67.341  1.00  0.00    -0.312 C  
HETATM    9  O   UNL     1      -8.673  16.478  67.809  1.00  0.00    -0.192 OA 
HETATM   10  C   UNL     1     -11.128  14.463  66.263  1.00  0.00    -0.331 A  
HETATM   11  C   UNL     1     -10.867  14.948  68.792  1.00  0.00    -0.252 C  
HETATM   12  O   UNL     1      -9.763  14.058  68.991  1.00  0.00    -0.401 OA 
HETATM   13  C   UNL     1     -10.080  13.795  65.615  1.00  0.00    -0.315 A  
HETATM   14  C   UNL     1     -10.828  16.032  69.884  1.00  0.00    -0.351 C  
HETATM   15  C   UNL     1     -11.273  15.292  71.142  1.00  0.00    -0.378 C  
HETATM   16  H   UNL     1      -9.757  13.712  69.875  1.00  0.00     0.000 HD 
HETATM   17  C   UNL     1     -10.351  12.803  64.670  1.00  0.00    -0.362 A  
HETATM   18  C   UNL     1     -11.667  12.451  64.376  1.00  0.00    -0.435 A  
HETATM   19  C   UNL     1     -12.360  14.342  70.665  1.00  0.00    -0.431 C  
HETATM   20  C   UNL     1     -12.160  14.188  69.155  1.00  0.00    -0.362 C  
HETATM   21  C   UNL     1     -12.717  13.107  65.007  1.00  0.00    -0.456 A  
HETATM   22  C   UNL     1     -12.449  14.118  65.928  1.00  0.00    -0.479 A  
ENDBRANCH   6   7
ENDBRANCH   5   6
ENDBRANCH   4   5
ENDBRANCH   2   4
TORSDOF 4
ENDMDL
MODEL        4
REMARK 921   NORMALIZED FREE ENERGY PREDICTED BY IDOCK:   -6.31 KCAL/MOL
REMARK 922        TOTAL FREE ENERGY PREDICTED BY IDOCK:   -8.09 KCAL/MOL
REMARK 923 INTER-LIGAND FREE ENERGY PREDICTED BY IDOCK:   -7.66 KCAL/MOL
REMARK 924 INTRA-LIGAND FREE ENERGY PREDICTED BY IDOCK:   -0.43 KCAL/MOL
REMARK 927      BINDING AFFINITY PREDICTED BY RF-SCORE:    0.00 PKD
ROOT
HETATM    1  C   UNL     1     -13.486  15.420  71.267  1.00  0.00    -0.519 C  
HETATM    2  N   UNL     1     -12.238  16.039  71.713  1.00  0.00    -0.474 NA 
HETATM    3  C   UNL     1     -12.154  15.977  73.176  1.00  0.00    -0.511 C  
ENDROOT
BRANCH   2   4
HETATM    4  C   UNL     1     -11.073  15.404  71.050  1.00  0.00    -0.331 C  
BRANCH   4   5
HETATM    5  C   UNL     1     -10.932  15.815  69.578  1.00  0.00    -0.295 C  
BRANCH   5   6
HETATM    6  O   UNL     1     -10.171  14.881  68.806  1.00  0.00    -0.228 OA 
BRANCH   6   7
HETATM    7  C   UNL     1     -10.856  14.342  67.760  1.00  0.00    -0.253 C  
HETATM    8  C   UNL     1     -10.435  12.887  67.549  1.00  0.00    -0.226 C  
HETATM    9  O   UNL     1     -11.624  14.967  67.041  1.00  0.00    -0.362 OA 
HETATM   10  C   UNL     1     -10.785  11.978  68.727  1.00  0.00    -0.252 A  
HETATM   11  C   UNL     1     -10.918  12.346  66.169  1.00  0.00    -0.286 C  
HETATM   12  O   UNL     1     -12.348  12.316  66.098  1.00  0.00    -0.588 OA 
HETATM   13  C   UNL     1     -11.960  12.145  69.472  1.00  0.00    -0.338 A  
HETATM   14  C   UNL     1     -10.383  13.147  64.968  1.00  0.00    -0.346 C  
HETATM   15  C   UNL     1     -10.597  12.206  63.785  1.00  0.00    -0.482 C  
HETATM   16  H   UNL     1     -12.642  11.987  65.257  1.00  0.00     0.000 HD 
HETATM   17  C   UNL     1     -12.269  11.264  70.512  1.00  0.00    -0.474 A  
HETATM   18  C   UNL     1     -11.422  10.196  70.806  1.00  0.00    -0.442 A  
HETATM   19  C   UNL     1     -10.279  10.823  64.332  1.00  0.00    -0.432 C  
HETATM   20  C   UNL     1     -10.396  10.928  65.855  1.00  0.00    -0.310 C  
HETATM   21  C   UNL     1     -10.251  10.021  70.078  1.00  0.00    -0.306 A  
HETATM   22  C   UNL     1      -9.926  10.917  69.061  1.00  0.00    -0.206 A  
ENDBRANCH   6   7
ENDBRANCH   5   6
ENDBRANCH   4   5
ENDBRANCH   2   4
TORSDOF 4
ENDMDL
MODEL        5
REMARK 921   NORMALIZED FREE ENERGY PREDICTED BY IDOCK:   -6.20 KCAL/MOL
REMARK 922        TOTAL FREE ENERGY PREDICTED BY IDOCK:   -7.95 KCAL/MOL
REMARK 923 INTER-LIGAND FREE ENERGY PREDICTED BY IDOCK:   -7.52 KCAL/MOL
REMARK 924 INTRA-LIGAND FREE ENERGY PREDICTED BY IDOCK:   -0.43 KCAL/MOL
REMARK 927      BINDING AFFINITY PREDICTED BY RF-SCORE:    0.00 PKD
ROOT
HETATM    1  C   UNL     1     -10.193  19.759  67.977  1.00  0.00    -0.451 C  
HETATM    2  N   UNL     1     -10.619  18.393  67.677  1.00  0.00    -0.420 NA 
HETATM    3  C   UNL     1     -10.305  18.075  66.280  1.00  0.00    -0.382 C  
ENDROOT
BRANCH   2   4
HETATM    4  C   UNL     1     -10.009  17.433  68.629  1.00  0.00    -0.340 C  
BRANCH   4   5
HETATM    5  C   UNL     1     -10.920  16.235  68.928  1.00  0.00    -0.334 C  
BRANCH   5   6
HETATM    6  O   UNL     1     -10.361  14.987  68.507  1.00  0.00    -0.220 OA 
BRANCH   6   7
HETATM    7  C   UNL     1     -11.037  14.397  67.483  1.00  0.00    -0.302 C  
HETATM    8  C   UNL     1     -10.496  12.987  67.238  1.00  0.00    -0.238 C  
HETATM    9  O   UNL     1     -11.885  14.957  66.802  1.00  0.00    -0.304 OA 
HETATM   10  C   UNL     1     -10.717  12.042  68.419  1.00  0.00    -0.255 A  
HETATM   11  C   UNL     1     -10.984  12.417  65.872  1.00  0.00    -0.288 C  
HETATM   12  O   UNL     1     -12.407  12.259  65.857  1.00  0.00    -0.618 OA 
HETATM   13  C   UNL     1     -11.871  12.096  69.211  1.00  0.00    -0.370 A  
HETATM   14  C   UNL     1     -10.572  13.272  64.660  1.00  0.00    -0.421 C  
HETATM   15  C   UNL     1     -10.748  12.325  63.476  1.00  0.00    -0.497 C  
HETATM   16  H   UNL     1     -12.705  11.912  65.024  1.00  0.00     0.000 HD 
HETATM   17  C   UNL     1     -12.058  11.183  70.252  1.00  0.00    -0.462 A  
HETATM   18  C   UNL     1     -11.108  10.193  70.499  1.00  0.00    -0.400 A  
HETATM   19  C   UNL     1     -10.286  10.972  63.993  1.00  0.00    -0.436 C  
HETATM   20  C   UNL     1     -10.351  11.054  65.521  1.00  0.00    -0.321 C  
HETATM   21  C   UNL     1      -9.956  10.129  69.725  1.00  0.00    -0.258 A  
HETATM   22  C   UNL     1      -9.753  11.058  68.706  1.00  0.00    -0.199 A  
ENDBRANCH   6   7
ENDBRANCH   5   6
ENDBRANCH   4   5
ENDBRANCH   2   4
TORSDOF 4
ENDMDL
MODEL        6
REMARK 921   NORMALIZED FREE ENERGY PREDICTED BY IDOCK:   -6.13 KCAL/MOL
REMARK 922        TOTAL FREE ENERGY PREDICTED BY IDOCK:   -7.86 KCAL/MOL
REMARK 923 INTER-LIGAND FREE ENERGY PREDICTED BY IDOCK:   -7.49 KCAL/MOL
REMARK 924 INTRA-LIGAND FREE ENERGY PREDICTED BY IDOCK:   -0.37 KCAL/MOL
REMARK 927      BINDING AFFINITY PREDICTED BY RF-SCORE:    0.00 PKD
ROOT
HETATM    1  C   UNL     1     -10.506  11.834  64.844  1.00  0.00    -0.287 C  
HETATM    2  N   UNL     1     -10.531  13.111  64.131  1.00  0.00    -0.402 NA 
HETATM    3  C   UNL     1     -11.825  13.274  63.460  1.00  0.00    -0.418 C  
ENDROOT
BRANCH   2   4
HETATM    4  C   UNL     1     -10.225  14.232  65.054  1.00  0.00    -0.372 C  
BRANCH   4   5
HETATM    5  C   UNL     1     -11.486  14.860  65.662  1.00  0.00    -0.290 C  
BRANCH   5   6
HETATM    6  O   UNL     1     -12.049  14.076  66.718  1.00  0.00    -0.428 OA 
BRANCH   6   7
HETATM    7  C   UNL     1     -11.791  14.561  67.964  1.00  0.00    -0.315 C  
HETATM    8  C   UNL     1     -12.136  13.510  69.020  1.00  0.00    -0.330 C  
HETATM    9  O   UNL     1     -11.428  15.706  68.198  1.00  0.00    -0.352 OA 
HETATM   10  C   UNL     1     -11.271  12.253  68.927  1.00  0.00    -0.323 A  
HETATM   11  C   UNL     1     -12.195  14.132  70.448  1.00  0.00    -0.356 C  
HETATM   12  O   UNL     1     -10.914  14.630  70.847  1.00  0.00    -0.513 OA 
HETATM   13  C   UNL     1      -9.916  12.306  68.575  1.00  0.00    -0.175 A  
HETATM   14  C   UNL     1     -13.228  15.265  70.589  1.00  0.00    -0.370 C  
HETATM   15  C   UNL     1     -13.422  15.390  72.098  1.00  0.00    -0.570 C  
HETATM   16  H   UNL     1     -10.950  15.010  71.717  1.00  0.00     0.000 HD 
HETATM   17  C   UNL     1      -9.147  11.140  68.547  1.00  0.00    -0.175 A  
HETATM   18  C   UNL     1      -9.713   9.914  68.893  1.00  0.00    -0.176 A  
HETATM   19  C   UNL     1     -13.377  13.959  72.611  1.00  0.00    -0.640 C  
HETATM   20  C   UNL     1     -12.675  13.138  71.525  1.00  0.00    -0.366 C  
HETATM   21  C   UNL     1     -11.057   9.845  69.240  1.00  0.00    -0.220 A  
HETATM   22  C   UNL     1     -11.834  11.002  69.238  1.00  0.00    -0.411 A  
ENDBRANCH   6   7
ENDBRANCH   5   6
ENDBRANCH   4   5
ENDBRANCH   2   4
TORSDOF 4
ENDMDL
MODEL        7
REMARK 921   NORMALIZED FREE ENERGY PREDICTED BY IDOCK:   -6.08 KCAL/MOL
REMARK 922        TOTAL FREE ENERGY PREDICTED BY IDOCK:   -7.80 KCAL/MOL
REMARK 923 INTER-LIGAND FREE ENERGY PREDICTED BY IDOCK:   -7.52 KCAL/MOL
REMARK 924 INTRA-LIGAND FREE ENERGY PREDICTED BY IDOCK:   -0.28 KCAL/MOL
REMARK 927      BINDING AFFINITY PREDICTED BY RF-SCORE:    0.00 PKD
ROOT
HETATM    1  C   UNL     1     -12.099  12.343  63.804  1.00  0.00    -0.529 C  
HETATM    2  N   UNL     1     -10.935  11.674  64.385  1.00  0.00    -0.333 NA 
HETATM    3  C   UNL     1     -10.101  11.120  63.313  1.00  0.00    -0.380 C  
ENDROOT
BRANCH   2   4
HETATM    4  C   UNL     1     -10.184  12.602  65.266  1.00  0.00    -0.284 C  
BRANCH   4   5
HETATM    5  C   UNL     1     -10.514  14.075  64.994  1.00  0.00    -0.420 C  
BRANCH   5   6
HETATM    6  O   UNL     1     -10.192  14.934  66.092  1.00  0.00    -0.273 OA 
BRANCH   6   7
HETATM    7  C   UNL     1     -11.183  15.040  67.019  1.00  0.00    -0.328 C  
HETATM    8  C   UNL     1     -10.650  15.710  68.286  1.00  0.00    -0.262 C  
HETATM    9  O   UNL     1     -12.308  14.578  66.884  1.00  0.00    -0.319 OA 
HETATM   10  C   UNL     1     -10.197  17.153  68.063  1.00  0.00    -0.332 A  
HETATM   11  C   UNL     1     -11.632  15.534  69.483  1.00  0.00    -0.350 C  
HETATM   12  O   UNL     1     -12.877  16.194  69.230  1.00  0.00    -0.258 OA 
HETATM   13  C   UNL     1     -10.864  18.015  67.182  1.00  0.00    -0.183 A  
HETATM   14  C   UNL     1     -11.919  14.064  69.840  1.00  0.00    -0.399 C  
HETATM   15  C   UNL     1     -12.499  14.142  71.249  1.00  0.00    -0.446 C  
HETATM   16  H   UNL     1     -13.477  16.086  69.959  1.00  0.00     0.000 HD 
HETATM   17  C   UNL     1     -10.449  19.341  67.041  1.00  0.00    -0.556 A  
HETATM   18  C   UNL     1      -9.380  19.829  67.793  1.00  0.00    -0.443 A  
HETATM   19  C   UNL     1     -11.697  15.237  71.935  1.00  0.00    -0.509 C  
HETATM   20  C   UNL     1     -11.071  16.074  70.815  1.00  0.00    -0.321 C  
HETATM   21  C   UNL     1      -8.706  18.984  68.667  1.00  0.00    -0.387 A  
HETATM   22  C   UNL     1      -9.099  17.653  68.786  1.00  0.00    -0.206 A  
ENDBRANCH   6   7
ENDBRANCH   5   6
ENDBRANCH   4   5
ENDBRANCH   2   4
TORSDOF 4
ENDMDL
MODEL        8
REMARK 921   NORMALIZED FREE ENERGY PREDICTED BY IDOCK:   -6.04 KCAL/MOL
REMARK 922        TOTAL FREE ENERGY PREDICTED BY IDOCK:   -7.75 KCAL/MOL
REMARK 923 INTER-LIGAND FREE ENERGY PREDICTED BY IDOCK:   -7.36 KCAL/MOL
REMARK 924 INTRA-LIGAND FREE ENERGY PREDICTED BY IDOCK:   -0.39 KCAL/MOL
REMARK 927      BINDING AFFINITY PREDICTED BY RF-SCORE:    0.00 PKD
ROOT
HETATM    1  C   UNL     1     -12.431  16.053  72.640  1.00  0.00    -0.481 C  
HETATM    2  N   UNL     1     -12.295  14.696  72.113  1.00  0.00    -0.322 NA 
HETATM    3  C   UNL     1     -13.417  13.873  72.578  1.00  0.00    -0.572 C  
ENDROOT
BRANCH   2   4
HETATM    4  C   UNL     1     -12.181  14.717  70.634  1.00  0.00    -0.325 C  
BRANCH   4   5
HETATM    5  C   UNL     1     -11.517  15.997  70.109  1.00  0.00    -0.344 C  
BRANCH   5   6
HETATM    6  O   UNL     1     -10.152  15.804  69.726  1.00  0.00    -0.275 OA 
BRANCH   6   7
HETATM    7  C   UNL     1      -9.996  15.052  68.601  1.00  0.00    -0.220 C  
HETATM    8  C   UNL     1     -10.605  15.773  67.397  1.00  0.00    -0.313 C  
HETATM    9  O   UNL     1      -9.523  13.924  68.584  1.00  0.00    -0.199 OA 
HETATM   10  C   UNL     1      -9.903  17.089  67.063  1.00  0.00    -0.270 A  
HETATM   11  C   UNL     1     -10.766  14.815  66.179  1.00  0.00    -0.314 C  
HETATM   12  O   UNL     1      -9.493  14.355  65.711  1.00  0.00    -0.504 OA 
HETATM   13  C   UNL     1      -8.518  17.251  67.203  1.00  0.00    -0.223 A  
HETATM   14  C   UNL     1     -11.656  13.592  66.465  1.00  0.00    -0.392 C  
HETATM   15  C   UNL     1     -12.023  13.081  65.074  1.00  0.00    -0.438 C  
HETATM   16  H   UNL     1      -9.592  13.771  64.969  1.00  0.00     0.000 HD 
HETATM   17  C   UNL     1      -7.907  18.454  66.841  1.00  0.00    -0.248 A  
HETATM   18  C   UNL     1      -8.664  19.499  66.314  1.00  0.00    -0.383 A  
HETATM   19  C   UNL     1     -12.228  14.339  64.244  1.00  0.00    -0.451 C  
HETATM   20  C   UNL     1     -11.503  15.464  64.988  1.00  0.00    -0.263 C  
HETATM   21  C   UNL     1     -10.039  19.354  66.173  1.00  0.00    -0.533 A  
HETATM   22  C   UNL     1     -10.656  18.167  66.563  1.00  0.00    -0.290 A  
ENDBRANCH   6   7
ENDBRANCH   5   6
ENDBRANCH   4   5
ENDBRANCH   2   4
TORSDOF 4
ENDMDL
MODEL        9
REMARK 921   NORMALIZED FREE ENERGY PREDICTED BY IDOCK:   -6.00 KCAL/MOL
REMARK 922        TOTAL FREE ENERGY PREDICTED BY IDOCK:   -7.70 KCAL/MOL
REMARK 923 INTER-LIGAND FREE ENERGY PREDICTED BY IDOCK:   -7.39 KCAL/MOL
REMARK 924 INTRA-LIGAND FREE ENERGY PREDICTED BY IDOCK:   -0.31 KCAL/MOL
REMARK 927      BINDING AFFINITY PREDICTED BY RF-SCORE:    0.00 PKD
ROOT
HETATM    1  C   UNL     1      -8.519  19.151  66.655  1.00  0.00    -0.310 C  
HETATM    2  N   UNL     1      -9.768  18.516  67.075  1.00  0.00    -0.299 NA 
HETATM    3  C   UNL     1     -10.792  19.542  67.297  1.00  0.00    -0.437 C  
ENDROOT
BRANCH   2   4
HETATM    4  C   UNL     1     -10.193  17.494  66.087  1.00  0.00    -0.335 C  
BRANCH   4   5
HETATM    5  C   UNL     1     -10.166  16.070  66.658  1.00  0.00    -0.291 C  
BRANCH   5   6
HETATM    6  O   UNL     1     -11.397  15.694  67.284  1.00  0.00    -0.255 OA 
BRANCH   6   7
HETATM    7  C   UNL     1     -11.338  15.666  68.644  1.00  0.00    -0.357 C  
HETATM    8  C   UNL     1     -11.890  14.338  69.167  1.00  0.00    -0.368 C  
HETATM    9  O   UNL     1     -10.984  16.607  69.341  1.00  0.00    -0.301 OA 
HETATM   10  C   UNL     1     -11.062  13.128  68.736  1.00  0.00    -0.309 A  
HETATM   11  C   UNL     1     -12.170  14.400  70.699  1.00  0.00    -0.344 C  
HETATM   12  O   UNL     1     -10.960  14.597  71.438  1.00  0.00    -0.441 OA 
HETATM   13  C   UNL     1      -9.666  13.180  68.631  1.00  0.00    -0.062 A  
HETATM   14  C   UNL     1     -13.177  15.493  71.102  1.00  0.00    -0.576 C  
HETATM   15  C   UNL     1     -13.619  15.077  72.502  1.00  0.00    -0.569 C  
HETATM   16  H   UNL     1     -11.131  14.635  72.372  1.00  0.00     0.000 HD 
HETATM   17  C   UNL     1      -8.940  12.039  68.281  1.00  0.00    -0.186 A  
HETATM   18  C   UNL     1      -9.596  10.829  68.055  1.00  0.00    -0.172 A  
HETATM   19  C   UNL     1     -13.707  13.560  72.442  1.00  0.00    -0.704 C  
HETATM   20  C   UNL     1     -12.857  13.130  71.243  1.00  0.00    -0.384 C  
HETATM   21  C   UNL     1     -10.980  10.763  68.151  1.00  0.00    -0.308 A  
HETATM   22  C   UNL     1     -11.709  11.908  68.470  1.00  0.00    -0.388 A  
ENDBRANCH   6   7
ENDBRANCH   5   6
ENDBRANCH   4   5
ENDBRANCH   2   4
TORSDOF 4
ENDMDL
MODEL       10
REMARK 921   NORMALIZED FREE ENERGY PREDICTED BY IDOCK:   -5.89 KCAL/MOL
REMARK 922        TOTAL FREE ENERGY PREDICTED BY IDOCK:   -7.57 KCAL/MOL
REMARK 923 INTER-LIGAND FREE ENERGY PREDICTED BY IDOCK:   -7.14 KCAL/MOL
REMARK 924 INTRA-LIGAND FREE ENERGY PREDICTED BY IDOCK:   -0.43 KCAL/MOL
REMARK 927      BINDING AFFINITY PREDICTED BY RF-SCORE:    0.00 PKD
ROOT
HETATM    1  C   UNL     1      -9.483  18.758  68.721  1.00  0.00    -0.335 C  
HETATM    2  N   UNL     1      -8.092  18.431  68.408  1.00  0.00    -0.301 NA 
HETATM    3  C   UNL     1      -7.201  19.400  69.054  1.00  0.00    -0.362 C  
ENDROOT
BRANCH   2   4
HETATM    4  C   UNL     1      -7.784  17.032  68.794  1.00  0.00    -0.249 C  
BRANCH   4   5
HETATM    5  C   UNL     1      -9.042  16.218  69.126  1.00  0.00    -0.230 C  
BRANCH   5   6
HETATM    6  O   UNL     1      -9.170  15.035  68.332  1.00  0.00    -0.181 OA 
BRANCH   6   7
HETATM    7  C   UNL     1     -10.241  15.047  67.492  1.00  0.00    -0.234 C  
HETATM    8  C   UNL     1     -10.685  13.616  67.184  1.00  0.00    -0.279 C  
HETATM    9  O   UNL     1     -10.712  16.057  66.986  1.00  0.00    -0.319 OA 
HETATM   10  C   UNL     1     -11.189  12.861  68.414  1.00  0.00    -0.305 A  
HETATM   11  C   UNL     1     -11.661  13.568  65.970  1.00  0.00    -0.338 C  
HETATM   12  O   UNL     1     -12.879  14.263  66.259  1.00  0.00    -0.487 OA 
HETATM   13  C   UNL     1     -11.919  13.494  69.429  1.00  0.00    -0.383 A  
HETATM   14  C   UNL     1     -11.064  14.141  64.672  1.00  0.00    -0.378 C  
HETATM   15  C   UNL     1     -11.980  13.591  63.581  1.00  0.00    -0.439 C  
HETATM   16  H   UNL     1     -13.474  14.235  65.519  1.00  0.00     0.000 HD 
HETATM   17  C   UNL     1     -12.403  12.760  70.515  1.00  0.00    -0.355 A  
HETATM   18  C   UNL     1     -12.186  11.385  70.589  1.00  0.00    -0.484 A  
HETATM   19  C   UNL     1     -12.309  12.177  64.034  1.00  0.00    -0.550 C  
HETATM   20  C   UNL     1     -12.024  12.132  65.538  1.00  0.00    -0.290 C  
HETATM   21  C   UNL     1     -11.460  10.744  69.592  1.00  0.00    -0.376 A  
HETATM   22  C   UNL     1     -10.949  11.480  68.524  1.00  0.00    -0.268 A  
ENDBRANCH   6   7
ENDBRANCH   5   6
ENDBRANCH   4   5
ENDBRANCH   2   4
TORSDOF 4
ENDMDL
MODEL       11
REMARK 921   NORMALIZED FREE ENERGY PREDICTED BY IDOCK:   -5.87 KCAL/MOL
REMARK 922        TOTAL FREE ENERGY PREDICTED BY IDOCK:   -7.55 KCAL/MOL
REMARK 923 INTER-LIGAND FREE ENERGY PREDICTED BY IDOCK:   -7.07 KCAL/MOL
REMARK 924 INTRA-LIGAND FREE ENERGY PREDICTED BY IDOCK:   -0.48 KCAL/MOL
REMARK 927      BINDING AFFINITY PREDICTED BY RF-SCORE:    0.00 PKD
ROOT
HETATM    1  C   UNL     1     -12.237  15.921  72.837  1.00  0.00    -0.500 C  
HETATM    2  N   UNL     1     -13.179  14.824  72.615  1.00  0.00    -0.418 NA 
HETATM    3  C   UNL     1     -14.398  15.342  71.985  1.00  0.00    -0.589 C  
ENDROOT
BRANCH   2   4
HETATM    4  C   UNL     1     -12.546  13.742  71.822  1.00  0.00    -0.226 C  
BRANCH   4   5
HETATM    5  C   UNL     1     -12.610  14.001  70.310  1.00  0.00    -0.291 C  
BRANCH   5   6
HETATM    6  O   UNL     1     -11.318  14.069  69.698  1.00  0.00    -0.252 OA 
BRANCH   6   7
HETATM    7  C   UNL     1     -11.071  15.246  69.060  1.00  0.00    -0.260 C  
HETATM    8  C   UNL     1     -10.174  15.007  67.844  1.00  0.00    -0.228 C  
HETATM    9  O   UNL     1     -11.439  16.341  69.462  1.00  0.00    -0.308 OA 
HETATM   10  C   UNL     1     -10.827  14.134  66.772  1.00  0.00    -0.296 A  
HETATM   11  C   UNL     1      -9.583  16.342  67.299  1.00  0.00    -0.230 C  
HETATM   12  O   UNL     1     -10.617  17.204  66.812  1.00  0.00    -0.286 OA 
HETATM   13  C   UNL     1     -12.196  14.210  66.482  1.00  0.00    -0.463 A  
HETATM   14  C   UNL     1      -8.742  17.116  68.331  1.00  0.00    -0.246 C  
HETATM   15  C   UNL     1      -7.933  18.090  67.479  1.00  0.00    -0.224 C  
HETATM   16  H   UNL     1     -10.257  18.018  66.481  1.00  0.00     0.000 HD 
HETATM   17  C   UNL     1     -12.746  13.431  65.462  1.00  0.00    -0.469 A  
HETATM   18  C   UNL     1     -11.936  12.586  64.706  1.00  0.00    -0.469 A  
HETATM   19  C   UNL     1      -7.570  17.299  66.232  1.00  0.00    -0.360 C  
HETATM   20  C   UNL     1      -8.562  16.135  66.160  1.00  0.00    -0.331 C  
HETATM   21  C   UNL     1     -10.578  12.497  64.984  1.00  0.00    -0.329 A  
HETATM   22  C   UNL     1     -10.032  13.250  66.022  1.00  0.00    -0.297 A  
ENDBRANCH   6   7
ENDBRANCH   5   6
ENDBRANCH   4   5
ENDBRANCH   2   4
TORSDOF 4
ENDMDL
MODEL       12
REMARK 921   NORMALIZED FREE ENERGY PREDICTED BY IDOCK:   -5.86 KCAL/MOL
REMARK 922        TOTAL FREE ENERGY PREDICTED BY IDOCK:   -7.53 KCAL/MOL
REMARK 923 INTER-LIGAND FREE ENERGY PREDICTED BY IDOCK:   -7.32 KCAL/MOL
REMARK 924 INTRA-LIGAND FREE ENERGY PREDICTED BY IDOCK:   -0.22 KCAL/MOL
REMARK 927      BINDING AFFINITY PREDICTED BY RF-SCORE:    0.00 PKD
ROOT
HETATM    1  C   UNL     1     -10.338  11.811  63.467  1.00  0.00    -0.448 C  
HETATM    2  N   UNL     1     -11.435  12.778  63.453  1.00  0.00    -0.470 NA 
HETATM    3  C   UNL     1     -12.717  12.066  63.460  1.00  0.00    -0.443 C  
ENDROOT
BRANCH   2   4
HETATM    4  C   UNL     1     -11.309  13.731  64.583  1.00  0.00    -0.372 C  
BRANCH   4   5
HETATM    5  C   UNL     1     -12.468  13.621  65.583  1.00  0.00    -0.496 C  
BRANCH   5   6
HETATM    6  O   UNL     1     -12.165  12.782  66.702  1.00  0.00    -0.481 OA 
BRANCH   6   7
HETATM    7  C   UNL     1     -10.900  12.936  67.181  1.00  0.00    -0.256 C  
HETATM    8  C   UNL     1     -10.807  14.212  68.020  1.00  0.00    -0.256 C  
HETATM    9  O   UNL     1      -9.960  12.206  66.897  1.00  0.00    -0.201 OA 
HETATM   10  C   UNL     1     -11.676  14.174  69.276  1.00  0.00    -0.368 A  
HETATM   11  C   UNL     1      -9.324  14.612  68.288  1.00  0.00    -0.199 C  
HETATM   12  O   UNL     1      -8.656  13.620  69.075  1.00  0.00    -0.357 OA 
HETATM   13  C   UNL     1     -11.864  13.000  70.017  1.00  0.00    -0.355 A  
HETATM   14  C   UNL     1      -8.506  14.857  67.007  1.00  0.00    -0.260 C  
HETATM   15  C   UNL     1      -7.294  15.643  67.499  1.00  0.00    -0.213 C  
HETATM   16  H   UNL     1      -7.752  13.864  69.238  1.00  0.00     0.000 HD 
HETATM   17  C   UNL     1     -12.626  13.017  71.188  1.00  0.00    -0.388 A  
HETATM   18  C   UNL     1     -13.190  14.207  71.644  1.00  0.00    -0.426 A  
HETATM   19  C   UNL     1      -7.847  16.573  68.568  1.00  0.00    -0.210 C  
HETATM   20  C   UNL     1      -9.182  15.968  69.011  1.00  0.00    -0.244 C  
HETATM   21  C   UNL     1     -13.016  15.379  70.917  1.00  0.00    -0.539 A  
HETATM   22  C   UNL     1     -12.282  15.358  69.733  1.00  0.00    -0.336 A  
ENDBRANCH   6   7
ENDBRANCH   5   6
ENDBRANCH   4   5
ENDBRANCH   2   4
TORSDOF 4
ENDMDL
MODEL       13
REMARK 921   NORMALIZED FREE ENERGY PREDICTED BY IDOCK:   -5.81 KCAL/MOL
REMARK 922        TOTAL FREE ENERGY PREDICTED BY IDOCK:   -7.48 KCAL/MOL
REMARK 923 INTER-LIGAND FREE ENERGY PREDICTED BY IDOCK:   -7.16 KCAL/MOL
REMARK 924 INTRA-LIGAND FREE ENERGY PREDICTED BY IDOCK:   -0.32 KCAL/MOL
REMARK 927      BINDING AFFINITY PREDICTED BY RF-SCORE:    0.00 PKD
ROOT
HETATM    1  C   UNL     1      -9.998  11.582  63.493  1.00  0.00    -0.399 C  
HETATM    2  N   UNL     1     -10.942  12.697  63.557  1.00  0.00    -0.424 NA 
HETATM    3  C   UNL     1     -12.314  12.184  63.482  1.00  0.00    -0.574 C  
ENDROOT
BRANCH   2   4
HETATM    4  C   UNL     1     -10.706  13.514  64.772  1.00  0.00    -0.401 C  
BRANCH   4   5
HETATM    5  C   UNL     1     -10.390  12.660  66.008  1.00  0.00    -0.270 C  
BRANCH   5   6
HETATM    6  O   UNL     1     -10.060  13.442  67.160  1.00  0.00    -0.236 OA 
BRANCH   6   7
HETATM    7  C   UNL     1     -11.141  13.822  67.896  1.00  0.00    -0.264 C  
HETATM    8  C   UNL     1     -10.728  14.868  68.933  1.00  0.00    -0.245 C  
HETATM    9  O   UNL     1     -12.254  13.325  67.798  1.00  0.00    -0.287 OA 
HETATM   10  C   UNL     1     -10.227  16.172  68.312  1.00  0.00    -0.248 A  
HETATM   11  C   UNL     1     -11.833  15.068  70.014  1.00  0.00    -0.319 C  
HETATM   12  O   UNL     1     -13.032  15.595  69.436  1.00  0.00    -0.292 OA 
HETATM   13  C   UNL     1     -10.782  16.699  67.138  1.00  0.00    -0.202 A  
HETATM   14  C   UNL     1     -12.184  13.784  70.788  1.00  0.00    -0.437 C  
HETATM   15  C   UNL     1     -12.906  14.298  72.030  1.00  0.00    -0.428 C  
HETATM   16  H   UNL     1     -13.706  15.716  70.094  1.00  0.00     0.000 HD 
HETATM   17  C   UNL     1     -10.328  17.917  66.627  1.00  0.00    -0.362 A  
HETATM   18  C   UNL     1      -9.335  18.634  67.292  1.00  0.00    -0.299 A  
HETATM   19  C   UNL     1     -12.158  15.565  72.413  1.00  0.00    -0.527 C  
HETATM   20  C   UNL     1     -11.403  16.011  71.157  1.00  0.00    -0.413 C  
HETATM   21  C   UNL     1      -8.772  18.122  68.454  1.00  0.00    -0.302 A  
HETATM   22  C   UNL     1      -9.201  16.891  68.949  1.00  0.00    -0.229 A  
ENDBRANCH   6   7
ENDBRANCH   5   6
ENDBRANCH   4   5
ENDBRANCH   2   4
TORSDOF 4
ENDMDL
MODEL       14
REMARK 921   NORMALIZED FREE ENERGY PREDICTED BY IDOCK:   -5.80 KCAL/MOL
REMARK 922        TOTAL FREE ENERGY PREDICTED BY IDOCK:   -7.46 KCAL/MOL
REMARK 923 INTER-LIGAND FREE ENERGY PREDICTED BY IDOCK:   -7.16 KCAL/MOL
REMARK 924 INTRA-LIGAND FREE ENERGY PREDICTED BY IDOCK:   -0.29 KCAL/MOL
REMARK 927      BINDING AFFINITY PREDICTED BY RF-SCORE:    0.00 PKD
ROOT
HETATM    1  C   UNL     1     -11.318   8.852  71.838  1.00  0.00    -0.376 C  
HETATM    2  N   UNL     1     -12.533   9.389  71.227  1.00  0.00    -0.327 NA 
HETATM    3  C   UNL     1     -13.688   9.084  72.077  1.00  0.00    -0.461 C  
ENDROOT
BRANCH   2   4
HETATM    4  C   UNL     1     -12.389  10.842  70.965  1.00  0.00    -0.393 C  
BRANCH   4   5
HETATM    5  C   UNL     1     -11.481  11.141  69.765  1.00  0.00    -0.312 C  
BRANCH   5   6
HETATM    6  O   UNL     1     -12.173  11.768  68.681  1.00  0.00    -0.405 OA 
BRANCH   6   7
HETATM    7  C   UNL     1     -11.872  13.087  68.523  1.00  0.00    -0.325 C  
HETATM    8  C   UNL     1     -10.746  13.251  67.502  1.00  0.00    -0.259 C  
HETATM    9  O   UNL     1     -12.370  13.992  69.178  1.00  0.00    -0.313 OA 
HETATM   10  C   UNL     1     -11.131  12.790  66.097  1.00  0.00    -0.322 A  
HETATM   11  C   UNL     1     -10.135  14.684  67.551  1.00  0.00    -0.224 C  
HETATM   12  O   UNL     1     -11.102  15.671  67.176  1.00  0.00    -0.304 OA 
HETATM   13  C   UNL     1     -12.420  12.974  65.580  1.00  0.00    -0.496 A  
HETATM   14  C   UNL     1      -9.553  15.064  68.925  1.00  0.00    -0.221 C  
HETATM   15  C   UNL     1      -8.650  16.255  68.617  1.00  0.00    -0.222 C  
HETATM   16  H   UNL     1     -10.729  16.545  67.206  1.00  0.00     0.000 HD 
HETATM   17  C   UNL     1     -12.720  12.581  64.273  1.00  0.00    -0.432 A  
HETATM   18  C   UNL     1     -11.734  12.024  63.461  1.00  0.00    -0.566 A  
HETATM   19  C   UNL     1      -8.010  15.916  67.280  1.00  0.00    -0.212 C  
HETATM   20  C   UNL     1      -8.904  14.852  66.636  1.00  0.00    -0.287 C  
HETATM   21  C   UNL     1     -10.453  11.831  63.961  1.00  0.00    -0.415 A  
HETATM   22  C   UNL     1     -10.159  12.193  65.274  1.00  0.00    -0.291 A  
ENDBRANCH   6   7
ENDBRANCH   5   6
ENDBRANCH   4   5
ENDBRANCH   2   4
TORSDOF 4
ENDMDL
MODEL       15
REMARK 921   NORMALIZED FREE ENERGY PREDICTED BY IDOCK:   -5.79 KCAL/MOL
REMARK 922        TOTAL FREE ENERGY PREDICTED BY IDOCK:   -7.45 KCAL/MOL
REMARK 923 INTER-LIGAND FREE ENERGY PREDICTED BY IDOCK:   -7.18 KCAL/MOL
REMARK 924 INTRA-LIGAND FREE ENERGY PREDICTED BY IDOCK:   -0.28 KCAL/MOL
REMARK 927      BINDING AFFINITY PREDICTED BY RF-SCORE:    0.00 PKD
ROOT
HETATM    1  C   UNL     1     -10.275  11.042  63.567  1.00  0.00    -0.365 C  
HETATM    2  N   UNL     1     -10.981  12.317  63.455  1.00  0.00    -0.441 NA 
HETATM    3  C   UNL     1     -12.428  12.081  63.471  1.00  0.00    -0.540 C  
ENDROOT
BRANCH   2   4
HETATM    4  C   UNL     1     -10.546  13.252  64.522  1.00  0.00    -0.419 C  
BRANCH   4   5
HETATM    5  C   UNL     1     -11.713  14.043  65.128  1.00  0.00    -0.350 C  
BRANCH   5   6
HETATM    6  O   UNL     1     -11.326  14.843  66.250  1.00  0.00    -0.343 OA 
BRANCH   6   7
HETATM    7  C   UNL     1     -10.654  15.978  65.911  1.00  0.00    -0.328 C  
HETATM    8  C   UNL     1      -9.958  16.564  67.141  1.00  0.00    -0.266 C  
HETATM    9  O   UNL     1     -10.688  16.498  64.804  1.00  0.00    -0.719 OA 
HETATM   10  C   UNL     1      -8.875  15.651  67.715  1.00  0.00    -0.173 A  
HETATM   11  C   UNL     1      -9.483  18.026  66.887  1.00  0.00    -0.288 C  
HETATM   12  O   UNL     1      -8.487  18.074  65.859  1.00  0.00    -0.509 OA 
HETATM   13  C   UNL     1      -8.053  14.865  66.896  1.00  0.00    -0.119 A  
HETATM   14  C   UNL     1     -10.621  18.993  66.514  1.00  0.00    -0.495 C  
HETATM   15  C   UNL     1     -10.017  20.373  66.757  1.00  0.00    -0.525 C  
HETATM   16  H   UNL     1      -8.198  18.965  65.703  1.00  0.00     0.000 HD 
HETATM   17  C   UNL     1      -7.042  14.080  67.455  1.00  0.00    -0.179 A  
HETATM   18  C   UNL     1      -6.824  14.086  68.832  1.00  0.00    -0.108 A  
HETATM   19  C   UNL     1      -9.169  20.205  68.009  1.00  0.00    -0.327 C  
HETATM   20  C   UNL     1      -8.900  18.703  68.144  1.00  0.00    -0.335 C  
HETATM   21  C   UNL     1      -7.634  14.857  69.657  1.00  0.00    -0.098 A  
HETATM   22  C   UNL     1      -8.663  15.618  69.105  1.00  0.00    -0.251 A  
ENDBRANCH   6   7
ENDBRANCH   5   6
ENDBRANCH   4   5
ENDBRANCH   2   4
TORSDOF 4
ENDMDL
MODEL       16
REMARK 921   NORMALIZED FREE ENERGY PREDICTED BY IDOCK:   -5.75 KCAL/MOL
REMARK 922        TOTAL FREE ENERGY PREDICTED BY IDOCK:   -7.40 KCAL/MOL
REMARK 923 INTER-LIGAND FREE ENERGY PREDICTED BY IDOCK:   -7.11 KCAL/MOL
REMARK 924 INTRA-LIGAND FREE ENERGY PREDICTED BY IDOCK:   -0.29 KCAL/MOL
REMARK 927      BINDING AFFINITY PREDICTED BY RF-SCORE:    0.00 PKD
ROOT
HETATM    1  C   UNL     1     -14.197  15.509  72.489  1.00  0.00    -0.415 C  
HETATM    2  N   UNL     1     -12.855  16.030  72.742  1.00  0.00    -0.449 NA 
HETATM    3  C   UNL     1     -12.256  15.318  73.876  1.00  0.00    -0.610 C  
ENDROOT
BRANCH   2   4
HETATM    4  C   UNL     1     -12.022  15.949  71.517  1.00  0.00    -0.471 C  
BRANCH   4   5
HETATM    5  C   UNL     1     -12.743  15.254  70.355  1.00  0.00    -0.356 C  
BRANCH   5   6
HETATM    6  O   UNL     1     -12.155  15.535  69.081  1.00  0.00    -0.326 OA 
BRANCH   6   7
HETATM    7  C   UNL     1     -11.757  14.426  68.400  1.00  0.00    -0.332 C  
HETATM    8  C   UNL     1     -11.134  14.826  67.061  1.00  0.00    -0.333 C  
HETATM    9  O   UNL     1     -11.960  13.278  68.770  1.00  0.00    -0.325 OA 
HETATM   10  C   UNL     1      -9.853  15.647  67.212  1.00  0.00    -0.225 A  
HETATM   11  C   UNL     1     -10.992  13.601  66.109  1.00  0.00    -0.284 C  
HETATM   12  O   UNL     1     -10.086  12.631  66.646  1.00  0.00    -0.232 OA 
HETATM   13  C   UNL     1      -8.930  15.405  68.238  1.00  0.00    -0.185 A  
HETATM   14  C   UNL     1     -12.327  12.903  65.791  1.00  0.00    -0.437 C  
HETATM   15  C   UNL     1     -12.013  12.076  64.547  1.00  0.00    -0.350 C  
HETATM   16  H   UNL     1      -9.999  11.884  66.066  1.00  0.00     0.000 HD 
HETATM   17  C   UNL     1      -7.747  16.145  68.313  1.00  0.00    -0.148 A  
HETATM   18  C   UNL     1      -7.462  17.116  67.355  1.00  0.00    -0.182 A  
HETATM   19  C   UNL     1     -11.083  12.954  63.726  1.00  0.00    -0.424 C  
HETATM   20  C   UNL     1     -10.496  13.982  64.698  1.00  0.00    -0.398 C  
HETATM   21  C   UNL     1      -8.370  17.370  66.334  1.00  0.00    -0.302 A  
HETATM   22  C   UNL     1      -9.564  16.655  66.275  1.00  0.00    -0.325 A  
ENDBRANCH   6   7
ENDBRANCH   5   6
ENDBRANCH   4   5
ENDBRANCH   2   4
TORSDOF 4
ENDMDL
MODEL       17
REMARK 921   NORMALIZED FREE ENERGY PREDICTED BY IDOCK:   -5.74 KCAL/MOL
REMARK 922        TOTAL FREE ENERGY PREDICTED BY IDOCK:   -7.39 KCAL/MOL
REMARK 923 INTER-LIGAND FREE ENERGY PREDICTED BY IDOCK:   -6.93 KCAL/MOL
REMARK 924 INTRA-LIGAND FREE ENERGY PREDICTED BY IDOCK:   -0.45 KCAL/MOL
REMARK 927      BINDING AFFINITY PREDICTED BY RF-SCORE:    0.00 PKD
ROOT
HETATM    1  C   UNL     1      -9.994   9.736  65.794  1.00  0.00    -0.279 C  
HETATM    2  N   UNL     1     -10.649  10.981  66.195  1.00  0.00    -0.250 NA 
HETATM    3  C   UNL     1     -11.150  10.853  67.567  1.00  0.00    -0.310 C  
ENDROOT
BRANCH   2   4
HETATM    4  C   UNL     1      -9.730  12.133  66.030  1.00  0.00    -0.244 C  
BRANCH   4   5
HETATM    5  C   UNL     1     -10.410  13.347  65.383  1.00  0.00    -0.312 C  
BRANCH   5   6
HETATM    6  O   UNL     1     -10.274  14.544  66.155  1.00  0.00    -0.282 OA 
BRANCH   6   7
HETATM    7  C   UNL     1     -11.251  14.714  67.087  1.00  0.00    -0.344 C  
HETATM    8  C   UNL     1     -10.691  15.443  68.310  1.00  0.00    -0.260 C  
HETATM    9  O   UNL     1     -12.384  14.262  66.991  1.00  0.00    -0.386 OA 
HETATM   10  C   UNL     1     -10.220  16.864  68.004  1.00  0.00    -0.310 A  
HETATM   11  C   UNL     1     -11.661  15.346  69.526  1.00  0.00    -0.332 C  
HETATM   12  O   UNL     1     -12.899  16.011  69.253  1.00  0.00    -0.295 OA 
HETATM   13  C   UNL     1     -10.886  17.688  67.086  1.00  0.00    -0.105 A  
HETATM   14  C   UNL     1     -11.964  13.902  69.965  1.00  0.00    -0.404 C  
HETATM   15  C   UNL     1     -12.525  14.064  71.375  1.00  0.00    -0.438 C  
HETATM   16  H   UNL     1     -13.490  15.951  69.995  1.00  0.00     0.000 HD 
HETATM   17  C   UNL     1     -10.453  18.998  66.869  1.00  0.00    -0.505 A  
HETATM   18  C   UNL     1      -9.368  19.509  67.580  1.00  0.00    -0.399 A  
HETATM   19  C   UNL     1     -11.697  15.181  71.991  1.00  0.00    -0.504 C  
HETATM   20  C   UNL     1     -11.074  15.947  70.821  1.00  0.00    -0.352 C  
HETATM   21  C   UNL     1      -8.695  18.702  68.490  1.00  0.00    -0.362 A  
HETATM   22  C   UNL     1      -9.106  17.385  68.685  1.00  0.00    -0.261 A  
ENDBRANCH   6   7
ENDBRANCH   5   6
ENDBRANCH   4   5
ENDBRANCH   2   4
TORSDOF 4
ENDMDL
MODEL       18
REMARK 921   NORMALIZED FREE ENERGY PREDICTED BY IDOCK:   -5.71 KCAL/MOL
REMARK 922        TOTAL FREE ENERGY PREDICTED BY IDOCK:   -7.34 KCAL/MOL
REMARK 923 INTER-LIGAND FREE ENERGY PREDICTED BY IDOCK:   -7.07 KCAL/MOL
REMARK 924 INTRA-LIGAND FREE ENERGY PREDICTED BY IDOCK:   -0.28 KCAL/MOL
REMARK 927      BINDING AFFINITY PREDICTED BY RF-SCORE:    0.00 PKD
ROOT
HETATM    1  C   UNL     1     -12.145  16.043  72.407  1.00  0.00    -0.535 C  
HETATM    2  N   UNL     1     -12.362  15.743  70.991  1.00  0.00    -0.420 NA 
HETATM    3  C   UNL     1     -11.135  16.022  70.237  1.00  0.00    -0.374 C  
ENDROOT
BRANCH   2   4
HETATM    4  C   UNL     1     -12.830  14.347  70.817  1.00  0.00    -0.353 C  
BRANCH   4   5
HETATM    5  C   UNL     1     -12.030  13.582  69.754  1.00  0.00    -0.340 C  
BRANCH   5   6
HETATM    6  O   UNL     1     -11.669  12.260  70.168  1.00  0.00    -0.293 OA 
BRANCH   6   7
HETATM    7  C   UNL     1     -11.605  11.361  69.148  1.00  0.00    -0.314 C  
HETATM    8  C   UNL     1     -10.496  10.342  69.414  1.00  0.00    -0.259 C  
HETATM    9  O   UNL     1     -12.276  11.424  68.127  1.00  0.00    -0.602 OA 
HETATM   10  C   UNL     1     -10.750   9.480  70.650  1.00  0.00    -0.375 A  
HETATM   11  C   UNL     1     -10.153   9.523  68.133  1.00  0.00    -0.182 C  
HETATM   12  O   UNL     1     -11.269   8.731  67.712  1.00  0.00    -0.417 OA 
HETATM   13  C   UNL     1     -12.035   9.052  71.009  1.00  0.00    -0.323 A  
HETATM   14  C   UNL     1      -9.690  10.390  66.947  1.00  0.00    -0.223 C  
HETATM   15  C   UNL     1      -9.006   9.392  66.017  1.00  0.00    -0.205 C  
HETATM   16  H   UNL     1     -11.060   8.232  66.930  1.00  0.00     0.000 HD 
HETATM   17  C   UNL     1     -12.221   8.226  72.120  1.00  0.00    -0.418 A  
HETATM   18  C   UNL     1     -11.127   7.798  72.871  1.00  0.00    -0.457 A  
HETATM   19  C   UNL     1      -8.276   8.437  66.948  1.00  0.00    -0.103 C  
HETATM   20  C   UNL     1      -8.945   8.580  68.318  1.00  0.00    -0.139 C  
HETATM   21  C   UNL     1      -9.847   8.218  72.530  1.00  0.00    -0.368 A  
HETATM   22  C   UNL     1      -9.662   9.067  71.441  1.00  0.00    -0.369 A  
ENDBRANCH   6   7
ENDBRANCH   5   6
ENDBRANCH   4   5
ENDBRANCH   2   4
TORSDOF 4
ENDMDL
MODEL       19
REMARK 921   NORMALIZED FREE ENERGY PREDICTED BY IDOCK:   -5.69 KCAL/MOL
REMARK 922        TOTAL FREE ENERGY PREDICTED BY IDOCK:   -7.33 KCAL/MOL
REMARK 923 INTER-LIGAND FREE ENERGY PREDICTED BY IDOCK:   -6.94 KCAL/MOL
REMARK 924 INTRA-LIGAND FREE ENERGY PREDICTED BY IDOCK:   -0.38 KCAL/MOL
REMARK 927      BINDING AFFINITY PREDICTED BY RF-SCORE:    0.00 PKD
ROOT
HETATM    1  C   UNL     1      -9.541  17.770  66.701  1.00  0.00    -0.307 C  
HETATM    2  N   UNL     1      -8.535  17.796  67.762  1.00  0.00    -0.233 NA 
HETATM    3  C   UNL     1      -8.665  19.036  68.534  1.00  0.00    -0.357 C  
ENDROOT
BRANCH   2   4
HETATM    4  C   UNL     1      -8.640  16.585  68.613  1.00  0.00    -0.243 C  
BRANCH   4   5
HETATM    5  C   UNL     1     -10.095  16.173  68.880  1.00  0.00    -0.238 C  
BRANCH   5   6
HETATM    6  O   UNL     1     -10.277  14.755  68.924  1.00  0.00    -0.227 OA 
BRANCH   6   7
HETATM    7  C   UNL     1     -10.938  14.250  67.846  1.00  0.00    -0.267 C  
HETATM    8  C   UNL     1     -10.488  12.813  67.578  1.00  0.00    -0.223 C  
HETATM    9  O   UNL     1     -11.706  14.892  67.143  1.00  0.00    -0.356 OA 
HETATM   10  C   UNL     1     -10.839  11.849  68.712  1.00  0.00    -0.270 A  
HETATM   11  C   UNL     1     -10.943  12.324  66.170  1.00  0.00    -0.293 C  
HETATM   12  O   UNL     1     -12.371  12.273  66.077  1.00  0.00    -0.609 OA 
HETATM   13  C   UNL     1     -12.027  11.963  69.446  1.00  0.00    -0.350 A  
HETATM   14  C   UNL     1     -10.406  13.185  65.012  1.00  0.00    -0.346 C  
HETATM   15  C   UNL     1     -10.586  12.292  63.787  1.00  0.00    -0.488 C  
HETATM   16  H   UNL     1     -12.648  11.976  65.218  1.00  0.00     0.000 HD 
HETATM   17  C   UNL     1     -12.334  11.033  70.442  1.00  0.00    -0.442 A  
HETATM   18  C   UNL     1     -11.473   9.968  70.702  1.00  0.00    -0.425 A  
HETATM   19  C   UNL     1     -10.252  10.893  64.278  1.00  0.00    -0.430 C  
HETATM   20  C   UNL     1     -10.393  10.930  65.803  1.00  0.00    -0.303 C  
HETATM   21  C   UNL     1     -10.290   9.844  69.985  1.00  0.00    -0.320 A  
HETATM   22  C   UNL     1      -9.966  10.788  69.012  1.00  0.00    -0.214 A  
ENDBRANCH   6   7
ENDBRANCH   5   6
ENDBRANCH   4   5
ENDBRANCH   2   4
TORSDOF 4
ENDMDL
MODEL       20
REMARK 921   NORMALIZED FREE ENERGY PREDICTED BY IDOCK:   -5.66 KCAL/MOL
REMARK 922        TOTAL FREE ENERGY PREDICTED BY IDOCK:   -7.29 KCAL/MOL
REMARK 923 INTER-LIGAND FREE ENERGY PREDICTED BY IDOCK:   -6.95 KCAL/MOL
REMARK 924 INTRA-LIGAND FREE ENERGY PREDICTED BY IDOCK:   -0.34 KCAL/MOL
REMARK 927      BINDING AFFINITY PREDICTED BY RF-SCORE:    0.00 PKD
ROOT
HETATM    1  C   UNL     1     -10.038  10.124  64.966  1.00  0.00    -0.235 C  
HETATM    2  N   UNL     1     -10.183  11.352  64.184  1.00  0.00    -0.293 NA 
HETATM    3  C   UNL     1      -9.365  11.261  62.970  1.00  0.00    -0.341 C  
ENDROOT
BRANCH   2   4
HETATM    4  C   UNL     1     -11.612  11.617  63.886  1.00  0.00    -0.309 C  
BRANCH   4   5
HETATM    5  C   UNL     1     -12.201  12.736  64.756  1.00  0.00    -0.459 C  
BRANCH   5   6
HETATM    6  O   UNL     1     -12.126  12.455  66.157  1.00  0.00    -0.611 OA 
BRANCH   6   7
HETATM    7  C   UNL     1     -11.281  13.275  66.840  1.00  0.00    -0.305 C  
HETATM    8  C   UNL     1     -11.692  13.346  68.312  1.00  0.00    -0.391 C  
HETATM    9  O   UNL     1     -10.386  13.930  66.324  1.00  0.00    -0.281 OA 
HETATM   10  C   UNL     1     -11.574  12.005  69.038  1.00  0.00    -0.370 A  
HETATM   11  C   UNL     1     -10.987  14.526  69.046  1.00  0.00    -0.257 C  
HETATM   12  O   UNL     1      -9.568  14.338  69.082  1.00  0.00    -0.399 OA 
HETATM   13  C   UNL     1     -10.544  11.097  68.761  1.00  0.00    -0.233 A  
HETATM   14  C   UNL     1     -11.285  15.906  68.431  1.00  0.00    -0.368 C  
HETATM   15  C   UNL     1     -10.889  16.884  69.534  1.00  0.00    -0.144 C  
HETATM   16  H   UNL     1      -9.138  15.058  69.529  1.00  0.00     0.000 HD 
HETATM   17  C   UNL     1     -10.442   9.903  69.480  1.00  0.00    -0.261 A  
HETATM   18  C   UNL     1     -11.351   9.613  70.496  1.00  0.00    -0.360 A  
HETATM   19  C   UNL     1     -11.329  16.209  70.823  1.00  0.00    -0.397 C  
HETATM   20  C   UNL     1     -11.477  14.720  70.496  1.00  0.00    -0.300 C  
HETATM   21  C   UNL     1     -12.380  10.503  70.779  1.00  0.00    -0.474 A  
HETATM   22  C   UNL     1     -12.502  11.679  70.043  1.00  0.00    -0.166 A  
ENDBRANCH   6   7
ENDBRANCH   5   6
ENDBRANCH   4   5
ENDBRANCH   2   4
TORSDOF 4
ENDMDL
MODEL       21
REMARK 921   NORMALIZED FREE ENERGY PREDICTED BY IDOCK:   -5.59 KCAL/MOL
REMARK 922        TOTAL FREE ENERGY PREDICTED BY IDOCK:   -7.20 KCAL/MOL
REMARK 923 INTER-LIGAND FREE ENERGY PREDICTED BY IDOCK:   -6.79 KCAL/MOL
REMARK 924 INTRA-LIGAND FREE ENERGY PREDICTED BY IDOCK:   -0.40 KCAL/MOL
REMARK 927      BINDING AFFINITY PREDICTED BY RF-SCORE:    0.00 PKD
ROOT
HETATM    1  C   UNL     1     -14.010  14.752  71.587  1.00  0.00    -0.474 C  
HETATM    2  N   UNL     1     -12.918  15.661  71.240  1.00  0.00    -0.496 NA 
HETATM    3  C   UNL     1     -11.943  15.699  72.335  1.00  0.00    -0.469 C  
ENDROOT
BRANCH   2   4
HETATM    4  C   UNL     1     -12.304  15.272  69.947  1.00  0.00    -0.288 C  
BRANCH   4   5
HETATM    5  C   UNL     1     -11.904  13.791  69.902  1.00  0.00    -0.327 C  
BRANCH   5   6
HETATM    6  O   UNL     1     -12.143  13.184  68.629  1.00  0.00    -0.315 OA 
BRANCH   6   7
HETATM    7  C   UNL     1     -11.037  12.622  68.069  1.00  0.00    -0.251 C  
HETATM    8  C   UNL     1     -11.099  12.746  66.545  1.00  0.00    -0.321 C  
HETATM    9  O   UNL     1     -10.174  12.023  68.695  1.00  0.00    -0.214 OA 
HETATM   10  C   UNL     1     -11.067  14.193  66.055  1.00  0.00    -0.314 A  
HETATM   11  C   UNL     1     -10.052  11.821  65.854  1.00  0.00    -0.234 C  
HETATM   12  O   UNL     1      -8.716  12.213  66.189  1.00  0.00    -0.392 OA 
HETATM   13  C   UNL     1     -10.301  15.179  66.692  1.00  0.00    -0.274 A  
HETATM   14  C   UNL     1     -10.225  10.329  66.189  1.00  0.00    -0.285 C  
HETATM   15  C   UNL     1      -9.431   9.619  65.096  1.00  0.00    -0.332 C  
HETATM   16  H   UNL     1      -8.078  11.648  65.768  1.00  0.00     0.000 HD 
HETATM   17  C   UNL     1     -10.260  16.480  66.184  1.00  0.00    -0.360 A  
HETATM   18  C   UNL     1     -10.963  16.807  65.026  1.00  0.00    -0.118 A  
HETATM   19  C   UNL     1      -9.693  10.436  63.840  1.00  0.00    -0.367 C  
HETATM   20  C   UNL     1     -10.172  11.810  64.316  1.00  0.00    -0.344 C  
HETATM   21  C   UNL     1     -11.730  15.841  64.386  1.00  0.00    -0.201 A  
HETATM   22  C   UNL     1     -11.797  14.550  64.907  1.00  0.00    -0.417 A  
ENDBRANCH   6   7
ENDBRANCH   5   6
ENDBRANCH   4   5
ENDBRANCH   2   4
TORSDOF 4
ENDMDL
MODEL       22
REMARK 921   NORMALIZED FREE ENERGY PREDICTED BY IDOCK:   -5.57 KCAL/MOL
REMARK 922        TOTAL FREE ENERGY PREDICTED BY IDOCK:   -7.18 KCAL/MOL
REMARK 923 INTER-LIGAND FREE ENERGY PREDICTED BY IDOCK:   -6.79 KCAL/MOL
REMARK 924 INTRA-LIGAND FREE ENERGY PREDICTED BY IDOCK:   -0.39 KCAL/MOL
REMARK 927      BINDING AFFINITY PREDICTED BY RF-SCORE:    0.00 PKD
ROOT
HETATM    1  C   UNL     1     -11.033   9.200  71.671  1.00  0.00    -0.374 C  
HETATM    2  N   UNL     1     -12.240   9.661  70.986  1.00  0.00    -0.315 NA 
HETATM    3  C   UNL     1     -13.268  10.001  71.975  1.00  0.00    -0.443 C  
ENDROOT
BRANCH   2   4
HETATM    4  C   UNL     1     -11.927  10.794  70.081  1.00  0.00    -0.349 C  
BRANCH   4   5
HETATM    5  C   UNL     1     -11.054  10.378  68.889  1.00  0.00    -0.247 C  
BRANCH   5   6
HETATM    6  O   UNL     1      -9.854  11.148  68.777  1.00  0.00    -0.197 OA 
BRANCH   6   7
HETATM    7  C   UNL     1      -9.675  11.717  67.554  1.00  0.00    -0.180 C  
HETATM    8  C   UNL     1     -10.786  12.733  67.279  1.00  0.00    -0.277 C  
HETATM    9  O   UNL     1      -8.806  11.389  66.758  1.00  0.00    -0.166 OA 
HETATM   10  C   UNL     1     -10.774  13.918  68.244  1.00  0.00    -0.261 A  
HETATM   11  C   UNL     1     -10.828  13.141  65.776  1.00  0.00    -0.273 C  
HETATM   12  O   UNL     1      -9.625  13.817  65.391  1.00  0.00    -0.530 OA 
HETATM   13  C   UNL     1      -9.581  14.473  68.727  1.00  0.00    -0.193 A  
HETATM   14  C   UNL     1     -11.055  11.958  64.817  1.00  0.00    -0.367 C  
HETATM   15  C   UNL     1     -11.499  12.627  63.519  1.00  0.00    -0.557 C  
HETATM   16  H   UNL     1      -9.650  14.066  64.474  1.00  0.00     0.000 HD 
HETATM   17  C   UNL     1      -9.610  15.587  69.569  1.00  0.00    -0.278 A  
HETATM   18  C   UNL     1     -10.825  16.174  69.920  1.00  0.00    -0.355 A  
HETATM   19  C   UNL     1     -12.381  13.783  63.964  1.00  0.00    -0.370 C  
HETATM   20  C   UNL     1     -12.020  14.057  65.427  1.00  0.00    -0.386 C  
HETATM   21  C   UNL     1     -12.016  15.632  69.452  1.00  0.00    -0.349 A  
HETATM   22  C   UNL     1     -11.991  14.502  68.637  1.00  0.00    -0.320 A  
ENDBRANCH   6   7
ENDBRANCH   5   6
ENDBRANCH   4   5
ENDBRANCH   2   4
TORSDOF 4
ENDMDL
MODEL       23
REMARK 921   NORMALIZED FREE ENERGY PREDICTED BY IDOCK:   -5.57 KCAL/MOL
REMARK 922        TOTAL FREE ENERGY PREDICTED BY IDOCK:   -7.18 KCAL/MOL
REMARK 923 INTER-LIGAND FREE ENERGY PREDICTED BY IDOCK:   -6.71 KCAL/MOL
REMARK 924 INTRA-LIGAND FREE ENERGY PREDICTED BY IDOCK:   -0.47 KCAL/MOL
REMARK 927      BINDING AFFINITY PREDICTED BY RF-SCORE:    0.00 PKD
ROOT
HETATM    1  C   UNL     1     -10.746  16.182  64.965  1.00  0.00    -0.337 C  
HETATM    2  N   UNL     1      -9.987  14.942  65.128  1.00  0.00    -0.313 NA 
HETATM    3  C   UNL     1      -9.482  14.852  66.502  1.00  0.00    -0.283 C  
ENDROOT
BRANCH   2   4
HETATM    4  C   UNL     1     -10.813  13.769  64.750  1.00  0.00    -0.401 C  
BRANCH   4   5
HETATM    5  C   UNL     1     -12.081  13.637  65.605  1.00  0.00    -0.425 C  
BRANCH   5   6
HETATM    6  O   UNL     1     -12.246  12.330  66.164  1.00  0.00    -0.647 OA 
BRANCH   6   7
HETATM    7  C   UNL     1     -11.784  12.213  67.439  1.00  0.00    -0.304 C  
HETATM    8  C   UNL     1     -11.372  10.767  67.719  1.00  0.00    -0.354 C  
HETATM    9  O   UNL     1     -11.791  13.118  68.263  1.00  0.00    -0.333 OA 
HETATM   10  C   UNL     1     -10.201  10.294  66.857  1.00  0.00    -0.286 A  
HETATM   11  C   UNL     1     -11.176  10.514  69.244  1.00  0.00    -0.262 C  
HETATM   12  O   UNL     1     -10.096  11.297  69.764  1.00  0.00    -0.361 OA 
HETATM   13  C   UNL     1      -9.146  11.145  66.502  1.00  0.00    -0.193 A  
HETATM   14  C   UNL     1     -12.435  10.791  70.086  1.00  0.00    -0.357 C  
HETATM   15  C   UNL     1     -12.155  10.068  71.401  1.00  0.00    -0.498 C  
HETATM   16  H   UNL     1      -9.977  11.143  70.694  1.00  0.00     0.000 HD 
HETATM   17  C   UNL     1      -8.070  10.662  65.753  1.00  0.00    -0.158 A  
HETATM   18  C   UNL     1      -8.023   9.323  65.369  1.00  0.00    -0.108 A  
HETATM   19  C   UNL     1     -11.446   8.787  70.992  1.00  0.00    -0.337 C  
HETATM   20  C   UNL     1     -10.895   9.035  69.584  1.00  0.00    -0.196 C  
HETATM   21  C   UNL     1      -9.065   8.469  65.710  1.00  0.00    -0.222 A  
HETATM   22  C   UNL     1     -10.154   8.955  66.430  1.00  0.00    -0.333 A  
ENDBRANCH   6   7
ENDBRANCH   5   6
ENDBRANCH   4   5
ENDBRANCH   2   4
TORSDOF 4
ENDMDL
MODEL       24
REMARK 921   NORMALIZED FREE ENERGY PREDICTED BY IDOCK:   -5.57 KCAL/MOL
REMARK 922        TOTAL FREE ENERGY PREDICTED BY IDOCK:   -7.17 KCAL/MOL
REMARK 923 INTER-LIGAND FREE ENERGY PREDICTED BY IDOCK:   -6.64 KCAL/MOL
REMARK 924 INTRA-LIGAND FREE ENERGY PREDICTED BY IDOCK:   -0.54 KCAL/MOL
REMARK 927      BINDING AFFINITY PREDICTED BY RF-SCORE:    0.00 PKD
ROOT
HETATM    1  C   UNL     1      -9.440  11.494  65.908  1.00  0.00    -0.230 C  
HETATM    2  N   UNL     1      -9.091  11.674  67.317  1.00  0.00    -0.164 NA 
HETATM    3  C   UNL     1      -9.304  10.417  68.041  1.00  0.00    -0.140 C  
ENDROOT
BRANCH   2   4
HETATM    4  C   UNL     1      -7.703  12.179  67.451  1.00  0.00    -0.165 C  
BRANCH   4   5
HETATM    5  C   UNL     1      -7.637  13.567  68.103  1.00  0.00    -0.138 C  
BRANCH   5   6
HETATM    6  O   UNL     1      -7.844  14.634  67.172  1.00  0.00    -0.197 OA 
BRANCH   6   7
HETATM    7  C   UNL     1      -8.466  15.720  67.706  1.00  0.00    -0.155 C  
HETATM    8  C   UNL     1      -9.371  16.376  66.662  1.00  0.00    -0.282 C  
HETATM    9  O   UNL     1      -8.252  16.156  68.829  1.00  0.00    -0.189 OA 
HETATM   10  C   UNL     1     -10.521  15.477  66.209  1.00  0.00    -0.313 A  
HETATM   11  C   UNL     1      -9.819  17.800  67.107  1.00  0.00    -0.311 C  
HETATM   12  O   UNL     1     -10.625  17.742  68.289  1.00  0.00    -0.369 OA 
HETATM   13  C   UNL     1     -11.179  14.609  67.090  1.00  0.00    -0.349 A  
HETATM   14  C   UNL     1      -8.649  18.769  67.357  1.00  0.00    -0.289 C  
HETATM   15  C   UNL     1      -9.308  20.145  67.328  1.00  0.00    -0.519 C  
HETATM   16  H   UNL     1     -10.898  18.611  68.561  1.00  0.00     0.000 HD 
HETATM   17  C   UNL     1     -12.258  13.839  66.650  1.00  0.00    -0.454 A  
HETATM   18  C   UNL     1     -12.708  13.942  65.334  1.00  0.00    -0.525 A  
HETATM   19  C   UNL     1     -10.354  20.047  66.229  1.00  0.00    -0.570 C  
HETATM   20  C   UNL     1     -10.619  18.553  66.023  1.00  0.00    -0.368 C  
HETATM   21  C   UNL     1     -12.062  14.796  64.448  1.00  0.00    -0.457 A  
HETATM   22  C   UNL     1     -10.966  15.542  64.877  1.00  0.00    -0.452 A  
ENDBRANCH   6   7
ENDBRANCH   5   6
ENDBRANCH   4   5
ENDBRANCH   2   4
TORSDOF 4
ENDMDL
MODEL       25
REMARK 921   NORMALIZED FREE ENERGY PREDICTED BY IDOCK:   -5.49 KCAL/MOL
REMARK 922        TOTAL FREE ENERGY PREDICTED BY IDOCK:   -7.08 KCAL/MOL
REMARK 923 INTER-LIGAND FREE ENERGY PREDICTED BY IDOCK:   -6.65 KCAL/MOL
REMARK 924 INTRA-LIGAND FREE ENERGY PREDICTED BY IDOCK:   -0.42 KCAL/MOL
REMARK 927      BINDING AFFINITY PREDICTED BY RF-SCORE:    0.00 PKD
ROOT
HETATM    1  C   UNL     1      -7.640  19.102  68.789  1.00  0.00    -0.353 C  
HETATM    2  N   UNL     1      -8.415  18.879  67.569  1.00  0.00    -0.272 NA 
HETATM    3  C   UNL     1      -8.983  20.151  67.108  1.00  0.00    -0.360 C  
ENDROOT
BRANCH   2   4
HETATM    4  C   UNL     1      -7.583  18.221  66.533  1.00  0.00    -0.242 C  
BRANCH   4   5
HETATM    5  C   UNL     1      -8.095  16.823  66.161  1.00  0.00    -0.258 C  
BRANCH   5   6
HETATM    6  O   UNL     1      -9.233  16.421  66.929  1.00  0.00    -0.204 OA 
BRANCH   6   7
HETATM    7  C   UNL     1     -10.296  16.026  66.175  1.00  0.00    -0.328 C  
HETATM    8  C   UNL     1     -10.712  14.604  66.557  1.00  0.00    -0.312 C  
HETATM    9  O   UNL     1     -10.779  16.682  65.263  1.00  0.00    -0.550 OA 
HETATM   10  C   UNL     1     -11.215  14.486  67.995  1.00  0.00    -0.308 A  
HETATM   11  C   UNL     1     -11.674  13.986  65.497  1.00  0.00    -0.350 C  
HETATM   12  O   UNL     1     -12.907  14.712  65.435  1.00  0.00    -0.293 OA 
HETATM   13  C   UNL     1     -11.966  15.499  68.606  1.00  0.00    -0.231 A  
HETATM   14  C   UNL     1     -11.074  13.913  64.082  1.00  0.00    -0.128 C  
HETATM   15  C   UNL     1     -11.969  12.907  63.363  1.00  0.00    -0.612 C  
HETATM   16  H   UNL     1     -13.493  14.336  64.789  1.00  0.00     0.000 HD 
HETATM   17  C   UNL     1     -12.449  15.334  69.907  1.00  0.00    -0.275 A  
HETATM   18  C   UNL     1     -12.209  14.150  70.602  1.00  0.00    -0.432 A  
HETATM   19  C   UNL     1     -12.278  11.850  64.412  1.00  0.00    -0.277 C  
HETATM   20  C   UNL     1     -12.008  12.505  65.770  1.00  0.00    -0.482 C  
HETATM   21  C   UNL     1     -11.462  13.138  70.011  1.00  0.00    -0.095 A  
HETATM   22  C   UNL     1     -10.953  13.313  68.725  1.00  0.00    -0.294 A  
ENDBRANCH   6   7
ENDBRANCH   5   6
ENDBRANCH   4   5
ENDBRANCH   2   4
TORSDOF 4
ENDMDL
MODEL       26
REMARK 921   NORMALIZED FREE ENERGY PREDICTED BY IDOCK:   -5.45 KCAL/MOL
REMARK 922        TOTAL FREE ENERGY PREDICTED BY IDOCK:   -7.03 KCAL/MOL
REMARK 923 INTER-LIGAND FREE ENERGY PREDICTED BY IDOCK:   -6.62 KCAL/MOL
REMARK 924 INTRA-LIGAND FREE ENERGY PREDICTED BY IDOCK:   -0.41 KCAL/MOL
REMARK 927      BINDING AFFINITY PREDICTED BY RF-SCORE:    0.00 PKD
ROOT
HETATM    1  C   UNL     1      -7.021  20.471  67.480  1.00  0.00    -0.325 C  
HETATM    2  N   UNL     1      -7.722  19.188  67.521  1.00  0.00    -0.236 NA 
HETATM    3  C   UNL     1      -8.889  19.292  68.404  1.00  0.00    -0.352 C  
ENDROOT
BRANCH   2   4
HETATM    4  C   UNL     1      -8.084  18.745  66.152  1.00  0.00    -0.199 C  
BRANCH   4   5
HETATM    5  C   UNL     1      -9.417  17.985  66.108  1.00  0.00    -0.146 C  
BRANCH   5   6
HETATM    6  O   UNL     1      -9.251  16.571  65.965  1.00  0.00    -0.369 OA 
BRANCH   6   7
HETATM    7  C   UNL     1      -9.260  15.892  67.145  1.00  0.00    -0.209 C  
HETATM    8  C   UNL     1     -10.630  15.252  67.374  1.00  0.00    -0.282 C  
HETATM    9  O   UNL     1      -8.333  15.882  67.944  1.00  0.00    -0.151 OA 
HETATM   10  C   UNL     1     -10.983  14.189  66.334  1.00  0.00    -0.311 A  
HETATM   11  C   UNL     1     -10.799  14.775  68.848  1.00  0.00    -0.254 C  
HETATM   12  O   UNL     1      -9.865  13.737  69.165  1.00  0.00    -0.418 OA 
HETATM   13  C   UNL     1     -10.018  13.329  65.792  1.00  0.00    -0.261 A  
HETATM   14  C   UNL     1     -10.652  15.902  69.887  1.00  0.00    -0.327 C  
HETATM   15  C   UNL     1     -11.283  15.316  71.147  1.00  0.00    -0.378 C  
HETATM   16  H   UNL     1      -9.967  13.446  70.064  1.00  0.00     0.000 HD 
HETATM   17  C   UNL     1     -10.388  12.338  64.880  1.00  0.00    -0.319 A  
HETATM   18  C   UNL     1     -11.724  12.179  64.515  1.00  0.00    -0.410 A  
HETATM   19  C   UNL     1     -12.478  14.521  70.643  1.00  0.00    -0.409 C  
HETATM   20  C   UNL     1     -12.216  14.249  69.159  1.00  0.00    -0.272 C  
HETATM   21  C   UNL     1     -12.691  13.028  65.040  1.00  0.00    -0.475 A  
HETATM   22  C   UNL     1     -12.320  14.037  65.927  1.00  0.00    -0.515 A  
ENDBRANCH   6   7
ENDBRANCH   5   6
ENDBRANCH   4   5
ENDBRANCH   2   4
TORSDOF 4
ENDMDL
MODEL       27
REMARK 921   NORMALIZED FREE ENERGY PREDICTED BY IDOCK:   -5.43 KCAL/MOL
REMARK 922        TOTAL FREE ENERGY PREDICTED BY IDOCK:   -7.01 KCAL/MOL
REMARK 923 INTER-LIGAND FREE ENERGY PREDICTED BY IDOCK:   -6.72 KCAL/MOL
REMARK 924 INTRA-LIGAND FREE ENERGY PREDICTED BY IDOCK:   -0.29 KCAL/MOL
REMARK 927      BINDING AFFINITY PREDICTED BY RF-SCORE:    0.00 PKD
ROOT
HETATM    1  C   UNL     1     -14.305  15.235  71.913  1.00  0.00    -0.589 C  
HETATM    2  N   UNL     1     -13.013  15.835  72.241  1.00  0.00    -0.442 NA 
HETATM    3  C   UNL     1     -12.867  15.924  73.698  1.00  0.00    -0.599 C  
ENDROOT
BRANCH   2   4
HETATM    4  C   UNL     1     -11.907  15.078  71.605  1.00  0.00    -0.378 C  
BRANCH   4   5
HETATM    5  C   UNL     1     -11.185  15.885  70.518  1.00  0.00    -0.377 C  
BRANCH   5   6
HETATM    6  O   UNL     1     -10.655  15.066  69.471  1.00  0.00    -0.247 OA 
BRANCH   6   7
HETATM    7  C   UNL     1     -10.633  15.673  68.252  1.00  0.00    -0.262 C  
HETATM    8  C   UNL     1      -9.413  16.589  68.143  1.00  0.00    -0.222 C  
HETATM    9  O   UNL     1     -11.516  15.568  67.412  1.00  0.00    -0.271 OA 
HETATM   10  C   UNL     1      -8.084  15.836  68.205  1.00  0.00    -0.142 A  
HETATM   11  C   UNL     1      -9.534  17.559  66.930  1.00  0.00    -0.274 C  
HETATM   12  O   UNL     1      -9.549  16.839  65.692  1.00  0.00    -0.527 OA 
HETATM   13  C   UNL     1      -7.918  14.570  67.629  1.00  0.00    -0.190 A  
HETATM   14  C   UNL     1     -10.774  18.469  66.984  1.00  0.00    -0.363 C  
HETATM   15  C   UNL     1     -10.446  19.584  65.994  1.00  0.00    -0.611 C  
HETATM   16  H   UNL     1      -9.623  17.430  64.952  1.00  0.00     0.000 HD 
HETATM   17  C   UNL     1      -6.674  13.934  67.665  1.00  0.00    -0.189 A  
HETATM   18  C   UNL     1      -5.578  14.563  68.254  1.00  0.00    -0.118 A  
HETATM   19  C   UNL     1      -8.961  19.845  66.187  1.00  0.00    -0.373 C  
HETATM   20  C   UNL     1      -8.391  18.594  66.863  1.00  0.00    -0.269 C  
HETATM   21  C   UNL     1      -5.729  15.818  68.833  1.00  0.00    -0.104 A  
HETATM   22  C   UNL     1      -6.976  16.440  68.826  1.00  0.00    -0.172 A  
ENDBRANCH   6   7
ENDBRANCH   5   6
ENDBRANCH   4   5
ENDBRANCH   2   4
TORSDOF 4
ENDMDL
MODEL       28
REMARK 921   NORMALIZED FREE ENERGY PREDICTED BY IDOCK:   -5.43 KCAL/MOL
REMARK 922        TOTAL FREE ENERGY PREDICTED BY IDOCK:   -7.00 KCAL/MOL
REMARK 923 INTER-LIGAND FREE ENERGY PREDICTED BY IDOCK:   -6.56 KCAL/MOL
REMARK 924 INTRA-LIGAND FREE ENERGY PREDICTED BY IDOCK:   -0.44 KCAL/MOL
REMARK 927      BINDING AFFINITY PREDICTED BY RF-SCORE:    0.00 PKD
ROOT
HETATM    1  C   UNL     1     -10.437  12.005  63.338  1.00  0.00    -0.433 C  
HETATM    2  N   UNL     1     -10.805  11.272  64.550  1.00  0.00    -0.315 NA 
HETATM    3  C   UNL     1      -9.591  10.834  65.247  1.00  0.00    -0.229 C  
ENDROOT
BRANCH   2   4
HETATM    4  C   UNL     1     -11.689  12.095  65.411  1.00  0.00    -0.321 C  
BRANCH   4   5
HETATM    5  C   UNL     1     -12.111  13.410  64.742  1.00  0.00    -0.406 C  
BRANCH   5   6
HETATM    6  O   UNL     1     -12.227  14.496  65.666  1.00  0.00    -0.351 OA 
BRANCH   6   7
HETATM    7  C   UNL     1     -11.032  15.009  66.068  1.00  0.00    -0.334 C  
HETATM    8  C   UNL     1     -11.206  15.785  67.375  1.00  0.00    -0.179 C  
HETATM    9  O   UNL     1      -9.996  14.936  65.422  1.00  0.00    -0.349 OA 
HETATM   10  C   UNL     1     -11.644  14.906  68.546  1.00  0.00    -0.347 A  
HETATM   11  C   UNL     1      -9.962  16.673  67.681  1.00  0.00    -0.264 C  
HETATM   12  O   UNL     1      -8.795  15.872  67.896  1.00  0.00    -0.177 OA 
HETATM   13  C   UNL     1     -11.185  13.592  68.703  1.00  0.00    -0.311 A  
HETATM   14  C   UNL     1      -9.653  17.708  66.584  1.00  0.00    -0.301 C  
HETATM   15  C   UNL     1      -8.736  18.709  67.281  1.00  0.00    -0.280 C  
HETATM   16  H   UNL     1      -8.037  16.414  68.083  1.00  0.00     0.000 HD 
HETATM   17  C   UNL     1     -11.571  12.836  69.813  1.00  0.00    -0.288 A  
HETATM   18  C   UNL     1     -12.398  13.390  70.790  1.00  0.00    -0.433 A  
HETATM   19  C   UNL     1      -9.298  18.830  68.689  1.00  0.00    -0.392 C  
HETATM   20  C   UNL     1     -10.151  17.578  68.917  1.00  0.00    -0.346 C  
HETATM   21  C   UNL     1     -12.863  14.691  70.645  1.00  0.00    -0.399 A  
HETATM   22  C   UNL     1     -12.505  15.436  69.523  1.00  0.00    -0.110 A  
ENDBRANCH   6   7
ENDBRANCH   5   6
ENDBRANCH   4   5
ENDBRANCH   2   4
TORSDOF 4
ENDMDL
MODEL       29
REMARK 921   NORMALIZED FREE ENERGY PREDICTED BY IDOCK:   -5.40 KCAL/MOL
REMARK 922        TOTAL FREE ENERGY PREDICTED BY IDOCK:   -6.96 KCAL/MOL
REMARK 923 INTER-LIGAND FREE ENERGY PREDICTED BY IDOCK:   -6.75 KCAL/MOL
REMARK 924 INTRA-LIGAND FREE ENERGY PREDICTED BY IDOCK:   -0.21 KCAL/MOL
REMARK 927      BINDING AFFINITY PREDICTED BY RF-SCORE:    0.00 PKD
ROOT
HETATM    1  C   UNL     1     -12.275  14.963  64.310  1.00  0.00    -0.344 C  
HETATM    2  N   UNL     1     -12.807  13.808  65.033  1.00  0.00    -0.735 NA 
HETATM    3  C   UNL     1     -12.429  12.575  64.335  1.00  0.00    -0.446 C  
ENDROOT
BRANCH   2   4
HETATM    4  C   UNL     1     -12.355  13.822  66.446  1.00  0.00    -0.412 C  
BRANCH   4   5
HETATM    5  C   UNL     1     -11.425  12.647  66.782  1.00  0.00    -0.351 C  
BRANCH   5   6
HETATM    6  O   UNL     1     -12.099  11.570  67.440  1.00  0.00    -0.593 OA 
BRANCH   6   7
HETATM    7  C   UNL     1     -11.598  11.275  68.671  1.00  0.00    -0.318 C  
HETATM    8  C   UNL     1     -11.356   9.770  68.794  1.00  0.00     0.016 C  
HETATM    9  O   UNL     1     -11.456  12.089  69.573  1.00  0.00    -0.284 OA 
HETATM   10  C   UNL     1     -10.294   9.247  67.827  1.00  0.00    -0.292 A  
HETATM   11  C   UNL     1     -11.125   9.347  70.276  1.00  0.00    -0.257 C  
HETATM   12  O   UNL     1      -9.934   9.942  70.803  1.00  0.00    -0.348 OA 
HETATM   13  C   UNL     1      -9.158   9.996  67.493  1.00  0.00    -0.144 A  
HETATM   14  C   UNL     1     -12.300   9.690  71.210  1.00  0.00    -0.449 C  
HETATM   15  C   UNL     1     -12.054   8.814  72.435  1.00  0.00    -0.379 C  
HETATM   16  H   UNL     1      -9.793   9.685  71.707  1.00  0.00     0.000 HD 
HETATM   17  C   UNL     1      -8.185   9.464  66.643  1.00  0.00    -0.112 A  
HETATM   18  C   UNL     1      -8.322   8.173  66.136  1.00  0.00    -0.126 A  
HETATM   19  C   UNL     1     -11.528   7.503  71.871  1.00  0.00    -0.307 C  
HETATM   20  C   UNL     1     -11.015   7.819  70.463  1.00  0.00    -0.251 C  
HETATM   21  C   UNL     1      -9.445   7.420  66.456  1.00  0.00    -0.229 A  
HETATM   22  C   UNL     1     -10.432   7.960  67.279  1.00  0.00    -0.390 A  
ENDBRANCH   6   7
ENDBRANCH   5   6
ENDBRANCH   4   5
ENDBRANCH   2   4
TORSDOF 4
ENDMDL
MODEL       30
REMARK 921   NORMALIZED FREE ENERGY PREDICTED BY IDOCK:   -5.37 KCAL/MOL
REMARK 922        TOTAL FREE ENERGY PREDICTED BY IDOCK:   -6.93 KCAL/MOL
REMARK 923 INTER-LIGAND FREE ENERGY PREDICTED BY IDOCK:   -6.67 KCAL/MOL
REMARK 924 INTRA-LIGAND FREE ENERGY PREDICTED BY IDOCK:   -0.26 KCAL/MOL
REMARK 927      BINDING AFFINITY PREDICTED BY RF-SCORE:    0.00 PKD
ROOT
HETATM    1  C   UNL     1     -10.270  11.227  63.376  1.00  0.00    -0.403 C  
HETATM    2  N   UNL     1     -11.080  12.444  63.348  1.00  0.00    -0.448 NA 
HETATM    3  C   UNL     1     -12.489  12.102  63.570  1.00  0.00    -0.555 C  
ENDROOT
BRANCH   2   4
HETATM    4  C   UNL     1     -10.575  13.433  64.331  1.00  0.00    -0.407 C  
BRANCH   4   5
HETATM    5  C   UNL     1     -11.682  14.345  64.876  1.00  0.00    -0.408 C  
BRANCH   5   6
HETATM    6  O   UNL     1     -11.175  15.505  65.544  1.00  0.00    -0.286 OA 
BRANCH   6   7
HETATM    7  C   UNL     1     -10.463  15.225  66.671  1.00  0.00    -0.290 C  
HETATM    8  C   UNL     1      -9.166  16.036  66.689  1.00  0.00    -0.276 C  
HETATM    9  O   UNL     1     -10.778  14.378  67.495  1.00  0.00    -0.266 OA 
HETATM   10  C   UNL     1      -9.398  17.545  66.762  1.00  0.00    -0.275 A  
HETATM   11  C   UNL     1      -8.170  15.497  67.759  1.00  0.00    -0.147 C  
HETATM   12  O   UNL     1      -8.700  15.646  69.080  1.00  0.00    -0.217 OA 
HETATM   13  C   UNL     1     -10.446  18.103  67.506  1.00  0.00    -0.425 A  
HETATM   14  C   UNL     1      -7.774  14.023  67.551  1.00  0.00    -0.197 C  
HETATM   15  C   UNL     1      -6.510  13.868  68.392  1.00  0.00    -0.103 C  
HETATM   16  H   UNL     1      -8.093  15.317  69.733  1.00  0.00     0.000 HD 
HETATM   17  C   UNL     1     -10.596  19.489  67.587  1.00  0.00    -0.566 A  
HETATM   18  C   UNL     1      -9.690  20.335  66.948  1.00  0.00    -0.584 A  
HETATM   19  C   UNL     1      -5.760  15.178  68.204  1.00  0.00    -0.139 C  
HETATM   20  C   UNL     1      -6.795  16.196  67.717  1.00  0.00    -0.165 C  
HETATM   21  C   UNL     1      -8.647  19.796  66.203  1.00  0.00    -0.367 A  
HETATM   22  C   UNL     1      -8.514  18.413  66.095  1.00  0.00    -0.145 A  
ENDBRANCH   6   7
ENDBRANCH   5   6
ENDBRANCH   4   5
ENDBRANCH   2   4
TORSDOF 4
ENDMDL
MODEL       31
REMARK 921   NORMALIZED FREE ENERGY PREDICTED BY IDOCK:   -5.35 KCAL/MOL
REMARK 922        TOTAL FREE ENERGY PREDICTED BY IDOCK:   -6.91 KCAL/MOL
REMARK 923 INTER-LIGAND FREE ENERGY PREDICTED BY IDOCK:   -6.43 KCAL/MOL
REMARK 924 INTRA-LIGAND FREE ENERGY PREDICTED BY IDOCK:   -0.48 KCAL/MOL
REMARK 927      BINDING AFFINITY PREDICTED BY RF-SCORE:    0.00 PKD
ROOT
HETATM    1  C   UNL     1     -13.815  13.365  72.157  1.00  0.00    -0.511 C  
HETATM    2  N   UNL     1     -12.948  13.395  70.980  1.00  0.00    -0.234 NA 
HETATM    3  C   UNL     1     -11.987  14.495  71.104  1.00  0.00    -0.339 C  
ENDROOT
BRANCH   2   4
HETATM    4  C   UNL     1     -12.285  12.082  70.785  1.00  0.00    -0.286 C  
BRANCH   4   5
HETATM    5  C   UNL     1     -11.953  11.799  69.313  1.00  0.00    -0.291 C  
BRANCH   5   6
HETATM    6  O   UNL     1     -10.558  11.918  69.020  1.00  0.00    -0.196 OA 
BRANCH   6   7
HETATM    7  C   UNL     1     -10.273  11.935  67.689  1.00  0.00    -0.201 C  
HETATM    8  C   UNL     1     -10.922  13.152  67.028  1.00  0.00    -0.289 C  
HETATM    9  O   UNL     1      -9.666  11.051  67.101  1.00  0.00    -0.171 OA 
HETATM   10  C   UNL     1     -10.373  14.484  67.541  1.00  0.00    -0.244 A  
HETATM   11  C   UNL     1     -10.923  13.025  65.475  1.00  0.00    -0.274 C  
HETATM   12  O   UNL     1      -9.589  13.009  64.957  1.00  0.00    -0.500 OA 
HETATM   13  C   UNL     1      -9.024  14.652  67.880  1.00  0.00    -0.174 A  
HETATM   14  C   UNL     1     -11.668  11.783  64.954  1.00  0.00    -0.187 C  
HETATM   15  C   UNL     1     -11.922  12.105  63.484  1.00  0.00    -0.619 C  
HETATM   16  H   UNL     1      -9.589  12.932  64.010  1.00  0.00     0.000 HD 
HETATM   17  C   UNL     1      -8.551  15.898  68.299  1.00  0.00    -0.176 A  
HETATM   18  C   UNL     1      -9.411  16.993  68.363  1.00  0.00    -0.266 A  
HETATM   19  C   UNL     1     -12.248  13.590  63.467  1.00  0.00    -0.410 C  
HETATM   20  C   UNL     1     -11.692  14.165  64.772  1.00  0.00    -0.416 C  
HETATM   21  C   UNL     1     -10.752  16.840  68.034  1.00  0.00    -0.355 A  
HETATM   22  C   UNL     1     -11.233  15.591  67.646  1.00  0.00    -0.291 A  
ENDBRANCH   6   7
ENDBRANCH   5   6
ENDBRANCH   4   5
ENDBRANCH   2   4
TORSDOF 4
ENDMDL
MODEL       32
REMARK 921   NORMALIZED FREE ENERGY PREDICTED BY IDOCK:   -5.32 KCAL/MOL
REMARK 922        TOTAL FREE ENERGY PREDICTED BY IDOCK:   -6.87 KCAL/MOL
REMARK 923 INTER-LIGAND FREE ENERGY PREDICTED BY IDOCK:   -6.27 KCAL/MOL
REMARK 924 INTRA-LIGAND FREE ENERGY PREDICTED BY IDOCK:   -0.59 KCAL/MOL
REMARK 927      BINDING AFFINITY PREDICTED BY RF-SCORE:    0.00 PKD
ROOT
HETATM    1  C   UNL     1     -13.016  13.838  65.431  1.00  0.00    -0.312 C  
HETATM    2  N   UNL     1     -12.341  14.201  64.186  1.00  0.00    -0.678 NA 
HETATM    3  C   UNL     1     -11.344  15.243  64.453  1.00  0.00    -0.215 C  
ENDROOT
BRANCH   2   4
HETATM    4  C   UNL     1     -11.751  13.002  63.541  1.00  0.00    -0.471 C  
BRANCH   4   5
HETATM    5  C   UNL     1     -11.583  11.828  64.515  1.00  0.00    -0.223 C  
BRANCH   5   6
HETATM    6  O   UNL     1     -10.243  11.686  64.996  1.00  0.00    -0.252 OA 
BRANCH   6   7
HETATM    7  C   UNL     1     -10.086  12.033  66.304  1.00  0.00    -0.222 C  
HETATM    8  C   UNL     1     -10.661  10.942  67.210  1.00  0.00    -0.317 C  
HETATM    9  O   UNL     1      -9.637  13.104  66.686  1.00  0.00    -0.248 OA 
HETATM   10  C   UNL     1      -9.926   9.607  67.090  1.00  0.00    -0.249 A  
HETATM   11  C   UNL     1     -10.825  11.445  68.676  1.00  0.00    -0.208 C  
HETATM   12  O   UNL     1      -9.556  11.758  69.259  1.00  0.00    -0.380 OA 
HETATM   13  C   UNL     1      -8.541   9.535  66.895  1.00  0.00    -0.132 A  
HETATM   14  C   UNL     1     -11.745  12.672  68.812  1.00  0.00    -0.364 C  
HETATM   15  C   UNL     1     -12.102  12.691  70.296  1.00  0.00    -0.372 C  
HETATM   16  H   UNL     1      -9.655  12.066  70.153  1.00  0.00     0.000 HD 
HETATM   17  C   UNL     1      -7.899   8.295  66.839  1.00  0.00    -0.096 A  
HETATM   18  C   UNL     1      -8.626   7.117  67.001  1.00  0.00    -0.122 A  
HETATM   19  C   UNL     1     -12.267  11.226  70.670  1.00  0.00    -0.489 C  
HETATM   20  C   UNL     1     -11.530  10.424  69.593  1.00  0.00    -0.326 C  
HETATM   21  C   UNL     1     -10.001   7.173  67.191  1.00  0.00    -0.270 A  
HETATM   22  C   UNL     1     -10.649   8.407  67.216  1.00  0.00    -0.328 A  
ENDBRANCH   6   7
ENDBRANCH   5   6
ENDBRANCH   4   5
ENDBRANCH   2   4
TORSDOF 4
ENDMDL
MODEL       33
REMARK 921   NORMALIZED FREE ENERGY PREDICTED BY IDOCK:   -5.31 KCAL/MOL
REMARK 922        TOTAL FREE ENERGY PREDICTED BY IDOCK:   -6.85 KCAL/MOL
REMARK 923 INTER-LIGAND FREE ENERGY PREDICTED BY IDOCK:   -6.32 KCAL/MOL
REMARK 924 INTRA-LIGAND FREE ENERGY PREDICTED BY IDOCK:   -0.53 KCAL/MOL
REMARK 927      BINDING AFFINITY PREDICTED BY RF-SCORE:    0.00 PKD
ROOT
HETATM    1  C   UNL     1      -9.914   5.021  67.089  1.00  0.00    -0.195 C  
HETATM    2  N   UNL     1     -10.477   6.303  67.512  1.00  0.00    -0.201 NA 
HETATM    3  C   UNL     1     -10.996   6.185  68.879  1.00  0.00    -0.356 C  
ENDROOT
BRANCH   2   4
HETATM    4  C   UNL     1      -9.472   7.386  67.379  1.00  0.00    -0.141 C  
BRANCH   4   5
HETATM    5  C   UNL     1      -9.958   8.539  66.491  1.00  0.00    -0.280 C  
BRANCH   5   6
HETATM    6  O   UNL     1     -10.997   9.314  67.098  1.00  0.00    -0.138 OA 
BRANCH   6   7
HETATM    7  C   UNL     1     -10.600  10.554  67.496  1.00  0.00    -0.259 C  
HETATM    8  C   UNL     1     -11.356  10.967  68.760  1.00  0.00    -0.349 C  
HETATM    9  O   UNL     1      -9.823  11.264  66.874  1.00  0.00    -0.189 OA 
HETATM   10  C   UNL     1     -11.052  10.077  69.965  1.00  0.00    -0.350 A  
HETATM   11  C   UNL     1     -11.202  12.491  69.046  1.00  0.00    -0.268 C  
HETATM   12  O   UNL     1      -9.838  12.830  69.321  1.00  0.00    -0.223 OA 
HETATM   13  C   UNL     1      -9.777   9.544  70.195  1.00  0.00    -0.289 A  
HETATM   14  C   UNL     1     -11.711  13.391  67.905  1.00  0.00    -0.396 C  
HETATM   15  C   UNL     1     -11.877  14.755  68.569  1.00  0.00    -0.340 C  
HETATM   16  H   UNL     1      -9.743  13.759  69.495  1.00  0.00     0.000 HD 
HETATM   17  C   UNL     1      -9.527   8.774  71.333  1.00  0.00    -0.330 A  
HETATM   18  C   UNL     1     -10.537   8.546  72.266  1.00  0.00    -0.408 A  
HETATM   19  C   UNL     1     -12.410  14.444  69.959  1.00  0.00    -0.391 C  
HETATM   20  C   UNL     1     -12.060  12.978  70.232  1.00  0.00    -0.388 C  
HETATM   21  C   UNL     1     -11.808   9.065  72.050  1.00  0.00    -0.426 A  
HETATM   22  C   UNL     1     -12.068   9.807  70.899  1.00  0.00    -0.407 A  
ENDBRANCH   6   7
ENDBRANCH   5   6
ENDBRANCH   4   5
ENDBRANCH   2   4
TORSDOF 4
ENDMDL
MODEL       34
REMARK 921   NORMALIZED FREE ENERGY PREDICTED BY IDOCK:   -5.29 KCAL/MOL
REMARK 922        TOTAL FREE ENERGY PREDICTED BY IDOCK:   -6.83 KCAL/MOL
REMARK 923 INTER-LIGAND FREE ENERGY PREDICTED BY IDOCK:   -6.26 KCAL/MOL
REMARK 924 INTRA-LIGAND FREE ENERGY PREDICTED BY IDOCK:   -0.57 KCAL/MOL
REMARK 927      BINDING AFFINITY PREDICTED BY RF-SCORE:    0.00 PKD
ROOT
HETATM    1  C   UNL     1      -7.998  16.099  68.579  1.00  0.00    -0.175 C  
HETATM    2  N   UNL     1      -8.326  15.004  67.666  1.00  0.00    -0.153 NA 
HETATM    3  C   UNL     1      -8.797  15.553  66.390  1.00  0.00    -0.324 C  
ENDROOT
BRANCH   2   4
HETATM    4  C   UNL     1      -7.165  14.096  67.498  1.00  0.00    -0.169 C  
BRANCH   4   5
HETATM    5  C   UNL     1      -7.443  12.678  68.015  1.00  0.00    -0.120 C  
BRANCH   5   6
HETATM    6  O   UNL     1      -7.948  11.802  67.003  1.00  0.00    -0.155 OA 
BRANCH   6   7
HETATM    7  C   UNL     1      -8.793  10.844  67.474  1.00  0.00    -0.133 C  
HETATM    8  C   UNL     1     -10.023  11.495  68.109  1.00  0.00    -0.197 C  
HETATM    9  O   UNL     1      -8.551   9.645  67.471  1.00  0.00    -0.125 OA 
HETATM   10  C   UNL     1     -10.874  12.281  67.112  1.00  0.00    -0.282 A  
HETATM   11  C   UNL     1     -10.833  10.473  68.964  1.00  0.00    -0.232 C  
HETATM   12  O   UNL     1     -11.367   9.426  68.147  1.00  0.00    -0.497 OA 
HETATM   13  C   UNL     1     -11.055  11.856  65.789  1.00  0.00    -0.367 A  
HETATM   14  C   UNL     1     -10.021   9.839  70.107  1.00  0.00    -0.315 C  
HETATM   15  C   UNL     1     -11.090   9.264  71.033  1.00  0.00    -0.396 C  
HETATM   16  H   UNL     1     -11.861   8.803  68.668  1.00  0.00     0.000 HD 
HETATM   17  C   UNL     1     -11.879  12.577  64.922  1.00  0.00    -0.438 A  
HETATM   18  C   UNL     1     -12.550  13.714  65.369  1.00  0.00    -0.533 A  
HETATM   19  C   UNL     1     -12.213  10.289  71.005  1.00  0.00    -0.487 C  
HETATM   20  C   UNL     1     -12.004  11.118  69.735  1.00  0.00    -0.428 C  
HETATM   21  C   UNL     1     -12.377  14.150  66.677  1.00  0.00    -0.375 A  
HETATM   22  C   UNL     1     -11.531  13.451  67.535  1.00  0.00    -0.357 A  
ENDBRANCH   6   7
ENDBRANCH   5   6
ENDBRANCH   4   5
ENDBRANCH   2   4
TORSDOF 4
ENDMDL
MODEL       35
REMARK 921   NORMALIZED FREE ENERGY PREDICTED BY IDOCK:   -5.28 KCAL/MOL
REMARK 922        TOTAL FREE ENERGY PREDICTED BY IDOCK:   -6.81 KCAL/MOL
REMARK 923 INTER-LIGAND FREE ENERGY PREDICTED BY IDOCK:   -6.33 KCAL/MOL
REMARK 924 INTRA-LIGAND FREE ENERGY PREDICTED BY IDOCK:   -0.49 KCAL/MOL
REMARK 927      BINDING AFFINITY PREDICTED BY RF-SCORE:    0.00 PKD
ROOT
HETATM    1  C   UNL     1     -12.978  14.030  65.470  1.00  0.00    -0.316 C  
HETATM    2  N   UNL     1     -12.154  14.208  64.275  1.00  0.00    -0.511 NA 
HETATM    3  C   UNL     1     -11.440  15.486  64.356  1.00  0.00    -0.259 C  
ENDROOT
BRANCH   2   4
HETATM    4  C   UNL     1     -11.236  13.056  64.096  1.00  0.00    -0.399 C  
BRANCH   4   5
HETATM    5  C   UNL     1     -11.335  12.037  65.240  1.00  0.00    -0.312 C  
BRANCH   5   6
HETATM    6  O   UNL     1     -10.102  11.866  65.946  1.00  0.00    -0.221 OA 
BRANCH   6   7
HETATM    7  C   UNL     1      -9.828  12.866  66.828  1.00  0.00    -0.241 C  
HETATM    8  C   UNL     1     -10.808  12.816  68.001  1.00  0.00    -0.254 C  
HETATM    9  O   UNL     1      -8.981  13.731  66.651  1.00  0.00    -0.217 OA 
HETATM   10  C   UNL     1     -10.686  11.542  68.837  1.00  0.00    -0.245 A  
HETATM   11  C   UNL     1     -10.763  14.129  68.840  1.00  0.00    -0.256 C  
HETATM   12  O   UNL     1      -9.482  14.305  69.455  1.00  0.00    -0.395 OA 
HETATM   13  C   UNL     1      -9.452  10.925  69.080  1.00  0.00    -0.160 A  
HETATM   14  C   UNL     1     -11.098  15.394  68.030  1.00  0.00    -0.312 C  
HETATM   15  C   UNL     1     -11.429  16.430  69.101  1.00  0.00    -0.188 C  
HETATM   16  H   UNL     1      -9.455  15.106  69.966  1.00  0.00     0.000 HD 
HETATM   17  C   UNL     1      -9.376   9.789  69.889  1.00  0.00    -0.262 A  
HETATM   18  C   UNL     1     -10.525   9.269  70.482  1.00  0.00    -0.312 A  
HETATM   19  C   UNL     1     -12.185  15.653  70.166  1.00  0.00    -0.387 C  
HETATM   20  C   UNL     1     -11.834  14.178  69.950  1.00  0.00    -0.387 C  
HETATM   21  C   UNL     1     -11.757   9.867  70.247  1.00  0.00    -0.286 A  
HETATM   22  C   UNL     1     -11.839  10.982  69.415  1.00  0.00    -0.407 A  
ENDBRANCH   6   7
ENDBRANCH   5   6
ENDBRANCH   4   5
ENDBRANCH   2   4
TORSDOF 4
ENDMDL
MODEL       36
REMARK 921   NORMALIZED FREE ENERGY PREDICTED BY IDOCK:   -5.27 KCAL/MOL
REMARK 922        TOTAL FREE ENERGY PREDICTED BY IDOCK:   -6.80 KCAL/MOL
REMARK 923 INTER-LIGAND FREE ENERGY PREDICTED BY IDOCK:   -6.31 KCAL/MOL
REMARK 924 INTRA-LIGAND FREE ENERGY PREDICTED BY IDOCK:   -0.49 KCAL/MOL
REMARK 927      BINDING AFFINITY PREDICTED BY RF-SCORE:    0.00 PKD
ROOT
HETATM    1  C   UNL     1      -9.432  11.432  68.482  1.00  0.00    -0.183 C  
HETATM    2  N   UNL     1      -8.473  12.515  68.266  1.00  0.00    -0.173 NA 
HETATM    3  C   UNL     1      -7.159  12.117  68.781  1.00  0.00    -0.110 C  
ENDROOT
BRANCH   2   4
HETATM    4  C   UNL     1      -8.429  12.897  66.834  1.00  0.00    -0.086 C  
BRANCH   4   5
HETATM    5  C   UNL     1      -9.810  13.271  66.278  1.00  0.00    -0.285 C  
BRANCH   5   6
HETATM    6  O   UNL     1     -10.161  14.637  66.520  1.00  0.00    -0.266 OA 
BRANCH   6   7
HETATM    7  C   UNL     1     -11.183  14.795  67.406  1.00  0.00    -0.339 C  
HETATM    8  C   UNL     1     -10.713  15.613  68.610  1.00  0.00    -0.256 C  
HETATM    9  O   UNL     1     -12.284  14.274  67.292  1.00  0.00    -0.393 OA 
HETATM   10  C   UNL     1     -10.311  17.043  68.250  1.00  0.00    -0.347 A  
HETATM   11  C   UNL     1     -11.722  15.519  69.794  1.00  0.00    -0.349 C  
HETATM   12  O   UNL     1     -12.984  16.097  69.443  1.00  0.00    -0.240 OA 
HETATM   13  C   UNL     1     -10.986  17.782  67.269  1.00  0.00    -0.033 A  
HETATM   14  C   UNL     1     -11.961  14.083  70.294  1.00  0.00    -0.409 C  
HETATM   15  C   UNL     1     -12.584  14.280  71.673  1.00  0.00    -0.431 C  
HETATM   16  H   UNL     1     -13.600  16.039  70.165  1.00  0.00     0.000 HD 
HETATM   17  C   UNL     1     -10.619  19.103  67.002  1.00  0.00    -0.551 A  
HETATM   18  C   UNL     1      -9.593  19.709  67.725  1.00  0.00    -0.460 A  
HETATM   19  C   UNL     1     -11.846  15.472  72.261  1.00  0.00    -0.560 C  
HETATM   20  C   UNL     1     -11.222  16.215  71.077  1.00  0.00    -0.297 C  
HETATM   21  C   UNL     1      -8.912  18.988  68.698  1.00  0.00    -0.402 A  
HETATM   22  C   UNL     1      -9.255  17.660  68.945  1.00  0.00    -0.143 A  
ENDBRANCH   6   7
ENDBRANCH   5   6
ENDBRANCH   4   5
ENDBRANCH   2   4
TORSDOF 4
ENDMDL
MODEL       37
REMARK 921   NORMALIZED FREE ENERGY PREDICTED BY IDOCK:   -5.26 KCAL/MOL
REMARK 922        TOTAL FREE ENERGY PREDICTED BY IDOCK:   -6.80 KCAL/MOL
REMARK 923 INTER-LIGAND FREE ENERGY PREDICTED BY IDOCK:   -6.43 KCAL/MOL
REMARK 924 INTRA-LIGAND FREE ENERGY PREDICTED BY IDOCK:   -0.36 KCAL/MOL
REMARK 927      BINDING AFFINITY PREDICTED BY RF-SCORE:    0.00 PKD
ROOT
HETATM    1  C   UNL     1     -10.405  17.880  66.991  1.00  0.00    -0.362 C  
HETATM    2  N   UNL     1      -9.873  17.327  65.746  1.00  0.00    -0.551 NA 
HETATM    3  C   UNL     1      -8.821  16.351  66.051  1.00  0.00    -0.261 C  
ENDROOT
BRANCH   2   4
HETATM    4  C   UNL     1     -10.962  16.748  64.923  1.00  0.00    -0.087 C  
BRANCH   4   5
HETATM    5  C   UNL     1     -10.997  15.214  64.979  1.00  0.00    -0.430 C  
BRANCH   5   6
HETATM    6  O   UNL     1     -12.258  14.698  65.415  1.00  0.00    -0.318 OA 
BRANCH   6   7
HETATM    7  C   UNL     1     -12.207  13.407  65.845  1.00  0.00    -0.450 C  
HETATM    8  C   UNL     1     -11.031  13.219  66.806  1.00  0.00    -0.302 C  
HETATM    9  O   UNL     1     -12.939  12.514  65.442  1.00  0.00    -0.452 OA 
HETATM   10  C   UNL     1     -11.166  14.032  68.093  1.00  0.00    -0.299 A  
HETATM   11  C   UNL     1     -10.722  11.709  67.041  1.00  0.00    -0.253 C  
HETATM   12  O   UNL     1     -11.817  11.052  67.688  1.00  0.00    -0.599 OA 
HETATM   13  C   UNL     1     -12.404  14.240  68.717  1.00  0.00    -0.086 A  
HETATM   14  C   UNL     1     -10.376  10.939  65.754  1.00  0.00    -0.303 C  
HETATM   15  C   UNL     1      -9.696   9.672  66.265  1.00  0.00    -0.303 C  
HETATM   16  H   UNL     1     -11.629  10.132  67.831  1.00  0.00     0.000 HD 
HETATM   17  C   UNL     1     -12.480  14.948  69.918  1.00  0.00    -0.273 A  
HETATM   18  C   UNL     1     -11.322  15.437  70.522  1.00  0.00    -0.351 A  
HETATM   19  C   UNL     1      -8.863  10.134  67.450  1.00  0.00    -0.135 C  
HETATM   20  C   UNL     1      -9.457  11.474  67.894  1.00  0.00    -0.178 C  
HETATM   21  C   UNL     1     -10.089  15.243  69.913  1.00  0.00    -0.204 A  
HETATM   22  C   UNL     1     -10.014  14.563  68.699  1.00  0.00    -0.237 A  
ENDBRANCH   6   7
ENDBRANCH   5   6
ENDBRANCH   4   5
ENDBRANCH   2   4
TORSDOF 4
ENDMDL
MODEL       38
REMARK 921   NORMALIZED FREE ENERGY PREDICTED BY IDOCK:   -5.25 KCAL/MOL
REMARK 922        TOTAL FREE ENERGY PREDICTED BY IDOCK:   -6.79 KCAL/MOL
REMARK 923 INTER-LIGAND FREE ENERGY PREDICTED BY IDOCK:   -6.41 KCAL/MOL
REMARK 924 INTRA-LIGAND FREE ENERGY PREDICTED BY IDOCK:   -0.38 KCAL/MOL
REMARK 927      BINDING AFFINITY PREDICTED BY RF-SCORE:    0.00 PKD
ROOT
HETATM    1  C   UNL     1      -5.782  14.024  71.180  1.00  0.00    -0.223 C  
HETATM    2  N   UNL     1      -5.666  14.360  69.761  1.00  0.00    -0.099 NA 
HETATM    3  C   UNL     1      -5.668  13.129  68.963  1.00  0.00    -0.076 C  
ENDROOT
BRANCH   2   4
HETATM    4  C   UNL     1      -6.738  15.301  69.356  1.00  0.00    -0.164 C  
BRANCH   4   5
HETATM    5  C   UNL     1      -7.928  14.593  68.693  1.00  0.00    -0.141 C  
BRANCH   5   6
HETATM    6  O   UNL     1      -9.192  15.013  69.217  1.00  0.00    -0.206 OA 
BRANCH   6   7
HETATM    7  C   UNL     1     -10.180  15.083  68.283  1.00  0.00    -0.222 C  
HETATM    8  C   UNL     1     -10.678  13.679  67.938  1.00  0.00    -0.257 C  
HETATM    9  O   UNL     1     -10.543  16.116  67.736  1.00  0.00    -0.293 OA 
HETATM   10  C   UNL     1     -11.335  12.963  69.118  1.00  0.00    -0.329 A  
HETATM   11  C   UNL     1     -11.542  13.682  66.640  1.00  0.00    -0.364 C  
HETATM   12  O   UNL     1     -12.738  14.449  66.818  1.00  0.00    -0.477 OA 
HETATM   13  C   UNL     1     -12.115  13.644  70.062  1.00  0.00    -0.417 A  
HETATM   14  C   UNL     1     -10.798  14.211  65.401  1.00  0.00    -0.341 C  
HETATM   15  C   UNL     1     -11.642  13.709  64.232  1.00  0.00    -0.413 C  
HETATM   16  H   UNL     1     -13.264  14.452  66.026  1.00  0.00     0.000 HD 
HETATM   17  C   UNL     1     -12.738  12.947  71.099  1.00  0.00    -0.366 A  
HETATM   18  C   UNL     1     -12.610  11.562  71.194  1.00  0.00    -0.463 A  
HETATM   19  C   UNL     1     -12.094  12.320  64.654  1.00  0.00    -0.449 C  
HETATM   20  C   UNL     1     -11.950  12.267  66.178  1.00  0.00    -0.323 C  
HETATM   21  C   UNL     1     -11.837  10.873  70.267  1.00  0.00    -0.450 A  
HETATM   22  C   UNL     1     -11.189  11.571  69.249  1.00  0.00    -0.336 A  
ENDBRANCH   6   7
ENDBRANCH   5   6
ENDBRANCH   4   5
ENDBRANCH   2   4
TORSDOF 4
ENDMDL
MODEL       39
REMARK 921   NORMALIZED FREE ENERGY PREDICTED BY IDOCK:   -5.24 KCAL/MOL
REMARK 922        TOTAL FREE ENERGY PREDICTED BY IDOCK:   -6.77 KCAL/MOL
REMARK 923 INTER-LIGAND FREE ENERGY PREDICTED BY IDOCK:   -6.43 KCAL/MOL
REMARK 924 INTRA-LIGAND FREE ENERGY PREDICTED BY IDOCK:   -0.33 KCAL/MOL
REMARK 927      BINDING AFFINITY PREDICTED BY RF-SCORE:    0.00 PKD
ROOT
HETATM    1  C   UNL     1     -14.166  14.628  72.088  1.00  0.00    -0.518 C  
HETATM    2  N   UNL     1     -13.177  15.631  72.480  1.00  0.00    -0.459 NA 
HETATM    3  C   UNL     1     -12.436  15.158  73.654  1.00  0.00    -0.564 C  
ENDROOT
BRANCH   2   4
HETATM    4  C   UNL     1     -12.285  15.960  71.341  1.00  0.00    -0.448 C  
BRANCH   4   5
HETATM    5  C   UNL     1     -12.141  14.799  70.347  1.00  0.00    -0.321 C  
BRANCH   5   6
HETATM    6  O   UNL     1     -12.201  15.221  68.981  1.00  0.00    -0.239 OA 
BRANCH   6   7
HETATM    7  C   UNL     1     -10.996  15.588  68.464  1.00  0.00    -0.288 C  
HETATM    8  C   UNL     1     -10.256  14.360  67.931  1.00  0.00    -0.232 C  
HETATM    9  O   UNL     1     -10.540  16.723  68.510  1.00  0.00    -0.313 OA 
HETATM   10  C   UNL     1     -10.970  13.684  66.761  1.00  0.00    -0.297 A  
HETATM   11  C   UNL     1      -8.753  14.671  67.660  1.00  0.00    -0.177 C  
HETATM   12  O   UNL     1      -8.607  15.650  66.625  1.00  0.00    -0.247 OA 
HETATM   13  C   UNL     1     -11.663  14.416  65.788  1.00  0.00    -0.362 A  
HETATM   14  C   UNL     1      -7.985  15.153  68.904  1.00  0.00    -0.178 C  
HETATM   15  C   UNL     1      -6.520  14.957  68.522  1.00  0.00    -0.091 C  
HETATM   16  H   UNL     1      -7.691  15.840  66.460  1.00  0.00     0.000 HD 
HETATM   17  C   UNL     1     -12.262  13.765  64.707  1.00  0.00    -0.438 A  
HETATM   18  C   UNL     1     -12.158  12.381  64.572  1.00  0.00    -0.492 A  
HETATM   19  C   UNL     1      -6.501  13.658  67.731  1.00  0.00    -0.178 C  
HETATM   20  C   UNL     1      -7.937  13.426  67.254  1.00  0.00    -0.130 C  
HETATM   21  C   UNL     1     -11.477  11.642  65.531  1.00  0.00    -0.168 A  
HETATM   22  C   UNL     1     -10.905  12.285  66.627  1.00  0.00    -0.296 A  
ENDBRANCH   6   7
ENDBRANCH   5   6
ENDBRANCH   4   5
ENDBRANCH   2   4
TORSDOF 4
ENDMDL
MODEL       40
REMARK 921   NORMALIZED FREE ENERGY PREDICTED BY IDOCK:   -5.21 KCAL/MOL
REMARK 922        TOTAL FREE ENERGY PREDICTED BY IDOCK:   -6.73 KCAL/MOL
REMARK 923 INTER-LIGAND FREE ENERGY PREDICTED BY IDOCK:   -6.50 KCAL/MOL
REMARK 924 INTRA-LIGAND FREE ENERGY PREDICTED BY IDOCK:   -0.22 KCAL/MOL
REMARK 927      BINDING AFFINITY PREDICTED BY RF-SCORE:    0.00 PKD
ROOT
HETATM    1  C   UNL     1     -10.888   6.269  69.247  1.00  0.00    -0.342 C  
HETATM    2  N   UNL     1     -11.522   7.255  70.122  1.00  0.00    -0.213 NA 
HETATM    3  C   UNL     1     -11.848   6.633  71.409  1.00  0.00    -0.337 C  
ENDROOT
BRANCH   2   4
HETATM    4  C   UNL     1     -10.658   8.452  70.272  1.00  0.00    -0.227 C  
BRANCH   4   5
HETATM    5  C   UNL     1     -11.396   9.639  70.907  1.00  0.00    -0.360 C  
BRANCH   5   6
HETATM    6  O   UNL     1     -11.392  10.807  70.082  1.00  0.00    -0.290 OA 
BRANCH   6   7
HETATM    7  C   UNL     1     -12.258  11.775  70.491  1.00  0.00    -0.347 C  
HETATM    8  C   UNL     1     -11.615  13.154  70.342  1.00  0.00     0.018 C  
HETATM    9  O   UNL     1     -13.353  11.556  70.993  1.00  0.00     0.029 OA 
HETATM   10  C   UNL     1     -11.306  13.525  68.892  1.00  0.00    -0.332 A  
HETATM   11  C   UNL     1     -12.415  14.245  71.116  1.00  0.00    -0.362 C  
HETATM   12  O   UNL     1     -13.729  14.405  70.571  1.00  0.00    -0.343 OA 
HETATM   13  C   UNL     1     -12.146  13.154  67.833  1.00  0.00    -0.247 A  
HETATM   14  C   UNL     1     -12.540  13.969  72.626  1.00  0.00    -0.221 C  
HETATM   15  C   UNL     1     -12.934  15.324  73.208  1.00  0.00    -0.645 C  
HETATM   16  H   UNL     1     -14.217  15.070  71.043  1.00  0.00     0.000 HD 
HETATM   17  C   UNL     1     -11.855  13.553  66.527  1.00  0.00    -0.441 A  
HETATM   18  C   UNL     1     -10.737  14.343  66.264  1.00  0.00    -0.307 A  
HETATM   19  C   UNL     1     -12.133  16.335  72.403  1.00  0.00    -0.598 C  
HETATM   20  C   UNL     1     -11.726  15.625  71.109  1.00  0.00    -0.461 C  
HETATM   21  C   UNL     1      -9.892  14.714  67.302  1.00  0.00    -0.231 A  
HETATM   22  C   UNL     1     -10.164  14.292  68.602  1.00  0.00    -0.246 A  
ENDBRANCH   6   7
ENDBRANCH   5   6
ENDBRANCH   4   5
ENDBRANCH   2   4
TORSDOF 4
ENDMDL
MODEL       41
REMARK 921   NORMALIZED FREE ENERGY PREDICTED BY IDOCK:   -5.20 KCAL/MOL
REMARK 922        TOTAL FREE ENERGY PREDICTED BY IDOCK:   -6.72 KCAL/MOL
REMARK 923 INTER-LIGAND FREE ENERGY PREDICTED BY IDOCK:   -6.39 KCAL/MOL
REMARK 924 INTRA-LIGAND FREE ENERGY PREDICTED BY IDOCK:   -0.33 KCAL/MOL
REMARK 927      BINDING AFFINITY PREDICTED BY RF-SCORE:    0.00 PKD
ROOT
HETATM    1  C   UNL     1      -9.436   8.302  67.201  1.00  0.00    -0.160 C  
HETATM    2  N   UNL     1     -10.410   8.756  68.192  1.00  0.00    -0.216 NA 
HETATM    3  C   UNL     1     -10.664   7.684  69.160  1.00  0.00    -0.141 C  
ENDROOT
BRANCH   2   4
HETATM    4  C   UNL     1      -9.952  10.010  68.839  1.00  0.00    -0.192 C  
BRANCH   4   5
HETATM    5  C   UNL     1     -11.101  10.797  69.484  1.00  0.00    -0.278 C  
BRANCH   5   6
HETATM    6  O   UNL     1     -11.936  11.455  68.527  1.00  0.00    -0.498 OA 
BRANCH   6   7
HETATM    7  C   UNL     1     -11.768  12.806  68.483  1.00  0.00    -0.333 C  
HETATM    8  C   UNL     1     -10.684  13.168  67.465  1.00  0.00    -0.248 C  
HETATM    9  O   UNL     1     -12.336  13.598  69.222  1.00  0.00    -0.288 OA 
HETATM   10  C   UNL     1     -11.053  12.794  66.030  1.00  0.00    -0.315 A  
HETATM   11  C   UNL     1     -10.213  14.644  67.634  1.00  0.00    -0.232 C  
HETATM   12  O   UNL     1     -11.278  15.560  67.359  1.00  0.00    -0.315 OA 
HETATM   13  C   UNL     1     -12.365  12.895  65.548  1.00  0.00    -0.517 A  
HETATM   14  C   UNL     1      -9.641  14.958  69.028  1.00  0.00    -0.204 C  
HETATM   15  C   UNL     1      -8.864  16.254  68.815  1.00  0.00    -0.243 C  
HETATM   16  H   UNL     1     -10.991  16.460  67.462  1.00  0.00     0.000 HD 
HETATM   17  C   UNL     1     -12.654  12.591  64.216  1.00  0.00    -0.485 A  
HETATM   18  C   UNL     1     -11.637  12.205  63.344  1.00  0.00    -0.508 A  
HETATM   19  C   UNL     1      -8.223  16.096  67.445  1.00  0.00    -0.185 C  
HETATM   20  C   UNL     1      -9.024  15.010  66.721  1.00  0.00    -0.293 C  
HETATM   21  C   UNL     1     -10.332  12.096  63.809  1.00  0.00    -0.465 A  
HETATM   22  C   UNL     1     -10.046  12.369  65.145  1.00  0.00    -0.276 A  
ENDBRANCH   6   7
ENDBRANCH   5   6
ENDBRANCH   4   5
ENDBRANCH   2   4
TORSDOF 4
ENDMDL
MODEL       42
REMARK 921   NORMALIZED FREE ENERGY PREDICTED BY IDOCK:   -5.20 KCAL/MOL
REMARK 922        TOTAL FREE ENERGY PREDICTED BY IDOCK:   -6.72 KCAL/MOL
REMARK 923 INTER-LIGAND FREE ENERGY PREDICTED BY IDOCK:   -6.39 KCAL/MOL
REMARK 924 INTRA-LIGAND FREE ENERGY PREDICTED BY IDOCK:   -0.33 KCAL/MOL
REMARK 927      BINDING AFFINITY PREDICTED BY RF-SCORE:    0.00 PKD
ROOT
HETATM    1  C   UNL     1     -11.517  15.670  71.344  1.00  0.00    -0.421 C  
HETATM    2  N   UNL     1     -12.269  14.416  71.307  1.00  0.00    -0.345 NA 
HETATM    3  C   UNL     1     -13.660  14.665  71.697  1.00  0.00    -0.393 C  
ENDROOT
BRANCH   2   4
HETATM    4  C   UNL     1     -12.159  13.779  69.972  1.00  0.00    -0.349 C  
BRANCH   4   5
HETATM    5  C   UNL     1     -12.212  12.247  70.040  1.00  0.00    -0.196 C  
BRANCH   5   6
HETATM    6  O   UNL     1     -12.229  11.629  68.749  1.00  0.00    -0.416 OA 
BRANCH   6   7
HETATM    7  C   UNL     1     -11.005  11.222  68.315  1.00  0.00    -0.224 C  
HETATM    8  C   UNL     1     -10.944  11.274  66.788  1.00  0.00    -0.339 C  
HETATM    9  O   UNL     1     -10.122  10.790  69.044  1.00  0.00    -0.200 OA 
HETATM   10  C   UNL     1     -11.085  12.688  66.224  1.00  0.00    -0.330 A  
HETATM   11  C   UNL     1      -9.711  10.494  66.239  1.00  0.00    -0.205 C  
HETATM   12  O   UNL     1      -8.486  11.100  66.663  1.00  0.00    -0.153 OA 
HETATM   13  C   UNL     1     -10.537  13.805  66.869  1.00  0.00    -0.276 A  
HETATM   14  C   UNL     1      -9.688   9.008  66.638  1.00  0.00    -0.295 C  
HETATM   15  C   UNL     1      -8.700   8.386  65.656  1.00  0.00    -0.204 C  
HETATM   16  H   UNL     1      -7.734  10.625  66.329  1.00  0.00     0.000 HD 
HETATM   17  C   UNL     1     -10.645  15.075  66.298  1.00  0.00    -0.309 A  
HETATM   18  C   UNL     1     -11.280  15.242  65.068  1.00  0.00    -0.409 A  
HETATM   19  C   UNL     1      -8.964   9.100  64.340  1.00  0.00    -0.104 C  
HETATM   20  C   UNL     1      -9.687  10.402  64.698  1.00  0.00    -0.392 C  
HETATM   21  C   UNL     1     -11.832  14.144  64.419  1.00  0.00    -0.447 A  
HETATM   22  C   UNL     1     -11.752  12.881  65.002  1.00  0.00    -0.381 A  
ENDBRANCH   6   7
ENDBRANCH   5   6
ENDBRANCH   4   5
ENDBRANCH   2   4
TORSDOF 4
ENDMDL
MODEL       43
REMARK 921   NORMALIZED FREE ENERGY PREDICTED BY IDOCK:   -5.20 KCAL/MOL
REMARK 922        TOTAL FREE ENERGY PREDICTED BY IDOCK:   -6.72 KCAL/MOL
REMARK 923 INTER-LIGAND FREE ENERGY PREDICTED BY IDOCK:   -6.34 KCAL/MOL
REMARK 924 INTRA-LIGAND FREE ENERGY PREDICTED BY IDOCK:   -0.38 KCAL/MOL
REMARK 927      BINDING AFFINITY PREDICTED BY RF-SCORE:    0.00 PKD
ROOT
HETATM    1  C   UNL     1      -8.100   7.050  67.339  1.00  0.00    -0.116 C  
HETATM    2  N   UNL     1      -8.514   8.180  66.508  1.00  0.00    -0.125 NA 
HETATM    3  C   UNL     1      -8.275   7.865  65.096  1.00  0.00    -0.141 C  
ENDROOT
BRANCH   2   4
HETATM    4  C   UNL     1      -9.928   8.538  66.778  1.00  0.00    -0.281 C  
BRANCH   4   5
HETATM    5  C   UNL     1     -10.360   9.825  66.063  1.00  0.00    -0.114 C  
BRANCH   5   6
HETATM    6  O   UNL     1     -11.356  10.560  66.782  1.00  0.00    -0.153 OA 
BRANCH   6   7
HETATM    7  C   UNL     1     -10.885  11.689  67.378  1.00  0.00    -0.250 C  
HETATM    8  C   UNL     1     -11.690  11.991  68.644  1.00  0.00    -0.380 C  
HETATM    9  O   UNL     1     -10.009  12.404  66.911  1.00  0.00    -0.210 OA 
HETATM   10  C   UNL     1     -11.547  10.917  69.722  1.00  0.00    -0.399 A  
HETATM   11  C   UNL     1     -11.428  13.440  69.156  1.00  0.00    -0.300 C  
HETATM   12  O   UNL     1     -10.063  13.608  69.555  1.00  0.00    -0.260 OA 
HETATM   13  C   UNL     1     -10.340  10.241  69.944  1.00  0.00    -0.281 A  
HETATM   14  C   UNL     1     -11.779  14.533  68.130  1.00  0.00    -0.369 C  
HETATM   15  C   UNL     1     -11.875  15.801  68.975  1.00  0.00    -0.367 C  
HETATM   16  H   UNL     1      -9.903  14.491  69.866  1.00  0.00     0.000 HD 
HETATM   17  C   UNL     1     -10.235   9.300  70.971  1.00  0.00    -0.384 A  
HETATM   18  C   UNL     1     -11.324   9.040  71.802  1.00  0.00    -0.447 A  
HETATM   19  C   UNL     1     -12.529  15.350  70.272  1.00  0.00    -0.413 C  
HETATM   20  C   UNL     1     -12.323  13.834  70.349  1.00  0.00    -0.423 C  
HETATM   21  C   UNL     1     -12.529   9.699  71.591  1.00  0.00    -0.494 A  
HETATM   22  C   UNL     1     -12.645  10.616  70.547  1.00  0.00    -0.433 A  
ENDBRANCH   6   7
ENDBRANCH   5   6
ENDBRANCH   4   5
ENDBRANCH   2   4
TORSDOF 4
ENDMDL
MODEL       44
REMARK 921   NORMALIZED FREE ENERGY PREDICTED BY IDOCK:   -5.19 KCAL/MOL
REMARK 922        TOTAL FREE ENERGY PREDICTED BY IDOCK:   -6.71 KCAL/MOL
REMARK 923 INTER-LIGAND FREE ENERGY PREDICTED BY IDOCK:   -6.35 KCAL/MOL
REMARK 924 INTRA-LIGAND FREE ENERGY PREDICTED BY IDOCK:   -0.36 KCAL/MOL
REMARK 927      BINDING AFFINITY PREDICTED BY RF-SCORE:    0.00 PKD
ROOT
HETATM    1  C   UNL     1      -8.018  18.877  66.129  1.00  0.00    -0.235 C  
HETATM    2  N   UNL     1      -9.235  18.839  66.939  1.00  0.00    -0.297 NA 
HETATM    3  C   UNL     1     -10.269  19.669  66.313  1.00  0.00    -0.498 C  
ENDROOT
BRANCH   2   4
HETATM    4  C   UNL     1      -9.681  17.439  67.148  1.00  0.00    -0.267 C  
BRANCH   4   5
HETATM    5  C   UNL     1     -10.813  17.326  68.178  1.00  0.00    -0.294 C  
BRANCH   5   6
HETATM    6  O   UNL     1     -11.608  16.148  68.010  1.00  0.00    -0.236 OA 
BRANCH   6   7
HETATM    7  C   UNL     1     -11.123  15.056  68.662  1.00  0.00    -0.264 C  
HETATM    8  C   UNL     1     -11.770  13.784  68.113  1.00  0.00    -0.392 C  
HETATM    9  O   UNL     1     -10.353  15.104  69.612  1.00  0.00    -0.239 OA 
HETATM   10  C   UNL     1     -11.433  13.518  66.646  1.00  0.00    -0.366 A  
HETATM   11  C   UNL     1     -11.519  12.564  69.050  1.00  0.00    -0.304 C  
HETATM   12  O   UNL     1     -10.124  12.249  69.124  1.00  0.00    -0.419 OA 
HETATM   13  C   UNL     1     -10.174  13.814  66.106  1.00  0.00    -0.305 A  
HETATM   14  C   UNL     1     -12.056  12.759  70.479  1.00  0.00    -0.369 C  
HETATM   15  C   UNL     1     -12.107  11.341  71.041  1.00  0.00    -0.335 C  
HETATM   16  H   UNL     1      -9.971  11.506  69.696  1.00  0.00     0.000 HD 
HETATM   17  C   UNL     1      -9.888  13.512  64.772  1.00  0.00    -0.003 A  
HETATM   18  C   UNL     1     -10.845  12.892  63.969  1.00  0.00    -0.443 A  
HETATM   19  C   UNL     1     -12.562  10.481  69.873  1.00  0.00    -0.124 C  
HETATM   20  C   UNL     1     -12.271  11.292  68.606  1.00  0.00    -0.035 C  
HETATM   21  C   UNL     1     -12.099  12.597  64.490  1.00  0.00    -0.485 A  
HETATM   22  C   UNL     1     -12.397  12.926  65.811  1.00  0.00    -0.437 A  
ENDBRANCH   6   7
ENDBRANCH   5   6
ENDBRANCH   4   5
ENDBRANCH   2   4
TORSDOF 4
ENDMDL
MODEL       45
REMARK 921   NORMALIZED FREE ENERGY PREDICTED BY IDOCK:   -5.17 KCAL/MOL
REMARK 922        TOTAL FREE ENERGY PREDICTED BY IDOCK:   -6.69 KCAL/MOL
REMARK 923 INTER-LIGAND FREE ENERGY PREDICTED BY IDOCK:   -6.24 KCAL/MOL
REMARK 924 INTRA-LIGAND FREE ENERGY PREDICTED BY IDOCK:   -0.45 KCAL/MOL
REMARK 927      BINDING AFFINITY PREDICTED BY RF-SCORE:    0.00 PKD
ROOT
HETATM    1  C   UNL     1      -9.917  19.361  68.188  1.00  0.00    -0.413 C  
HETATM    2  N   UNL     1     -10.290  17.983  67.870  1.00  0.00    -0.375 NA 
HETATM    3  C   UNL     1     -10.179  17.765  66.423  1.00  0.00    -0.365 C  
ENDROOT
BRANCH   2   4
HETATM    4  C   UNL     1      -9.471  17.025  68.652  1.00  0.00    -0.274 C  
BRANCH   4   5
HETATM    5  C   UNL     1      -9.106  15.767  67.853  1.00  0.00    -0.186 C  
BRANCH   5   6
HETATM    6  O   UNL     1      -9.719  14.579  68.366  1.00  0.00    -0.211 OA 
BRANCH   6   7
HETATM    7  C   UNL     1     -10.694  14.071  67.564  1.00  0.00    -0.268 C  
HETATM    8  C   UNL     1     -10.167  12.856  66.799  1.00  0.00    -0.243 C  
HETATM    9  O   UNL     1     -11.798  14.577  67.413  1.00  0.00    -0.389 OA 
HETATM   10  C   UNL     1      -9.788  11.687  67.707  1.00  0.00    -0.186 A  
HETATM   11  C   UNL     1     -11.115  12.464  65.625  1.00  0.00    -0.306 C  
HETATM   12  O   UNL     1     -12.395  12.048  66.113  1.00  0.00    -0.449 OA 
HETATM   13  C   UNL     1     -10.514  11.378  68.865  1.00  0.00    -0.219 A  
HETATM   14  C   UNL     1     -11.323  13.588  64.594  1.00  0.00    -0.375 C  
HETATM   15  C   UNL     1     -11.876  12.858  63.373  1.00  0.00    -0.576 C  
HETATM   16  H   UNL     1     -12.973  11.810  65.397  1.00  0.00     0.000 HD 
HETATM   17  C   UNL     1     -10.166  10.272  69.644  1.00  0.00    -0.268 A  
HETATM   18  C   UNL     1      -9.106   9.449  69.265  1.00  0.00    -0.152 A  
HETATM   19  C   UNL     1     -11.113  11.544  63.332  1.00  0.00    -0.370 C  
HETATM   20  C   UNL     1     -10.552  11.332  64.741  1.00  0.00    -0.376 C  
HETATM   21  C   UNL     1      -8.375   9.745  68.121  1.00  0.00    -0.110 A  
HETATM   22  C   UNL     1      -8.701  10.866  67.360  1.00  0.00    -0.130 A  
ENDBRANCH   6   7
ENDBRANCH   5   6
ENDBRANCH   4   5
ENDBRANCH   2   4
TORSDOF 4
ENDMDL
MODEL       46
REMARK 921   NORMALIZED FREE ENERGY PREDICTED BY IDOCK:   -5.16 KCAL/MOL
REMARK 922        TOTAL FREE ENERGY PREDICTED BY IDOCK:   -6.67 KCAL/MOL
REMARK 923 INTER-LIGAND FREE ENERGY PREDICTED BY IDOCK:   -6.27 KCAL/MOL
REMARK 924 INTRA-LIGAND FREE ENERGY PREDICTED BY IDOCK:   -0.39 KCAL/MOL
REMARK 927      BINDING AFFINITY PREDICTED BY RF-SCORE:    0.00 PKD
ROOT
HETATM    1  C   UNL     1     -12.770   8.862  71.390  1.00  0.00    -0.301 C  
HETATM    2  N   UNL     1     -11.501   9.577  71.523  1.00  0.00    -0.391 NA 
HETATM    3  C   UNL     1     -10.475   8.666  72.041  1.00  0.00    -0.352 C  
ENDROOT
BRANCH   2   4
HETATM    4  C   UNL     1     -11.110  10.196  70.233  1.00  0.00    -0.317 C  
BRANCH   4   5
HETATM    5  C   UNL     1     -10.484   9.189  69.259  1.00  0.00    -0.221 C  
BRANCH   5   6
HETATM    6  O   UNL     1     -10.878   9.405  67.900  1.00  0.00    -0.236 OA 
BRANCH   6   7
HETATM    7  C   UNL     1      -9.852   9.762  67.078  1.00  0.00    -0.193 C  
HETATM    8  C   UNL     1     -10.367  10.669  65.959  1.00  0.00    -0.290 C  
HETATM    9  O   UNL     1      -8.709   9.338  67.174  1.00  0.00    -0.126 OA 
HETATM   10  C   UNL     1     -10.917  12.002  66.465  1.00  0.00    -0.337 A  
HETATM   11  C   UNL     1      -9.321  10.811  64.812  1.00  0.00    -0.226 C  
HETATM   12  O   UNL     1      -8.132  11.459  65.276  1.00  0.00    -0.313 OA 
HETATM   13  C   UNL     1     -10.345  12.680  67.550  1.00  0.00    -0.220 A  
HETATM   14  C   UNL     1      -8.929   9.472  64.160  1.00  0.00    -0.240 C  
HETATM   15  C   UNL     1      -8.290   9.889  62.838  1.00  0.00    -0.160 C  
HETATM   16  H   UNL     1      -7.494  11.545  64.577  1.00  0.00     0.000 HD 
HETATM   17  C   UNL     1     -10.847  13.920  67.952  1.00  0.00    -0.256 A  
HETATM   18  C   UNL     1     -11.907  14.508  67.264  1.00  0.00    -0.419 A  
HETATM   19  C   UNL     1      -9.125  11.067  62.362  1.00  0.00    -0.328 C  
HETATM   20  C   UNL     1      -9.852  11.603  63.599  1.00  0.00    -0.366 C  
HETATM   21  C   UNL     1     -12.487  13.846  66.189  1.00  0.00    -0.478 A  
HETATM   22  C   UNL     1     -12.009  12.595  65.805  1.00  0.00    -0.503 A  
ENDBRANCH   6   7
ENDBRANCH   5   6
ENDBRANCH   4   5
ENDBRANCH   2   4
TORSDOF 4
ENDMDL
MODEL       47
REMARK 921   NORMALIZED FREE ENERGY PREDICTED BY IDOCK:   -5.11 KCAL/MOL
REMARK 922        TOTAL FREE ENERGY PREDICTED BY IDOCK:   -6.61 KCAL/MOL
REMARK 923 INTER-LIGAND FREE ENERGY PREDICTED BY IDOCK:   -6.22 KCAL/MOL
REMARK 924 INTRA-LIGAND FREE ENERGY PREDICTED BY IDOCK:   -0.39 KCAL/MOL
REMARK 927      BINDING AFFINITY PREDICTED BY RF-SCORE:    0.00 PKD
ROOT
HETATM    1  C   UNL     1     -12.847  10.156  71.373  1.00  0.00    -0.428 C  
HETATM    2  N   UNL     1     -11.416  10.130  71.071  1.00  0.00    -0.367 NA 
HETATM    3  C   UNL     1     -10.802   8.957  71.702  1.00  0.00    -0.349 C  
ENDROOT
BRANCH   2   4
HETATM    4  C   UNL     1     -11.189  10.170  69.606  1.00  0.00    -0.261 C  
BRANCH   4   5
HETATM    5  C   UNL     1     -11.815  11.405  68.943  1.00  0.00    -0.347 C  
BRANCH   5   6
HETATM    6  O   UNL     1     -11.959  11.268  67.526  1.00  0.00    -0.612 OA 
BRANCH   6   7
HETATM    7  C   UNL     1     -11.751  12.423  66.836  1.00  0.00    -0.362 C  
HETATM    8  C   UNL     1     -10.285  12.845  66.947  1.00  0.00    -0.243 C  
HETATM    9  O   UNL     1     -12.634  13.071  66.291  1.00  0.00    -0.383 OA 
HETATM   10  C   UNL     1      -9.319  11.851  66.303  1.00  0.00    -0.234 A  
HETATM   11  C   UNL     1     -10.078  14.319  66.482  1.00  0.00    -0.278 C  
HETATM   12  O   UNL     1     -10.387  14.470  65.093  1.00  0.00    -0.373 OA 
HETATM   13  C   UNL     1      -9.639  11.153  65.131  1.00  0.00    -0.273 A  
HETATM   14  C   UNL     1     -10.902  15.343  67.284  1.00  0.00    -0.316 C  
HETATM   15  C   UNL     1     -10.219  16.673  66.977  1.00  0.00    -0.290 C  
HETATM   16  H   UNL     1     -10.262  15.369  64.810  1.00  0.00     0.000 HD 
HETATM   17  C   UNL     1      -8.710  10.289  64.547  1.00  0.00    -0.205 A  
HETATM   18  C   UNL     1      -7.445  10.128  65.110  1.00  0.00    -0.141 A  
HETATM   19  C   UNL     1      -8.735  16.343  66.935  1.00  0.00    -0.233 C  
HETATM   20  C   UNL     1      -8.640  14.831  66.708  1.00  0.00    -0.226 C  
HETATM   21  C   UNL     1      -7.115  10.810  66.275  1.00  0.00    -0.134 A  
HETATM   22  C   UNL     1      -8.051  11.649  66.877  1.00  0.00    -0.164 A  
ENDBRANCH   6   7
ENDBRANCH   5   6
ENDBRANCH   4   5
ENDBRANCH   2   4
TORSDOF 4
ENDMDL
MODEL       48
REMARK 921   NORMALIZED FREE ENERGY PREDICTED BY IDOCK:   -5.11 KCAL/MOL
REMARK 922        TOTAL FREE ENERGY PREDICTED BY IDOCK:   -6.60 KCAL/MOL
REMARK 923 INTER-LIGAND FREE ENERGY PREDICTED BY IDOCK:   -6.25 KCAL/MOL
REMARK 924 INTRA-LIGAND FREE ENERGY PREDICTED BY IDOCK:   -0.35 KCAL/MOL
REMARK 927      BINDING AFFINITY PREDICTED BY RF-SCORE:    0.00 PKD
ROOT
HETATM    1  C   UNL     1     -10.234   8.219  69.269  1.00  0.00    -0.204 C  
HETATM    2  N   UNL     1     -10.664   9.561  69.662  1.00  0.00    -0.231 NA 
HETATM    3  C   UNL     1     -10.974   9.577  71.096  1.00  0.00    -0.368 C  
ENDROOT
BRANCH   2   4
HETATM    4  C   UNL     1      -9.641  10.568  69.292  1.00  0.00    -0.181 C  
BRANCH   4   5
HETATM    5  C   UNL     1      -9.973  11.297  67.983  1.00  0.00    -0.179 C  
BRANCH   5   6
HETATM    6  O   UNL     1      -9.964  12.722  68.117  1.00  0.00    -0.218 OA 
BRANCH   6   7
HETATM    7  C   UNL     1     -11.087  13.229  68.695  1.00  0.00    -0.268 C  
HETATM    8  C   UNL     1     -10.740  14.472  69.517  1.00  0.00    -0.168 C  
HETATM    9  O   UNL     1     -12.191  12.705  68.639  1.00  0.00    -0.176 OA 
HETATM   10  C   UNL     1     -10.206  15.627  68.670  1.00  0.00    -0.212 A  
HETATM   11  C   UNL     1     -11.908  14.873  70.468  1.00  0.00    -0.303 C  
HETATM   12  O   UNL     1     -13.072  15.252  69.725  1.00  0.00    -0.485 OA 
HETATM   13  C   UNL     1     -10.692  15.894  67.382  1.00  0.00    -0.313 A  
HETATM   14  C   UNL     1     -12.300  13.770  71.468  1.00  0.00    -0.286 C  
HETATM   15  C   UNL     1     -13.096  14.518  72.534  1.00  0.00    -0.518 C  
HETATM   16  H   UNL     1     -13.784  15.496  70.305  1.00  0.00     0.000 HD 
HETATM   17  C   UNL     1     -10.213  16.988  66.658  1.00  0.00    -0.310 A  
HETATM   18  C   UNL     1      -9.262  17.841  67.217  1.00  0.00    -0.253 A  
HETATM   19  C   UNL     1     -12.376  15.848  72.689  1.00  0.00    -0.581 C  
HETATM   20  C   UNL     1     -11.549  16.038  71.414  1.00  0.00    -0.520 C  
HETATM   21  C   UNL     1      -8.768  17.587  68.491  1.00  0.00    -0.282 A  
HETATM   22  C   UNL     1      -9.222  16.478  69.203  1.00  0.00    -0.197 A  
ENDBRANCH   6   7
ENDBRANCH   5   6
ENDBRANCH   4   5
ENDBRANCH   2   4
TORSDOF 4
ENDMDL
MODEL       49
REMARK 921   NORMALIZED FREE ENERGY PREDICTED BY IDOCK:   -5.09 KCAL/MOL
REMARK 922        TOTAL FREE ENERGY PREDICTED BY IDOCK:   -6.59 KCAL/MOL
REMARK 923 INTER-LIGAND FREE ENERGY PREDICTED BY IDOCK:   -6.19 KCAL/MOL
REMARK 924 INTRA-LIGAND FREE ENERGY PREDICTED BY IDOCK:   -0.40 KCAL/MOL
REMARK 927      BINDING AFFINITY PREDICTED BY RF-SCORE:    0.00 PKD
ROOT
HETATM    1  C   UNL     1     -13.771  13.816  72.436  1.00  0.00    -0.591 C  
HETATM    2  N   UNL     1     -13.150  14.561  71.341  1.00  0.00    -0.336 NA 
HETATM    3  C   UNL     1     -12.521  15.777  71.869  1.00  0.00    -0.458 C  
ENDROOT
BRANCH   2   4
HETATM    4  C   UNL     1     -12.193  13.702  70.601  1.00  0.00    -0.360 C  
BRANCH   4   5
HETATM    5  C   UNL     1     -12.437  12.205  70.835  1.00  0.00    -0.279 C  
BRANCH   5   6
HETATM    6  O   UNL     1     -12.397  11.436  69.628  1.00  0.00    -0.259 OA 
BRANCH   6   7
HETATM    7  C   UNL     1     -11.248  10.726  69.464  1.00  0.00    -0.281 C  
HETATM    8  C   UNL     1     -11.006  10.453  67.979  1.00  0.00    -0.347 C  
HETATM    9  O   UNL     1     -10.566  10.292  70.382  1.00  0.00    -0.278 OA 
HETATM   10  C   UNL     1     -10.776  11.723  67.159  1.00  0.00    -0.283 A  
HETATM   11  C   UNL     1      -9.915   9.359  67.769  1.00  0.00    -0.184 C  
HETATM   12  O   UNL     1      -8.644   9.797  68.261  1.00  0.00    -0.117 OA 
HETATM   13  C   UNL     1     -10.078  12.824  67.673  1.00  0.00    -0.220 A  
HETATM   14  C   UNL     1     -10.257   8.008  68.423  1.00  0.00    -0.239 C  
HETATM   15  C   UNL     1      -9.321   7.024  67.727  1.00  0.00    -0.127 C  
HETATM   16  H   UNL     1      -7.979   9.130  68.133  1.00  0.00     0.000 HD 
HETATM   17  C   UNL     1      -9.847  13.948  66.876  1.00  0.00    -0.268 A  
HETATM   18  C   UNL     1     -10.288  13.978  65.554  1.00  0.00    -0.354 A  
HETATM   19  C   UNL     1      -9.276   7.493  66.281  1.00  0.00    -0.194 C  
HETATM   20  C   UNL     1      -9.738   8.953  66.291  1.00  0.00    -0.345 C  
HETATM   21  C   UNL     1     -10.986  12.895  65.033  1.00  0.00    -0.324 A  
HETATM   22  C   UNL     1     -11.245  11.785  65.835  1.00  0.00    -0.345 A  
ENDBRANCH   6   7
ENDBRANCH   5   6
ENDBRANCH   4   5
ENDBRANCH   2   4
TORSDOF 4
ENDMDL
MODEL       50
REMARK 921   NORMALIZED FREE ENERGY PREDICTED BY IDOCK:   -5.08 KCAL/MOL
REMARK 922        TOTAL FREE ENERGY PREDICTED BY IDOCK:   -6.57 KCAL/MOL
REMARK 923 INTER-LIGAND FREE ENERGY PREDICTED BY IDOCK:   -6.03 KCAL/MOL
REMARK 924 INTRA-LIGAND FREE ENERGY PREDICTED BY IDOCK:   -0.54 KCAL/MOL
REMARK 927      BINDING AFFINITY PREDICTED BY RF-SCORE:    0.00 PKD
ROOT
HETATM    1  C   UNL     1      -8.710   7.047  67.484  1.00  0.00    -0.120 C  
HETATM    2  N   UNL     1      -9.103   8.454  67.537  1.00  0.00    -0.134 NA 
HETATM    3  C   UNL     1     -10.525   8.581  67.200  1.00  0.00    -0.299 C  
ENDROOT
BRANCH   2   4
HETATM    4  C   UNL     1      -8.781   9.038  68.862  1.00  0.00    -0.136 C  
BRANCH   4   5
HETATM    5  C   UNL     1      -9.494  10.374  69.110  1.00  0.00    -0.208 C  
BRANCH   5   6
HETATM    6  O   UNL     1      -8.680  11.510  68.800  1.00  0.00    -0.137 OA 
BRANCH   6   7
HETATM    7  C   UNL     1      -8.891  12.016  67.554  1.00  0.00    -0.172 C  
HETATM    8  C   UNL     1     -10.312  12.572  67.445  1.00  0.00    -0.222 C  
HETATM    9  O   UNL     1      -8.088  11.945  66.634  1.00  0.00    -0.151 OA 
HETATM   10  C   UNL     1     -10.570  13.758  68.374  1.00  0.00    -0.261 A  
HETATM   11  C   UNL     1     -10.712  12.832  65.961  1.00  0.00    -0.272 C  
HETATM   12  O   UNL     1      -9.889  13.846  65.375  1.00  0.00    -0.502 OA 
HETATM   13  C   UNL     1      -9.586  14.717  68.648  1.00  0.00    -0.218 A  
HETATM   14  C   UNL     1     -10.654  11.576  65.073  1.00  0.00    -0.354 C  
HETATM   15  C   UNL     1     -11.487  11.959  63.853  1.00  0.00    -0.511 C  
HETATM   16  H   UNL     1     -10.132  14.004  64.470  1.00  0.00     0.000 HD 
HETATM   17  C   UNL     1      -9.876  15.813  69.464  1.00  0.00    -0.283 A  
HETATM   18  C   UNL     1     -11.153  15.978  69.997  1.00  0.00    -0.362 A  
HETATM   19  C   UNL     1     -12.639  12.776  64.415  1.00  0.00    -0.431 C  
HETATM   20  C   UNL     1     -12.185  13.262  65.795  1.00  0.00    -0.510 C  
HETATM   21  C   UNL     1     -12.138  15.032  69.738  1.00  0.00    -0.354 A  
HETATM   22  C   UNL     1     -11.843  13.922  68.949  1.00  0.00    -0.393 A  
ENDBRANCH   6   7
ENDBRANCH   5   6
ENDBRANCH   4   5
ENDBRANCH   2   4
TORSDOF 4
ENDMDL
MODEL       51
REMARK 921   NORMALIZED FREE ENERGY PREDICTED BY IDOCK:   -5.08 KCAL/MOL
REMARK 922        TOTAL FREE ENERGY PREDICTED BY IDOCK:   -6.57 KCAL/MOL
REMARK 923 INTER-LIGAND FREE ENERGY PREDICTED BY IDOCK:   -6.30 KCAL/MOL
REMARK 924 INTRA-LIGAND FREE ENERGY PREDICTED BY IDOCK:   -0.27 KCAL/MOL
REMARK 927      BINDING AFFINITY PREDICTED BY RF-SCORE:    0.00 PKD
ROOT
HETATM    1  C   UNL     1     -12.706  13.855  65.370  1.00  0.00    -0.490 C  
HETATM    2  N   UNL     1     -12.340  12.465  65.104  1.00  0.00    -0.570 NA 
HETATM    3  C   UNL     1     -12.449  12.193  63.667  1.00  0.00    -0.549 C  
ENDROOT
BRANCH   2   4
HETATM    4  C   UNL     1     -10.987  12.169  65.637  1.00  0.00    -0.295 C  
BRANCH   4   5
HETATM    5  C   UNL     1     -11.028  11.432  66.982  1.00  0.00    -0.292 C  
BRANCH   5   6
HETATM    6  O   UNL     1     -10.149  10.304  67.030  1.00  0.00    -0.198 OA 
BRANCH   6   7
HETATM    7  C   UNL     1      -9.899   9.852  68.290  1.00  0.00    -0.147 C  
HETATM    8  C   UNL     1     -10.621   8.524  68.525  1.00  0.00    -0.154 C  
HETATM    9  O   UNL     1      -9.268  10.471  69.135  1.00  0.00    -0.181 OA 
HETATM   10  C   UNL     1     -10.122   7.396  67.622  1.00  0.00    -0.240 A  
HETATM   11  C   UNL     1     -10.658   8.153  70.038  1.00  0.00    -0.239 C  
HETATM   12  O   UNL     1      -9.338   7.934  70.548  1.00  0.00    -0.161 OA 
HETATM   13  C   UNL     1      -8.774   7.273  67.261  1.00  0.00    -0.121 A  
HETATM   14  C   UNL     1     -11.357   9.204  70.918  1.00  0.00    -0.359 C  
HETATM   15  C   UNL     1     -11.664   8.448  72.208  1.00  0.00    -0.453 C  
HETATM   16  H   UNL     1      -9.360   7.709  71.471  1.00  0.00     0.000 HD 
HETATM   17  C   UNL     1      -8.348   6.201  66.473  1.00  0.00    -0.113 A  
HETATM   18  C   UNL     1      -9.256   5.228  66.056  1.00  0.00    -0.163 A  
HETATM   19  C   UNL     1     -12.059   7.053  71.750  1.00  0.00    -0.371 C  
HETATM   20  C   UNL     1     -11.496   6.892  70.335  1.00  0.00    -0.387 C  
HETATM   21  C   UNL     1     -10.597   5.339  66.403  1.00  0.00    -0.338 A  
HETATM   22  C   UNL     1     -11.030   6.425  67.163  1.00  0.00    -0.476 A  
ENDBRANCH   6   7
ENDBRANCH   5   6
ENDBRANCH   4   5
ENDBRANCH   2   4
TORSDOF 4
ENDMDL
MODEL       52
REMARK 921   NORMALIZED FREE ENERGY PREDICTED BY IDOCK:   -5.07 KCAL/MOL
REMARK 922        TOTAL FREE ENERGY PREDICTED BY IDOCK:   -6.56 KCAL/MOL
REMARK 923 INTER-LIGAND FREE ENERGY PREDICTED BY IDOCK:   -5.98 KCAL/MOL
REMARK 924 INTRA-LIGAND FREE ENERGY PREDICTED BY IDOCK:   -0.58 KCAL/MOL
REMARK 927      BINDING AFFINITY PREDICTED BY RF-SCORE:    0.00 PKD
ROOT
HETATM    1  C   UNL     1      -6.766  14.836  69.672  1.00  0.00    -0.166 C  
HETATM    2  N   UNL     1      -6.704  15.004  68.221  1.00  0.00    -0.104 NA 
HETATM    3  C   UNL     1      -5.463  15.697  67.858  1.00  0.00    -0.132 C  
ENDROOT
BRANCH   2   4
HETATM    4  C   UNL     1      -6.845  13.696  67.536  1.00  0.00    -0.137 C  
BRANCH   4   5
HETATM    5  C   UNL     1      -8.290  13.179  67.538  1.00  0.00    -0.185 C  
BRANCH   5   6
HETATM    6  O   UNL     1      -9.203  14.063  66.881  1.00  0.00    -0.241 OA 
BRANCH   6   7
HETATM    7  C   UNL     1     -10.377  14.240  67.548  1.00  0.00    -0.248 C  
HETATM    8  C   UNL     1     -10.224  15.342  68.598  1.00  0.00    -0.217 C  
HETATM    9  O   UNL     1     -11.373  13.549  67.390  1.00  0.00    -0.287 OA 
HETATM   10  C   UNL     1      -9.931  16.716  67.994  1.00  0.00    -0.258 A  
HETATM   11  C   UNL     1     -11.410  15.336  69.609  1.00  0.00    -0.290 C  
HETATM   12  O   UNL     1     -12.648  15.637  68.956  1.00  0.00    -0.538 OA 
HETATM   13  C   UNL     1     -10.501  17.135  66.785  1.00  0.00    -0.263 A  
HETATM   14  C   UNL     1     -11.567  14.009  70.373  1.00  0.00    -0.206 C  
HETATM   15  C   UNL     1     -12.443  14.381  71.566  1.00  0.00    -0.430 C  
HETATM   16  H   UNL     1     -13.371  15.633  69.572  1.00  0.00     0.000 HD 
HETATM   17  C   UNL     1     -10.247  18.416  66.290  1.00  0.00    -0.427 A  
HETATM   18  C   UNL     1      -9.442  19.301  67.006  1.00  0.00    -0.385 A  
HETATM   19  C   UNL     1     -11.962  15.763  71.979  1.00  0.00    -0.570 C  
HETATM   20  C   UNL     1     -11.227  16.341  70.766  1.00  0.00    -0.293 C  
HETATM   21  C   UNL     1      -8.866  18.898  68.204  1.00  0.00    -0.341 A  
HETATM   22  C   UNL     1      -9.093  17.610  68.684  1.00  0.00    -0.261 A  
ENDBRANCH   6   7
ENDBRANCH   5   6
ENDBRANCH   4   5
ENDBRANCH   2   4
TORSDOF 4
ENDMDL
MODEL       53
REMARK 921   NORMALIZED FREE ENERGY PREDICTED BY IDOCK:   -5.03 KCAL/MOL
REMARK 922        TOTAL FREE ENERGY PREDICTED BY IDOCK:   -6.51 KCAL/MOL
REMARK 923 INTER-LIGAND FREE ENERGY PREDICTED BY IDOCK:   -6.28 KCAL/MOL
REMARK 924 INTRA-LIGAND FREE ENERGY PREDICTED BY IDOCK:   -0.23 KCAL/MOL
REMARK 927      BINDING AFFINITY PREDICTED BY RF-SCORE:    0.00 PKD
ROOT
HETATM    1  C   UNL     1     -13.071   9.876  71.952  1.00  0.00    -0.459 C  
HETATM    2  N   UNL     1     -11.888   9.860  71.091  1.00  0.00    -0.356 NA 
HETATM    3  C   UNL     1     -11.474   8.474  70.850  1.00  0.00    -0.267 C  
ENDROOT
BRANCH   2   4
HETATM    4  C   UNL     1     -12.147  10.603  69.833  1.00  0.00    -0.299 C  
BRANCH   4   5
HETATM    5  C   UNL     1     -11.747  12.081  69.925  1.00  0.00    -0.299 C  
BRANCH   5   6
HETATM    6  O   UNL     1     -11.550  12.689  68.644  1.00  0.00    -0.271 OA 
BRANCH   6   7
HETATM    7  C   UNL     1     -10.449  12.238  67.983  1.00  0.00    -0.218 C  
HETATM    8  C   UNL     1     -10.734  12.155  66.482  1.00  0.00    -0.290 C  
HETATM    9  O   UNL     1      -9.419  11.865  68.528  1.00  0.00    -0.198 OA 
HETATM   10  C   UNL     1     -11.016  13.515  65.844  1.00  0.00    -0.284 A  
HETATM   11  C   UNL     1      -9.646  11.322  65.739  1.00  0.00    -0.227 C  
HETATM   12  O   UNL     1      -8.364  11.955  65.823  1.00  0.00    -0.357 OA 
HETATM   13  C   UNL     1     -10.353  14.680  66.250  1.00  0.00    -0.301 A  
HETATM   14  C   UNL     1      -9.514   9.876  66.251  1.00  0.00    -0.245 C  
HETATM   15  C   UNL     1      -8.763   9.164  65.129  1.00  0.00    -0.228 C  
HETATM   16  H   UNL     1      -7.701  11.447  65.370  1.00  0.00     0.000 HD 
HETATM   17  C   UNL     1     -10.604  15.896  65.609  1.00  0.00    -0.393 A  
HETATM   18  C   UNL     1     -11.501  15.959  64.544  1.00  0.00    -0.287 A  
HETATM   19  C   UNL     1      -9.327   9.762  63.850  1.00  0.00    -0.195 C  
HETATM   20  C   UNL     1      -9.967  11.096  64.247  1.00  0.00    -0.359 C  
HETATM   21  C   UNL     1     -12.170  14.813  64.134  1.00  0.00    -0.321 A  
HETATM   22  C   UNL     1     -11.944  13.605  64.791  1.00  0.00    -0.426 A  
ENDBRANCH   6   7
ENDBRANCH   5   6
ENDBRANCH   4   5
ENDBRANCH   2   4
TORSDOF 4
ENDMDL
MODEL       54
REMARK 921   NORMALIZED FREE ENERGY PREDICTED BY IDOCK:   -5.00 KCAL/MOL
REMARK 922        TOTAL FREE ENERGY PREDICTED BY IDOCK:   -6.47 KCAL/MOL
REMARK 923 INTER-LIGAND FREE ENERGY PREDICTED BY IDOCK:   -5.92 KCAL/MOL
REMARK 924 INTRA-LIGAND FREE ENERGY PREDICTED BY IDOCK:   -0.55 KCAL/MOL
REMARK 927      BINDING AFFINITY PREDICTED BY RF-SCORE:    0.00 PKD
ROOT
HETATM    1  C   UNL     1      -7.633  20.063  66.405  1.00  0.00    -0.295 C  
HETATM    2  N   UNL     1      -8.225  19.078  67.310  1.00  0.00    -0.272 NA 
HETATM    3  C   UNL     1      -7.444  19.017  68.550  1.00  0.00    -0.317 C  
ENDROOT
BRANCH   2   4
HETATM    4  C   UNL     1      -9.656  19.386  67.555  1.00  0.00    -0.326 C  
BRANCH   4   5
HETATM    5  C   UNL     1     -10.561  18.156  67.405  1.00  0.00    -0.388 C  
BRANCH   5   6
HETATM    6  O   UNL     1     -10.793  17.476  68.643  1.00  0.00    -0.256 OA 
BRANCH   6   7
HETATM    7  C   UNL     1     -11.142  16.169  68.497  1.00  0.00    -0.357 C  
HETATM    8  C   UNL     1     -10.167  15.465  67.552  1.00  0.00    -0.244 C  
HETATM    9  O   UNL     1     -12.147  15.664  68.980  1.00  0.00    -0.337 OA 
HETATM   10  C   UNL     1      -8.738  15.408  68.091  1.00  0.00    -0.161 A  
HETATM   11  C   UNL     1     -10.721  14.086  67.082  1.00  0.00    -0.283 C  
HETATM   12  O   UNL     1     -10.861  13.183  68.184  1.00  0.00    -0.236 OA 
HETATM   13  C   UNL     1      -8.462  15.231  69.454  1.00  0.00    -0.231 A  
HETATM   14  C   UNL     1     -12.070  14.178  66.346  1.00  0.00    -0.475 C  
HETATM   15  C   UNL     1     -12.174  12.841  65.617  1.00  0.00    -0.503 C  
HETATM   16  H   UNL     1     -11.199  12.343  67.897  1.00  0.00     0.000 HD 
HETATM   17  C   UNL     1      -7.142  15.136  69.901  1.00  0.00    -0.119 A  
HETATM   18  C   UNL     1      -6.085  15.192  68.994  1.00  0.00    -0.098 A  
HETATM   19  C   UNL     1     -10.757  12.548  65.148  1.00  0.00    -0.323 C  
HETATM   20  C   UNL     1      -9.833  13.405  66.019  1.00  0.00    -0.273 C  
HETATM   21  C   UNL     1      -6.343  15.371  67.641  1.00  0.00    -0.177 A  
HETATM   22  C   UNL     1      -7.657  15.498  67.196  1.00  0.00    -0.253 A  
ENDBRANCH   6   7
ENDBRANCH   5   6
ENDBRANCH   4   5
ENDBRANCH   2   4
TORSDOF 4
ENDMDL
MODEL       55
REMARK 921   NORMALIZED FREE ENERGY PREDICTED BY IDOCK:   -4.97 KCAL/MOL
REMARK 922        TOTAL FREE ENERGY PREDICTED BY IDOCK:   -6.44 KCAL/MOL
REMARK 923 INTER-LIGAND FREE ENERGY PREDICTED BY IDOCK:   -6.07 KCAL/MOL
REMARK 924 INTRA-LIGAND FREE ENERGY PREDICTED BY IDOCK:   -0.36 KCAL/MOL
REMARK 927      BINDING AFFINITY PREDICTED BY RF-SCORE:    0.00 PKD
ROOT
HETATM    1  C   UNL     1      -9.980  10.777  64.331  1.00  0.00    -0.338 C  
HETATM    2  N   UNL     1     -10.610  10.304  65.563  1.00  0.00    -0.066 NA 
HETATM    3  C   UNL     1      -9.793   9.240  66.156  1.00  0.00    -0.293 C  
ENDROOT
BRANCH   2   4
HETATM    4  C   UNL     1     -10.841  11.431  66.499  1.00  0.00    -0.283 C  
BRANCH   4   5
HETATM    5  C   UNL     1     -11.228  10.961  67.908  1.00  0.00    -0.321 C  
BRANCH   5   6
HETATM    6  O   UNL     1     -10.788  11.852  68.937  1.00  0.00    -0.221 OA 
BRANCH   6   7
HETATM    7  C   UNL     1     -11.792  12.569  69.513  1.00  0.00    -0.310 C  
HETATM    8  C   UNL     1     -11.286  13.958  69.909  1.00  0.00    -0.176 C  
HETATM    9  O   UNL     1     -12.905  12.126  69.760  1.00  0.00     0.341 OA 
HETATM   10  C   UNL     1     -10.861  14.810  68.713  1.00  0.00    -0.259 A  
HETATM   11  C   UNL     1     -12.278  14.673  70.875  1.00  0.00    -0.323 C  
HETATM   12  O   UNL     1     -13.534  14.922  70.234  1.00  0.00    -0.589 OA 
HETATM   13  C   UNL     1     -11.537  14.762  67.486  1.00  0.00    -0.379 A  
HETATM   14  C   UNL     1     -12.538  13.902  72.181  1.00  0.00    -0.247 C  
HETATM   15  C   UNL     1     -13.135  14.955  73.110  1.00  0.00    -0.615 C  
HETATM   16  H   UNL     1     -14.139  15.358  70.823  1.00  0.00     0.000 HD 
HETATM   17  C   UNL     1     -11.148  15.592  66.432  1.00  0.00    -0.174 A  
HETATM   18  C   UNL     1     -10.098  16.495  66.596  1.00  0.00    -0.299 A  
HETATM   19  C   UNL     1     -12.363  16.227  72.794  1.00  0.00    -0.543 C  
HETATM   20  C   UNL     1     -11.743  16.018  71.409  1.00  0.00    -0.536 C  
HETATM   21  C   UNL     1      -9.417  16.551  67.806  1.00  0.00    -0.222 A  
HETATM   22  C   UNL     1      -9.782  15.702  68.849  1.00  0.00    -0.220 A  
ENDBRANCH   6   7
ENDBRANCH   5   6
ENDBRANCH   4   5
ENDBRANCH   2   4
TORSDOF 4
ENDMDL
MODEL       56
REMARK 921   NORMALIZED FREE ENERGY PREDICTED BY IDOCK:   -4.95 KCAL/MOL
REMARK 922        TOTAL FREE ENERGY PREDICTED BY IDOCK:   -6.41 KCAL/MOL
REMARK 923 INTER-LIGAND FREE ENERGY PREDICTED BY IDOCK:   -6.07 KCAL/MOL
REMARK 924 INTRA-LIGAND FREE ENERGY PREDICTED BY IDOCK:   -0.34 KCAL/MOL
REMARK 927      BINDING AFFINITY PREDICTED BY RF-SCORE:    0.00 PKD
ROOT
HETATM    1  C   UNL     1      -5.863  19.849  63.717  1.00  0.00    -0.256 C  
HETATM    2  N   UNL     1      -6.315  18.991  64.812  1.00  0.00    -0.488 NA 
HETATM    3  C   UNL     1      -5.154  18.497  65.561  1.00  0.00    -0.155 C  
ENDROOT
BRANCH   2   4
HETATM    4  C   UNL     1      -7.283  19.711  65.676  1.00  0.00    -0.281 C  
BRANCH   4   5
HETATM    5  C   UNL     1      -8.151  18.761  66.512  1.00  0.00    -0.289 C  
BRANCH   5   6
HETATM    6  O   UNL     1      -8.379  17.501  65.873  1.00  0.00    -0.538 OA 
BRANCH   6   7
HETATM    7  C   UNL     1      -9.546  16.901  66.237  1.00  0.00    -0.276 C  
HETATM    8  C   UNL     1      -9.352  15.387  66.329  1.00  0.00    -0.351 C  
HETATM    9  O   UNL     1     -10.612  17.487  66.373  1.00  0.00    -0.297 OA 
HETATM   10  C   UNL     1      -8.366  14.969  67.420  1.00  0.00    -0.210 A  
HETATM   11  C   UNL     1     -10.718  14.639  66.391  1.00  0.00    -0.309 C  
HETATM   12  O   UNL     1     -11.439  14.978  67.581  1.00  0.00    -0.331 OA 
HETATM   13  C   UNL     1      -8.279  15.646  68.644  1.00  0.00    -0.168 A  
HETATM   14  C   UNL     1     -11.625  14.900  65.175  1.00  0.00    -0.330 C  
HETATM   15  C   UNL     1     -12.643  13.764  65.234  1.00  0.00    -0.510 C  
HETATM   16  H   UNL     1     -12.272  14.522  67.619  1.00  0.00     0.000 HD 
HETATM   17  C   UNL     1      -7.399  15.204  69.635  1.00  0.00    -0.191 A  
HETATM   18  C   UNL     1      -6.614  14.071  69.426  1.00  0.00    -0.118 A  
HETATM   19  C   UNL     1     -11.841  12.554  65.686  1.00  0.00    -0.493 C  
HETATM   20  C   UNL     1     -10.573  13.103  66.346  1.00  0.00    -0.293 C  
HETATM   21  C   UNL     1      -6.687  13.392  68.216  1.00  0.00    -0.105 A  
HETATM   22  C   UNL     1      -7.541  13.849  67.214  1.00  0.00    -0.079 A  
ENDBRANCH   6   7
ENDBRANCH   5   6
ENDBRANCH   4   5
ENDBRANCH   2   4
TORSDOF 4
ENDMDL
MODEL       57
REMARK 921   NORMALIZED FREE ENERGY PREDICTED BY IDOCK:   -4.94 KCAL/MOL
REMARK 922        TOTAL FREE ENERGY PREDICTED BY IDOCK:   -6.39 KCAL/MOL
REMARK 923 INTER-LIGAND FREE ENERGY PREDICTED BY IDOCK:   -6.07 KCAL/MOL
REMARK 924 INTRA-LIGAND FREE ENERGY PREDICTED BY IDOCK:   -0.33 KCAL/MOL
REMARK 927      BINDING AFFINITY PREDICTED BY RF-SCORE:    0.00 PKD
ROOT
HETATM    1  C   UNL     1     -13.357   9.599  71.997  1.00  0.00    -0.457 C  
HETATM    2  N   UNL     1     -12.299   8.614  72.219  1.00  0.00    -0.379 NA 
HETATM    3  C   UNL     1     -12.771   7.286  71.814  1.00  0.00    -0.335 C  
ENDROOT
BRANCH   2   4
HETATM    4  C   UNL     1     -11.056   9.013  71.515  1.00  0.00    -0.349 C  
BRANCH   4   5
HETATM    5  C   UNL     1     -11.203  10.340  70.759  1.00  0.00    -0.293 C  
BRANCH   5   6
HETATM    6  O   UNL     1     -10.568  10.328  69.476  1.00  0.00    -0.213 OA 
BRANCH   6   7
HETATM    7  C   UNL     1     -11.290  10.938  68.497  1.00  0.00    -0.299 C  
HETATM    8  C   UNL     1     -10.352  11.614  67.495  1.00  0.00    -0.220 C  
HETATM    9  O   UNL     1     -12.511  11.012  68.482  1.00  0.00    -0.440 OA 
HETATM   10  C   UNL     1      -9.463  10.627  66.738  1.00  0.00    -0.189 A  
HETATM   11  C   UNL     1     -11.121  12.608  66.573  1.00  0.00    -0.280 C  
HETATM   12  O   UNL     1     -12.077  11.922  65.758  1.00  0.00    -0.451 OA 
HETATM   13  C   UNL     1      -9.920   9.361  66.350  1.00  0.00    -0.346 A  
HETATM   14  C   UNL     1     -11.844  13.732  67.338  1.00  0.00    -0.431 C  
HETATM   15  C   UNL     1     -12.117  14.781  66.264  1.00  0.00    -0.107 C  
HETATM   16  H   UNL     1     -12.546  12.528  65.196  1.00  0.00     0.000 HD 
HETATM   17  C   UNL     1      -9.093   8.506  65.617  1.00  0.00    -0.189 A  
HETATM   18  C   UNL     1      -7.813   8.912  65.244  1.00  0.00    -0.104 A  
HETATM   19  C   UNL     1     -10.878  14.759  65.382  1.00  0.00    -0.372 C  
HETATM   20  C   UNL     1     -10.193  13.415  65.641  1.00  0.00    -0.300 C  
HETATM   21  C   UNL     1      -7.345  10.163  65.626  1.00  0.00    -0.144 A  
HETATM   22  C   UNL     1      -8.156  11.006  66.384  1.00  0.00    -0.166 A  
ENDBRANCH   6   7
ENDBRANCH   5   6
ENDBRANCH   4   5
ENDBRANCH   2   4
TORSDOF 4
ENDMDL
MODEL       58
REMARK 921   NORMALIZED FREE ENERGY PREDICTED BY IDOCK:   -4.91 KCAL/MOL
REMARK 922        TOTAL FREE ENERGY PREDICTED BY IDOCK:   -6.36 KCAL/MOL
REMARK 923 INTER-LIGAND FREE ENERGY PREDICTED BY IDOCK:   -5.96 KCAL/MOL
REMARK 924 INTRA-LIGAND FREE ENERGY PREDICTED BY IDOCK:   -0.40 KCAL/MOL
REMARK 927      BINDING AFFINITY PREDICTED BY RF-SCORE:    0.00 PKD
ROOT
HETATM    1  C   UNL     1     -10.224  14.486  65.159  1.00  0.00    -0.389 C  
HETATM    2  N   UNL     1     -11.582  15.000  65.329  1.00  0.00    -0.302 NA 
HETATM    3  C   UNL     1     -11.915  15.888  64.210  1.00  0.00     0.010 C  
ENDROOT
BRANCH   2   4
HETATM    4  C   UNL     1     -12.550  13.885  65.475  1.00  0.00    -0.526 C  
BRANCH   4   5
HETATM    5  C   UNL     1     -11.873  12.508  65.459  1.00  0.00    -0.439 C  
BRANCH   5   6
HETATM    6  O   UNL     1     -12.068  11.773  66.672  1.00  0.00    -0.527 OA 
BRANCH   6   7
HETATM    7  C   UNL     1     -10.910  11.419  67.295  1.00  0.00    -0.263 C  
HETATM    8  C   UNL     1     -10.216  12.660  67.859  1.00  0.00    -0.220 C  
HETATM    9  O   UNL     1     -10.454  10.285  67.312  1.00  0.00    -0.221 OA 
HETATM   10  C   UNL     1     -11.023  13.362  68.951  1.00  0.00    -0.284 A  
HETATM   11  C   UNL     1      -8.741  12.356  68.260  1.00  0.00    -0.175 C  
HETATM   12  O   UNL     1      -8.682  11.401  69.325  1.00  0.00    -0.374 OA 
HETATM   13  C   UNL     1     -11.795  12.651  69.879  1.00  0.00    -0.364 A  
HETATM   14  C   UNL     1      -7.873  11.847  67.095  1.00  0.00    -0.168 C  
HETATM   15  C   UNL     1      -6.445  12.054  67.593  1.00  0.00    -0.108 C  
HETATM   16  H   UNL     1      -7.782  11.215  69.570  1.00  0.00     0.000 HD 
HETATM   17  C   UNL     1     -12.481  13.325  70.892  1.00  0.00    -0.424 A  
HETATM   18  C   UNL     1     -12.387  14.712  71.005  1.00  0.00    -0.403 A  
HETATM   19  C   UNL     1      -6.489  13.370  68.353  1.00  0.00    -0.093 C  
HETATM   20  C   UNL     1      -7.960  13.611  68.704  1.00  0.00    -0.083 C  
HETATM   21  C   UNL     1     -11.629  15.430  70.089  1.00  0.00    -0.351 A  
HETATM   22  C   UNL     1     -10.969  14.763  69.059  1.00  0.00    -0.257 A  
ENDBRANCH   6   7
ENDBRANCH   5   6
ENDBRANCH   4   5
ENDBRANCH   2   4
TORSDOF 4
ENDMDL
MODEL       59
REMARK 921   NORMALIZED FREE ENERGY PREDICTED BY IDOCK:   -4.89 KCAL/MOL
REMARK 922        TOTAL FREE ENERGY PREDICTED BY IDOCK:   -6.34 KCAL/MOL
REMARK 923 INTER-LIGAND FREE ENERGY PREDICTED BY IDOCK:   -6.02 KCAL/MOL
REMARK 924 INTRA-LIGAND FREE ENERGY PREDICTED BY IDOCK:   -0.32 KCAL/MOL
REMARK 927      BINDING AFFINITY PREDICTED BY RF-SCORE:    0.00 PKD
ROOT
HETATM    1  C   UNL     1     -14.401  15.047  71.787  1.00  0.00    -0.580 C  
HETATM    2  N   UNL     1     -13.037  15.149  71.269  1.00  0.00    -0.404 NA 
HETATM    3  C   UNL     1     -12.252  16.047  72.123  1.00  0.00    -0.516 C  
ENDROOT
BRANCH   2   4
HETATM    4  C   UNL     1     -12.423  13.805  71.142  1.00  0.00    -0.370 C  
BRANCH   4   5
HETATM    5  C   UNL     1     -12.274  13.357  69.682  1.00  0.00    -0.221 C  
BRANCH   5   6
HETATM    6  O   UNL     1     -11.331  12.294  69.515  1.00  0.00    -0.246 OA 
BRANCH   6   7
HETATM    7  C   UNL     1     -11.339  11.739  68.272  1.00  0.00    -0.282 C  
HETATM    8  C   UNL     1     -10.684  12.690  67.268  1.00  0.00    -0.259 C  
HETATM    9  O   UNL     1     -11.878  10.677  67.991  1.00  0.00    -0.494 OA 
HETATM   10  C   UNL     1      -9.204  12.943  67.551  1.00  0.00    -0.192 A  
HETATM   11  C   UNL     1     -10.984  12.264  65.799  1.00  0.00    -0.301 C  
HETATM   12  O   UNL     1     -10.409  10.986  65.505  1.00  0.00    -0.255 OA 
HETATM   13  C   UNL     1      -8.358  11.940  68.044  1.00  0.00    -0.160 A  
HETATM   14  C   UNL     1     -12.484  12.217  65.459  1.00  0.00     0.089 C  
HETATM   15  C   UNL     1     -12.509  12.231  63.933  1.00  0.00    -0.586 C  
HETATM   16  H   UNL     1     -10.591  10.726  64.609  1.00  0.00     0.000 HD 
HETATM   17  C   UNL     1      -7.000  12.197  68.244  1.00  0.00    -0.080 A  
HETATM   18  C   UNL     1      -6.465  13.447  67.934  1.00  0.00    -0.151 A  
HETATM   19  C   UNL     1     -11.387  13.179  63.539  1.00  0.00    -0.214 C  
HETATM   20  C   UNL     1     -10.460  13.272  64.755  1.00  0.00    -0.402 C  
HETATM   21  C   UNL     1      -7.293  14.452  67.449  1.00  0.00    -0.167 A  
HETATM   22  C   UNL     1      -8.654  14.208  67.277  1.00  0.00    -0.231 A  
ENDBRANCH   6   7
ENDBRANCH   5   6
ENDBRANCH   4   5
ENDBRANCH   2   4
TORSDOF 4
ENDMDL
MODEL       60
REMARK 921   NORMALIZED FREE ENERGY PREDICTED BY IDOCK:   -4.88 KCAL/MOL
REMARK 922        TOTAL FREE ENERGY PREDICTED BY IDOCK:   -6.33 KCAL/MOL
REMARK 923 INTER-LIGAND FREE ENERGY PREDICTED BY IDOCK:   -6.09 KCAL/MOL
REMARK 924 INTRA-LIGAND FREE ENERGY PREDICTED BY IDOCK:   -0.24 KCAL/MOL
REMARK 927      BINDING AFFINITY PREDICTED BY RF-SCORE:    0.00 PKD
ROOT
HETATM    1  C   UNL     1     -12.259   8.259  72.302  1.00  0.00    -0.370 C  
HETATM    2  N   UNL     1     -11.364   8.868  71.318  1.00  0.00    -0.277 NA 
HETATM    3  C   UNL     1     -11.032   7.887  70.281  1.00  0.00    -0.248 C  
ENDROOT
BRANCH   2   4
HETATM    4  C   UNL     1     -11.964  10.104  70.760  1.00  0.00    -0.348 C  
BRANCH   4   5
HETATM    5  C   UNL     1     -11.021  10.838  69.796  1.00  0.00    -0.252 C  
BRANCH   5   6
HETATM    6  O   UNL     1     -11.587  12.040  69.264  1.00  0.00    -0.276 OA 
BRANCH   6   7
HETATM    7  C   UNL     1     -11.432  12.174  67.919  1.00  0.00    -0.328 C  
HETATM    8  C   UNL     1     -10.847  13.549  67.591  1.00  0.00    -0.273 C  
HETATM    9  O   UNL     1     -11.798  11.348  67.094  1.00  0.00    -0.566 OA 
HETATM   10  C   UNL     1      -9.438  13.756  68.148  1.00  0.00    -0.212 A  
HETATM   11  C   UNL     1     -10.982  13.881  66.074  1.00  0.00    -0.285 C  
HETATM   12  O   UNL     1     -10.217  12.971  65.277  1.00  0.00    -0.292 OA 
HETATM   13  C   UNL     1      -8.498  12.718  68.200  1.00  0.00    -0.177 A  
HETATM   14  C   UNL     1     -12.434  13.879  65.565  1.00  0.00    -0.541 C  
HETATM   15  C   UNL     1     -12.355  14.643  64.247  1.00  0.00    -0.375 C  
HETATM   16  H   UNL     1     -10.299  13.173  64.352  1.00  0.00     0.000 HD 
HETATM   17  C   UNL     1      -7.206  12.958  68.672  1.00  0.00    -0.098 A  
HETATM   18  C   UNL     1      -6.829  14.238  69.075  1.00  0.00    -0.109 A  
HETATM   19  C   UNL     1     -11.350  15.755  64.506  1.00  0.00    -0.324 C  
HETATM   20  C   UNL     1     -10.531  15.315  65.723  1.00  0.00    -0.365 C  
HETATM   21  C   UNL     1      -7.751  15.276  69.033  1.00  0.00    -0.183 A  
HETATM   22  C   UNL     1      -9.051  15.032  68.592  1.00  0.00    -0.191 A  
ENDBRANCH   6   7
ENDBRANCH   5   6
ENDBRANCH   4   5
ENDBRANCH   2   4
TORSDOF 4
ENDMDL
MODEL       61
REMARK 921   NORMALIZED FREE ENERGY PREDICTED BY IDOCK:   -4.86 KCAL/MOL
REMARK 922        TOTAL FREE ENERGY PREDICTED BY IDOCK:   -6.30 KCAL/MOL
REMARK 923 INTER-LIGAND FREE ENERGY PREDICTED BY IDOCK:   -5.96 KCAL/MOL
REMARK 924 INTRA-LIGAND FREE ENERGY PREDICTED BY IDOCK:   -0.34 KCAL/MOL
REMARK 927      BINDING AFFINITY PREDICTED BY RF-SCORE:    0.00 PKD
ROOT
HETATM    1  C   UNL     1     -14.353  15.164  71.772  1.00  0.00    -0.597 C  
HETATM    2  N   UNL     1     -12.953  15.411  71.425  1.00  0.00    -0.426 NA 
HETATM    3  C   UNL     1     -12.250  15.970  72.584  1.00  0.00    -0.522 C  
ENDROOT
BRANCH   2   4
HETATM    4  C   UNL     1     -12.314  14.173  70.915  1.00  0.00    -0.368 C  
BRANCH   4   5
HETATM    5  C   UNL     1     -11.760  14.334  69.494  1.00  0.00    -0.316 C  
BRANCH   5   6
HETATM    6  O   UNL     1     -10.504  15.020  69.456  1.00  0.00    -0.241 OA 
BRANCH   6   7
HETATM    7  C   UNL     1     -10.293  15.722  68.308  1.00  0.00    -0.239 C  
HETATM    8  C   UNL     1      -8.821  15.634  67.902  1.00  0.00    -0.171 C  
HETATM    9  O   UNL     1     -11.142  16.398  67.745  1.00  0.00    -0.297 OA 
HETATM   10  C   UNL     1      -8.372  14.214  67.556  1.00  0.00    -0.194 A  
HETATM   11  C   UNL     1      -8.464  16.693  66.815  1.00  0.00    -0.235 C  
HETATM   12  O   UNL     1      -9.182  16.448  65.601  1.00  0.00    -0.465 OA 
HETATM   13  C   UNL     1      -9.215  13.306  66.901  1.00  0.00    -0.242 A  
HETATM   14  C   UNL     1      -8.721  18.145  67.255  1.00  0.00    -0.244 C  
HETATM   15  C   UNL     1      -7.908  18.972  66.263  1.00  0.00    -0.303 C  
HETATM   16  H   UNL     1      -8.965  17.094  64.939  1.00  0.00     0.000 HD 
HETATM   17  C   UNL     1      -8.752  12.033  66.558  1.00  0.00    -0.138 A  
HETATM   18  C   UNL     1      -7.439  11.660  66.844  1.00  0.00    -0.131 A  
HETATM   19  C   UNL     1      -6.637  18.166  66.044  1.00  0.00    -0.298 C  
HETATM   20  C   UNL     1      -6.959  16.733  66.476  1.00  0.00    -0.224 C  
HETATM   21  C   UNL     1      -6.594  12.549  67.497  1.00  0.00    -0.150 A  
HETATM   22  C   UNL     1      -7.062  13.808  67.867  1.00  0.00    -0.161 A  
ENDBRANCH   6   7
ENDBRANCH   5   6
ENDBRANCH   4   5
ENDBRANCH   2   4
TORSDOF 4
ENDMDL
MODEL       62
REMARK 921   NORMALIZED FREE ENERGY PREDICTED BY IDOCK:   -4.86 KCAL/MOL
REMARK 922        TOTAL FREE ENERGY PREDICTED BY IDOCK:   -6.30 KCAL/MOL
REMARK 923 INTER-LIGAND FREE ENERGY PREDICTED BY IDOCK:   -5.83 KCAL/MOL
REMARK 924 INTRA-LIGAND FREE ENERGY PREDICTED BY IDOCK:   -0.47 KCAL/MOL
REMARK 927      BINDING AFFINITY PREDICTED BY RF-SCORE:    0.00 PKD
ROOT
HETATM    1  C   UNL     1      -8.464  16.229  66.308  1.00  0.00    -0.334 C  
HETATM    2  N   UNL     1      -7.283  16.028  67.147  1.00  0.00    -0.208 NA 
HETATM    3  C   UNL     1      -6.855  17.313  67.710  1.00  0.00    -0.160 C  
ENDROOT
BRANCH   2   4
HETATM    4  C   UNL     1      -7.550  15.010  68.193  1.00  0.00    -0.111 C  
BRANCH   4   5
HETATM    5  C   UNL     1      -7.674  13.591  67.621  1.00  0.00    -0.176 C  
BRANCH   5   6
HETATM    6  O   UNL     1      -8.697  12.819  68.256  1.00  0.00    -0.183 OA 
BRANCH   6   7
HETATM    7  C   UNL     1      -9.936  12.998  67.721  1.00  0.00    -0.227 C  
HETATM    8  C   UNL     1     -10.076  12.183  66.434  1.00  0.00    -0.242 C  
HETATM    9  O   UNL     1     -10.774  13.774  68.160  1.00  0.00    -0.237 OA 
HETATM   10  C   UNL     1      -9.986  10.674  66.660  1.00  0.00    -0.259 A  
HETATM   11  C   UNL     1     -11.323  12.625  65.610  1.00  0.00    -0.322 C  
HETATM   12  O   UNL     1     -12.534  12.366  66.328  1.00  0.00    -0.462 OA 
HETATM   13  C   UNL     1     -10.517  10.060  67.802  1.00  0.00    -0.282 A  
HETATM   14  C   UNL     1     -11.302  14.109  65.200  1.00  0.00    -0.336 C  
HETATM   15  C   UNL     1     -12.330  14.187  64.075  1.00  0.00    -0.315 C  
HETATM   16  H   UNL     1     -13.295  12.636  65.826  1.00  0.00     0.000 HD 
HETATM   17  C   UNL     1     -10.458   8.672  67.951  1.00  0.00    -0.269 A  
HETATM   18  C   UNL     1      -9.890   7.880  66.954  1.00  0.00    -0.309 A  
HETATM   19  C   UNL     1     -12.144  12.895  63.295  1.00  0.00    -0.520 C  
HETATM   20  C   UNL     1     -11.425  11.926  64.238  1.00  0.00    -0.423 C  
HETATM   21  C   UNL     1      -9.355   8.476  65.818  1.00  0.00    -0.187 A  
HETATM   22  C   UNL     1      -9.385   9.862  65.682  1.00  0.00    -0.269 A  
ENDBRANCH   6   7
ENDBRANCH   5   6
ENDBRANCH   4   5
ENDBRANCH   2   4
TORSDOF 4
ENDMDL
MODEL       63
REMARK 921   NORMALIZED FREE ENERGY PREDICTED BY IDOCK:   -4.85 KCAL/MOL
REMARK 922        TOTAL FREE ENERGY PREDICTED BY IDOCK:   -6.29 KCAL/MOL
REMARK 923 INTER-LIGAND FREE ENERGY PREDICTED BY IDOCK:   -5.77 KCAL/MOL
REMARK 924 INTRA-LIGAND FREE ENERGY PREDICTED BY IDOCK:   -0.52 KCAL/MOL
REMARK 927      BINDING AFFINITY PREDICTED BY RF-SCORE:    0.00 PKD
ROOT
HETATM    1  C   UNL     1      -6.197  18.296  69.444  1.00  0.00    -0.257 C  
HETATM    2  N   UNL     1      -5.244  17.190  69.523  1.00  0.00    -0.155 NA 
HETATM    3  C   UNL     1      -5.228  16.651  70.887  1.00  0.00    -0.165 C  
ENDROOT
BRANCH   2   4
HETATM    4  C   UNL     1      -5.557  16.155  68.507  1.00  0.00    -0.106 C  
BRANCH   4   5
HETATM    5  C   UNL     1      -6.292  14.946  69.100  1.00  0.00    -0.108 C  
BRANCH   5   6
HETATM    6  O   UNL     1      -7.714  15.035  68.969  1.00  0.00    -0.145 OA 
BRANCH   6   7
HETATM    7  C   UNL     1      -8.194  14.523  67.802  1.00  0.00    -0.165 C  
HETATM    8  C   UNL     1      -9.569  15.117  67.493  1.00  0.00    -0.207 C  
HETATM    9  O   UNL     1      -7.642  13.645  67.153  1.00  0.00    -0.104 OA 
HETATM   10  C   UNL     1      -9.535  16.626  67.249  1.00  0.00    -0.234 A  
HETATM   11  C   UNL     1     -10.302  14.313  66.378  1.00  0.00    -0.286 C  
HETATM   12  O   UNL     1      -9.594  14.390  65.136  1.00  0.00    -0.506 OA 
HETATM   13  C   UNL     1      -8.467  17.250  66.590  1.00  0.00    -0.292 A  
HETATM   14  C   UNL     1     -10.523  12.829  66.726  1.00  0.00    -0.253 C  
HETATM   15  C   UNL     1     -11.605  12.387  65.745  1.00  0.00    -0.449 C  
HETATM   16  H   UNL     1     -10.040  13.899  64.455  1.00  0.00     0.000 HD 
HETATM   17  C   UNL     1      -8.495  18.624  66.343  1.00  0.00    -0.286 A  
HETATM   18  C   UNL     1      -9.596  19.387  66.728  1.00  0.00    -0.424 A  
HETATM   19  C   UNL     1     -12.545  13.578  65.647  1.00  0.00    -0.512 C  
HETATM   20  C   UNL     1     -11.748  14.793  66.132  1.00  0.00    -0.255 C  
HETATM   21  C   UNL     1     -10.661  18.783  67.386  1.00  0.00    -0.505 A  
HETATM   22  C   UNL     1     -10.621  17.418  67.662  1.00  0.00    -0.350 A  
ENDBRANCH   6   7
ENDBRANCH   5   6
ENDBRANCH   4   5
ENDBRANCH   2   4
TORSDOF 4
ENDMDL
MODEL       64
REMARK 921   NORMALIZED FREE ENERGY PREDICTED BY IDOCK:   -4.85 KCAL/MOL
REMARK 922        TOTAL FREE ENERGY PREDICTED BY IDOCK:   -6.28 KCAL/MOL
REMARK 923 INTER-LIGAND FREE ENERGY PREDICTED BY IDOCK:   -5.94 KCAL/MOL
REMARK 924 INTRA-LIGAND FREE ENERGY PREDICTED BY IDOCK:   -0.34 KCAL/MOL
REMARK 927      BINDING AFFINITY PREDICTED BY RF-SCORE:    0.00 PKD
ROOT
HETATM    1  C   UNL     1     -12.689   7.010  71.411  1.00  0.00    -0.374 C  
HETATM    2  N   UNL     1     -11.469   6.769  72.181  1.00  0.00    -0.271 NA 
HETATM    3  C   UNL     1     -10.695   5.694  71.551  1.00  0.00    -0.242 C  
ENDROOT
BRANCH   2   4
HETATM    4  C   UNL     1     -10.687   8.021  72.328  1.00  0.00    -0.296 C  
BRANCH   4   5
HETATM    5  C   UNL     1     -11.355   9.221  71.643  1.00  0.00    -0.397 C  
BRANCH   5   6
HETATM    6  O   UNL     1     -10.601   9.726  70.537  1.00  0.00    -0.277 OA 
BRANCH   6   7
HETATM    7  C   UNL     1     -11.306  10.560  69.724  1.00  0.00    -0.300 C  
HETATM    8  C   UNL     1     -10.363  11.263  68.746  1.00  0.00    -0.223 C  
HETATM    9  O   UNL     1     -12.505  10.781  69.831  1.00  0.00    -0.322 OA 
HETATM   10  C   UNL     1      -9.669  10.303  67.779  1.00  0.00    -0.178 A  
HETATM   11  C   UNL     1     -11.059  12.470  68.048  1.00  0.00    -0.245 C  
HETATM   12  O   UNL     1     -12.154  12.035  67.234  1.00  0.00    -0.572 OA 
HETATM   13  C   UNL     1     -10.316   9.174  67.259  1.00  0.00    -0.338 A  
HETATM   14  C   UNL     1     -11.570  13.543  69.027  1.00  0.00    -0.356 C  
HETATM   15  C   UNL     1     -11.780  14.768  68.141  1.00  0.00    -0.353 C  
HETATM   16  H   UNL     1     -12.579  12.771  66.809  1.00  0.00     0.000 HD 
HETATM   17  C   UNL     1      -9.665   8.347  66.341  1.00  0.00    -0.312 A  
HETATM   18  C   UNL     1      -8.373   8.649  65.913  1.00  0.00    -0.140 A  
HETATM   19  C   UNL     1     -10.622  14.732  67.155  1.00  0.00    -0.285 C  
HETATM   20  C   UNL     1     -10.103  13.291  67.158  1.00  0.00    -0.239 C  
HETATM   21  C   UNL     1      -7.717   9.763  66.423  1.00  0.00    -0.102 A  
HETATM   22  C   UNL     1      -8.353  10.572  67.363  1.00  0.00    -0.121 A  
ENDBRANCH   6   7
ENDBRANCH   5   6
ENDBRANCH   4   5
ENDBRANCH   2   4
TORSDOF 4
ENDMDL
MODEL       65
REMARK 921   NORMALIZED FREE ENERGY PREDICTED BY IDOCK:   -4.82 KCAL/MOL
REMARK 922        TOTAL FREE ENERGY PREDICTED BY IDOCK:   -6.26 KCAL/MOL
REMARK 923 INTER-LIGAND FREE ENERGY PREDICTED BY IDOCK:   -5.80 KCAL/MOL
REMARK 924 INTRA-LIGAND FREE ENERGY PREDICTED BY IDOCK:   -0.45 KCAL/MOL
REMARK 927      BINDING AFFINITY PREDICTED BY RF-SCORE:    0.00 PKD
ROOT
HETATM    1  C   UNL     1      -8.416  19.131  67.784  1.00  0.00    -0.300 C  
HETATM    2  N   UNL     1      -9.171  17.942  68.178  1.00  0.00    -0.271 NA 
HETATM    3  C   UNL     1     -10.471  17.938  67.500  1.00  0.00    -0.390 C  
ENDROOT
BRANCH   2   4
HETATM    4  C   UNL     1      -8.387  16.712  67.910  1.00  0.00    -0.185 C  
BRANCH   4   5
HETATM    5  C   UNL     1      -8.421  15.721  69.082  1.00  0.00    -0.251 C  
BRANCH   5   6
HETATM    6  O   UNL     1      -9.337  14.640  68.875  1.00  0.00    -0.199 OA 
BRANCH   6   7
HETATM    7  C   UNL     1      -8.799  13.581  68.210  1.00  0.00    -0.179 C  
HETATM    8  C   UNL     1      -9.907  12.746  67.567  1.00  0.00    -0.211 C  
HETATM    9  O   UNL     1      -7.609  13.294  68.212  1.00  0.00    -0.119 OA 
HETATM   10  C   UNL     1     -10.687  13.501  66.490  1.00  0.00    -0.287 A  
HETATM   11  C   UNL     1      -9.379  11.354  67.105  1.00  0.00    -0.172 C  
HETATM   12  O   UNL     1      -8.394  11.490  66.075  1.00  0.00    -0.349 OA 
HETATM   13  C   UNL     1     -10.069  14.416  65.627  1.00  0.00    -0.377 A  
HETATM   14  C   UNL     1      -8.784  10.507  68.245  1.00  0.00    -0.135 C  
HETATM   15  C   UNL     1      -8.764   9.093  67.671  1.00  0.00    -0.120 C  
HETATM   16  H   UNL     1      -8.072  10.642  65.794  1.00  0.00     0.000 HD 
HETATM   17  C   UNL     1     -10.806  15.051  64.625  1.00  0.00    -0.290 A  
HETATM   18  C   UNL     1     -12.160  14.763  64.456  1.00  0.00    -0.460 A  
HETATM   19  C   UNL     1     -10.050   8.988  66.865  1.00  0.00    -0.338 C  
HETATM   20  C   UNL     1     -10.493  10.425  66.578  1.00  0.00    -0.262 C  
HETATM   21  C   UNL     1     -12.787  13.861  65.307  1.00  0.00    -0.437 A  
HETATM   22  C   UNL     1     -12.061  13.250  66.328  1.00  0.00    -0.472 A  
ENDBRANCH   6   7
ENDBRANCH   5   6
ENDBRANCH   4   5
ENDBRANCH   2   4
TORSDOF 4
ENDMDL
MODEL       66
REMARK 921   NORMALIZED FREE ENERGY PREDICTED BY IDOCK:   -4.80 KCAL/MOL
REMARK 922        TOTAL FREE ENERGY PREDICTED BY IDOCK:   -6.23 KCAL/MOL
REMARK 923 INTER-LIGAND FREE ENERGY PREDICTED BY IDOCK:   -5.91 KCAL/MOL
REMARK 924 INTRA-LIGAND FREE ENERGY PREDICTED BY IDOCK:   -0.31 KCAL/MOL
REMARK 927      BINDING AFFINITY PREDICTED BY RF-SCORE:    0.00 PKD
ROOT
HETATM    1  C   UNL     1     -12.127  12.906  63.463  1.00  0.00    -0.555 C  
HETATM    2  N   UNL     1     -11.384  11.746  63.953  1.00  0.00    -0.401 NA 
HETATM    3  C   UNL     1     -10.085  11.672  63.274  1.00  0.00    -0.423 C  
ENDROOT
BRANCH   2   4
HETATM    4  C   UNL     1     -11.251  11.795  65.429  1.00  0.00    -0.251 C  
BRANCH   4   5
HETATM    5  C   UNL     1      -9.894  11.272  65.920  1.00  0.00    -0.232 C  
BRANCH   5   6
HETATM    6  O   UNL     1     -10.008  10.117  66.757  1.00  0.00    -0.193 OA 
BRANCH   6   7
HETATM    7  C   UNL     1     -10.086  10.405  68.086  1.00  0.00    -0.155 C  
HETATM    8  C   UNL     1     -10.855   9.304  68.818  1.00  0.00    -0.123 C  
HETATM    9  O   UNL     1      -9.681  11.441  68.594  1.00  0.00    -0.192 OA 
HETATM   10  C   UNL     1     -10.154   7.945  68.774  1.00  0.00    -0.203 A  
HETATM   11  C   UNL     1     -11.272   9.754  70.251  1.00  0.00    -0.288 C  
HETATM   12  O   UNL     1     -10.123   9.992  71.072  1.00  0.00    -0.250 OA 
HETATM   13  C   UNL     1      -8.760   7.824  68.835  1.00  0.00    -0.135 A  
HETATM   14  C   UNL     1     -12.160  11.011  70.272  1.00  0.00    -0.448 C  
HETATM   15  C   UNL     1     -12.787  10.985  71.664  1.00  0.00    -0.540 C  
HETATM   16  H   UNL     1     -10.378  10.267  71.945  1.00  0.00     0.000 HD 
HETATM   17  C   UNL     1      -8.159   6.563  68.840  1.00  0.00    -0.115 A  
HETATM   18  C   UNL     1      -8.942   5.410  68.810  1.00  0.00    -0.127 A  
HETATM   19  C   UNL     1     -13.066   9.515  71.932  1.00  0.00    -0.517 C  
HETATM   20  C   UNL     1     -12.168   8.727  70.974  1.00  0.00    -0.226 C  
HETATM   21  C   UNL     1     -10.326   5.514  68.745  1.00  0.00    -0.271 A  
HETATM   22  C   UNL     1     -10.926   6.772  68.708  1.00  0.00    -0.267 A  
ENDBRANCH   6   7
ENDBRANCH   5   6
ENDBRANCH   4   5
ENDBRANCH   2   4
TORSDOF 4
ENDMDL
MODEL       67
REMARK 921   NORMALIZED FREE ENERGY PREDICTED BY IDOCK:   -4.80 KCAL/MOL
REMARK 922        TOTAL FREE ENERGY PREDICTED BY IDOCK:   -6.22 KCAL/MOL
REMARK 923 INTER-LIGAND FREE ENERGY PREDICTED BY IDOCK:   -6.00 KCAL/MOL
REMARK 924 INTRA-LIGAND FREE ENERGY PREDICTED BY IDOCK:   -0.23 KCAL/MOL
REMARK 927      BINDING AFFINITY PREDICTED BY RF-SCORE:    0.00 PKD
ROOT
HETATM    1  C   UNL     1     -12.410  14.676  64.255  1.00  0.00    -0.349 C  
HETATM    2  N   UNL     1     -12.747  13.739  65.326  1.00  0.00    -0.672 NA 
HETATM    3  C   UNL     1     -12.211  12.412  65.006  1.00  0.00    -0.399 C  
ENDROOT
BRANCH   2   4
HETATM    4  C   UNL     1     -12.266  14.245  66.635  1.00  0.00    -0.381 C  
BRANCH   4   5
HETATM    5  C   UNL     1     -10.818  14.751  66.578  1.00  0.00    -0.319 C  
BRANCH   5   6
HETATM    6  O   UNL     1     -10.618  15.963  67.311  1.00  0.00    -0.306 OA 
BRANCH   6   7
HETATM    7  C   UNL     1      -9.643  16.764  66.799  1.00  0.00    -0.249 C  
HETATM    8  C   UNL     1      -8.594  17.067  67.870  1.00  0.00    -0.207 C  
HETATM    9  O   UNL     1      -9.663  17.244  65.674  1.00  0.00    -0.535 OA 
HETATM   10  C   UNL     1      -7.840  15.826  68.347  1.00  0.00    -0.136 A  
HETATM   11  C   UNL     1      -7.667  18.245  67.445  1.00  0.00    -0.218 C  
HETATM   12  O   UNL     1      -6.901  17.907  66.284  1.00  0.00    -0.212 OA 
HETATM   13  C   UNL     1      -7.503  14.780  67.477  1.00  0.00    -0.221 A  
HETATM   14  C   UNL     1      -8.420  19.560  67.171  1.00  0.00    -0.329 C  
HETATM   15  C   UNL     1      -7.324  20.621  67.225  1.00  0.00    -0.394 C  
HETATM   16  H   UNL     1      -6.336  18.625  66.024  1.00  0.00     0.000 HD 
HETATM   17  C   UNL     1      -6.771  13.684  67.940  1.00  0.00    -0.156 A  
HETATM   18  C   UNL     1      -6.348  13.629  69.268  1.00  0.00    -0.108 A  
HETATM   19  C   UNL     1      -6.407  20.168  68.350  1.00  0.00    -0.326 C  
HETATM   20  C   UNL     1      -6.684  18.676  68.554  1.00  0.00    -0.274 C  
HETATM   21  C   UNL     1      -6.679  14.657  70.142  1.00  0.00    -0.106 A  
HETATM   22  C   UNL     1      -7.435  15.736  69.690  1.00  0.00    -0.100 A  
ENDBRANCH   6   7
ENDBRANCH   5   6
ENDBRANCH   4   5
ENDBRANCH   2   4
TORSDOF 4
ENDMDL
MODEL       68
REMARK 921   NORMALIZED FREE ENERGY PREDICTED BY IDOCK:   -4.74 KCAL/MOL
REMARK 922        TOTAL FREE ENERGY PREDICTED BY IDOCK:   -6.15 KCAL/MOL
REMARK 923 INTER-LIGAND FREE ENERGY PREDICTED BY IDOCK:   -5.88 KCAL/MOL
REMARK 924 INTRA-LIGAND FREE ENERGY PREDICTED BY IDOCK:   -0.27 KCAL/MOL
REMARK 927      BINDING AFFINITY PREDICTED BY RF-SCORE:    0.00 PKD
ROOT
HETATM    1  C   UNL     1      -9.508   9.959  64.589  1.00  0.00    -0.278 C  
HETATM    2  N   UNL     1      -9.720  11.243  63.922  1.00  0.00    -0.259 NA 
HETATM    3  C   UNL     1      -9.409  11.113  62.494  1.00  0.00    -0.231 C  
ENDROOT
BRANCH   2   4
HETATM    4  C   UNL     1     -11.100  11.735  64.159  1.00  0.00    -0.374 C  
BRANCH   4   5
HETATM    5  C   UNL     1     -11.192  13.267  64.147  1.00  0.00    -0.379 C  
BRANCH   5   6
HETATM    6  O   UNL     1     -11.949  13.791  65.242  1.00  0.00    -0.341 OA 
BRANCH   6   7
HETATM    7  C   UNL     1     -11.528  13.357  66.462  1.00  0.00    -0.341 C  
HETATM    8  C   UNL     1     -10.081  13.790  66.704  1.00  0.00    -0.277 C  
HETATM    9  O   UNL     1     -12.186  12.643  67.207  1.00  0.00    -0.425 OA 
HETATM   10  C   UNL     1      -9.908  15.307  66.772  1.00  0.00    -0.246 A  
HETATM   11  C   UNL     1      -9.450  13.027  67.908  1.00  0.00    -0.219 C  
HETATM   12  O   UNL     1     -10.125  13.343  69.130  1.00  0.00    -0.427 OA 
HETATM   13  C   UNL     1     -10.873  16.142  67.350  1.00  0.00    -0.265 A  
HETATM   14  C   UNL     1      -9.437  11.498  67.735  1.00  0.00    -0.168 C  
HETATM   15  C   UNL     1      -8.412  11.028  68.764  1.00  0.00    -0.144 C  
HETATM   16  H   UNL     1      -9.741  12.878  69.864  1.00  0.00     0.000 HD 
HETATM   17  C   UNL     1     -10.656  17.520  67.437  1.00  0.00    -0.311 A  
HETATM   18  C   UNL     1      -9.466  18.076  66.969  1.00  0.00    -0.273 A  
HETATM   19  C   UNL     1      -7.318  12.084  68.726  1.00  0.00    -0.098 C  
HETATM   20  C   UNL     1      -7.950  13.331  68.101  1.00  0.00    -0.150 C  
HETATM   21  C   UNL     1      -8.502  17.261  66.389  1.00  0.00    -0.304 A  
HETATM   22  C   UNL     1      -8.729  15.891  66.274  1.00  0.00    -0.372 A  
ENDBRANCH   6   7
ENDBRANCH   5   6
ENDBRANCH   4   5
ENDBRANCH   2   4
TORSDOF 4
ENDMDL
MODEL       69
REMARK 921   NORMALIZED FREE ENERGY PREDICTED BY IDOCK:   -4.72 KCAL/MOL
REMARK 922        TOTAL FREE ENERGY PREDICTED BY IDOCK:   -6.13 KCAL/MOL
REMARK 923 INTER-LIGAND FREE ENERGY PREDICTED BY IDOCK:   -5.62 KCAL/MOL
REMARK 924 INTRA-LIGAND FREE ENERGY PREDICTED BY IDOCK:   -0.51 KCAL/MOL
REMARK 927      BINDING AFFINITY PREDICTED BY RF-SCORE:    0.00 PKD
ROOT
HETATM    1  C   UNL     1      -6.318  11.131  66.946  1.00  0.00    -0.114 C  
HETATM    2  N   UNL     1      -7.749  10.987  66.676  1.00  0.00    -0.148 NA 
HETATM    3  C   UNL     1      -7.940  10.317  65.385  1.00  0.00    -0.148 C  
ENDROOT
BRANCH   2   4
HETATM    4  C   UNL     1      -8.423  10.276  67.790  1.00  0.00    -0.114 C  
BRANCH   4   5
HETATM    5  C   UNL     1      -9.129  11.231  68.761  1.00  0.00    -0.116 C  
BRANCH   5   6
HETATM    6  O   UNL     1     -10.556  11.167  68.671  1.00  0.00    -0.175 OA 
BRANCH   6   7
HETATM    7  C   UNL     1     -11.177  12.360  68.883  1.00  0.00    -0.280 C  
HETATM    8  C   UNL     1     -10.656  13.407  67.897  1.00  0.00    -0.253 C  
HETATM    9  O   UNL     1     -11.964  12.578  69.794  1.00  0.00    -0.314 OA 
HETATM   10  C   UNL     1     -10.977  13.078  66.440  1.00  0.00    -0.301 A  
HETATM   11  C   UNL     1     -11.066  14.849  68.325  1.00  0.00    -0.282 C  
HETATM   12  O   UNL     1     -12.488  15.011  68.297  1.00  0.00    -0.496 OA 
HETATM   13  C   UNL     1     -12.180  12.467  66.062  1.00  0.00    -0.263 A  
HETATM   14  C   UNL     1     -10.552  15.252  69.720  1.00  0.00    -0.293 C  
HETATM   15  C   UNL     1     -10.672  16.774  69.722  1.00  0.00    -0.187 C  
HETATM   16  H   UNL     1     -12.738  15.890  68.558  1.00  0.00     0.000 HD 
HETATM   17  C   UNL     1     -12.458  12.226  64.714  1.00  0.00    -0.385 A  
HETATM   18  C   UNL     1     -11.551  12.612  63.728  1.00  0.00    -0.550 A  
HETATM   19  C   UNL     1     -10.280  17.192  68.313  1.00  0.00    -0.334 C  
HETATM   20  C   UNL     1     -10.444  15.947  67.436  1.00  0.00    -0.306 C  
HETATM   21  C   UNL     1     -10.353  13.216  64.088  1.00  0.00    -0.286 A  
HETATM   22  C   UNL     1     -10.059  13.429  65.434  1.00  0.00    -0.270 A  
ENDBRANCH   6   7
ENDBRANCH   5   6
ENDBRANCH   4   5
ENDBRANCH   2   4
TORSDOF 4
ENDMDL
MODEL       70
REMARK 921   NORMALIZED FREE ENERGY PREDICTED BY IDOCK:   -4.71 KCAL/MOL
REMARK 922        TOTAL FREE ENERGY PREDICTED BY IDOCK:   -6.12 KCAL/MOL
REMARK 923 INTER-LIGAND FREE ENERGY PREDICTED BY IDOCK:   -5.80 KCAL/MOL
REMARK 924 INTRA-LIGAND FREE ENERGY PREDICTED BY IDOCK:   -0.32 KCAL/MOL
REMARK 927      BINDING AFFINITY PREDICTED BY RF-SCORE:    0.00 PKD
ROOT
HETATM    1  C   UNL     1     -13.797  13.829  72.368  1.00  0.00    -0.579 C  
HETATM    2  N   UNL     1     -13.291  14.405  71.122  1.00  0.00    -0.351 NA 
HETATM    3  C   UNL     1     -12.667  15.703  71.399  1.00  0.00    -0.471 C  
ENDROOT
BRANCH   2   4
HETATM    4  C   UNL     1     -12.365  13.462  70.448  1.00  0.00    -0.312 C  
BRANCH   4   5
HETATM    5  C   UNL     1     -12.425  12.047  71.041  1.00  0.00    -0.276 C  
BRANCH   5   6
HETATM    6  O   UNL     1     -12.374  11.020  70.045  1.00  0.00    -0.320 OA 
BRANCH   6   7
HETATM    7  C   UNL     1     -11.535   9.994  70.354  1.00  0.00    -0.314 C  
HETATM    8  C   UNL     1     -11.154   9.227  69.087  1.00  0.00    -0.002 C  
HETATM    9  O   UNL     1     -11.216   9.680  71.493  1.00  0.00    -0.372 OA 
HETATM   10  C   UNL     1     -10.358  10.067  68.088  1.00  0.00    -0.228 A  
HETATM   11  C   UNL     1     -10.495   7.855  69.425  1.00  0.00    -0.220 C  
HETATM   12  O   UNL     1      -9.255   8.035  70.119  1.00  0.00    -0.151 OA 
HETATM   13  C   UNL     1      -9.418  11.021  68.500  1.00  0.00    -0.188 A  
HETATM   14  C   UNL     1     -11.394   6.924  70.258  1.00  0.00    -0.373 C  
HETATM   15  C   UNL     1     -10.756   5.550  70.076  1.00  0.00    -0.356 C  
HETATM   16  H   UNL     1      -8.854   7.199  70.325  1.00  0.00     0.000 HD 
HETATM   17  C   UNL     1      -8.675  11.735  67.557  1.00  0.00    -0.159 A  
HETATM   18  C   UNL     1      -8.845  11.491  66.195  1.00  0.00    -0.167 A  
HETATM   19  C   UNL     1     -10.304   5.526  68.624  1.00  0.00    -0.255 C  
HETATM   20  C   UNL     1     -10.221   6.989  68.178  1.00  0.00    -0.211 C  
HETATM   21  C   UNL     1      -9.776  10.551  65.771  1.00  0.00    -0.277 A  
HETATM   22  C   UNL     1     -10.540   9.859  66.710  1.00  0.00    -0.214 A  
ENDBRANCH   6   7
ENDBRANCH   5   6
ENDBRANCH   4   5
ENDBRANCH   2   4
TORSDOF 4
ENDMDL
MODEL       71
REMARK 921   NORMALIZED FREE ENERGY PREDICTED BY IDOCK:   -4.69 KCAL/MOL
REMARK 922        TOTAL FREE ENERGY PREDICTED BY IDOCK:   -6.09 KCAL/MOL
REMARK 923 INTER-LIGAND FREE ENERGY PREDICTED BY IDOCK:   -5.80 KCAL/MOL
REMARK 924 INTRA-LIGAND FREE ENERGY PREDICTED BY IDOCK:   -0.29 KCAL/MOL
REMARK 927      BINDING AFFINITY PREDICTED BY RF-SCORE:    0.00 PKD
ROOT
HETATM    1  C   UNL     1      -9.769  18.824  68.893  1.00  0.00    -0.344 C  
HETATM    2  N   UNL     1     -10.200  18.259  67.614  1.00  0.00    -0.362 NA 
HETATM    3  C   UNL     1      -9.104  18.346  66.644  1.00  0.00    -0.297 C  
ENDROOT
BRANCH   2   4
HETATM    4  C   UNL     1     -10.690  16.870  67.794  1.00  0.00    -0.315 C  
BRANCH   4   5
HETATM    5  C   UNL     1     -10.648  16.055  66.495  1.00  0.00    -0.284 C  
BRANCH   5   6
HETATM    6  O   UNL     1     -10.106  14.743  66.674  1.00  0.00    -0.253 OA 
BRANCH   6   7
HETATM    7  C   UNL     1     -10.575  13.825  65.784  1.00  0.00    -0.293 C  
HETATM    8  C   UNL     1      -9.961  12.454  66.070  1.00  0.00    -0.270 C  
HETATM    9  O   UNL     1     -11.306  14.089  64.840  1.00  0.00    -0.327 OA 
HETATM   10  C   UNL     1     -10.359  11.884  67.432  1.00  0.00    -0.228 A  
HETATM   11  C   UNL     1     -10.186  11.469  64.883  1.00  0.00    -0.275 C  
HETATM   12  O   UNL     1     -11.580  11.201  64.691  1.00  0.00     0.062 OA 
HETATM   13  C   UNL     1     -11.635  12.078  67.976  1.00  0.00    -0.407 A  
HETATM   14  C   UNL     1      -9.592  11.957  63.550  1.00  0.00    -0.197 C  
HETATM   15  C   UNL     1      -9.531  10.692  62.698  1.00  0.00    -0.332 C  
HETATM   16  H   UNL     1     -11.717  10.601  63.968  1.00  0.00     0.000 HD 
HETATM   17  C   UNL     1     -11.976  11.502  69.202  1.00  0.00    -0.386 A  
HETATM   18  C   UNL     1     -11.057  10.708  69.887  1.00  0.00    -0.364 A  
HETATM   19  C   UNL     1      -9.130   9.593  63.669  1.00  0.00    -0.214 C  
HETATM   20  C   UNL     1      -9.464  10.117  65.069  1.00  0.00    -0.330 C  
HETATM   21  C   UNL     1      -9.786  10.510  69.361  1.00  0.00    -0.205 A  
HETATM   22  C   UNL     1      -9.434  11.110  68.154  1.00  0.00    -0.180 A  
ENDBRANCH   6   7
ENDBRANCH   5   6
ENDBRANCH   4   5
ENDBRANCH   2   4
TORSDOF 4
ENDMDL
MODEL       72
REMARK 921   NORMALIZED FREE ENERGY PREDICTED BY IDOCK:   -4.61 KCAL/MOL
REMARK 922        TOTAL FREE ENERGY PREDICTED BY IDOCK:   -5.99 KCAL/MOL
REMARK 923 INTER-LIGAND FREE ENERGY PREDICTED BY IDOCK:   -5.80 KCAL/MOL
REMARK 924 INTRA-LIGAND FREE ENERGY PREDICTED BY IDOCK:   -0.19 KCAL/MOL
REMARK 927      BINDING AFFINITY PREDICTED BY RF-SCORE:    0.00 PKD
ROOT
HETATM    1  C   UNL     1      -8.950  15.656  68.753  1.00  0.00    -0.205 C  
HETATM    2  N   UNL     1     -10.301  15.110  68.886  1.00  0.00    -0.235 NA 
HETATM    3  C   UNL     1     -11.275  16.207  68.906  1.00  0.00    -0.351 C  
ENDROOT
BRANCH   2   4
HETATM    4  C   UNL     1     -10.576  14.127  67.810  1.00  0.00    -0.243 C  
BRANCH   4   5
HETATM    5  C   UNL     1     -12.003  13.564  67.873  1.00  0.00    -0.337 C  
BRANCH   5   6
HETATM    6  O   UNL     1     -12.038  12.135  67.948  1.00  0.00    -0.502 OA 
BRANCH   6   7
HETATM    7  C   UNL     1     -11.579  11.633  69.127  1.00  0.00    -0.314 C  
HETATM    8  C   UNL     1     -11.369  10.122  69.010  1.00  0.00    -0.188 C  
HETATM    9  O   UNL     1     -11.450  12.287  70.153  1.00  0.00    -0.149 OA 
HETATM   10  C   UNL     1     -10.288   9.739  67.999  1.00  0.00    -0.250 A  
HETATM   11  C   UNL     1     -11.190   9.460  70.409  1.00  0.00    -0.262 C  
HETATM   12  O   UNL     1     -10.005   9.934  71.057  1.00  0.00    -0.285 OA 
HETATM   13  C   UNL     1      -9.129  10.507  67.822  1.00  0.00    -0.140 A  
HETATM   14  C   UNL     1     -12.386   9.673  71.354  1.00  0.00    -0.468 C  
HETATM   15  C   UNL     1     -12.193   8.604  72.427  1.00  0.00    -0.419 C  
HETATM   16  H   UNL     1      -9.896   9.530  71.910  1.00  0.00     0.000 HD 
HETATM   17  C   UNL     1      -8.141  10.098  66.923  1.00  0.00    -0.121 A  
HETATM   18  C   UNL     1      -8.287   8.909  66.209  1.00  0.00    -0.119 A  
HETATM   19  C   UNL     1     -11.674   7.391  71.671  1.00  0.00    -0.311 C  
HETATM   20  C   UNL     1     -11.114   7.920  70.347  1.00  0.00    -0.249 C  
HETATM   21  C   UNL     1      -9.432   8.140  66.372  1.00  0.00    -0.285 A  
HETATM   22  C   UNL     1     -10.433   8.562  67.245  1.00  0.00    -0.366 A  
ENDBRANCH   6   7
ENDBRANCH   5   6
ENDBRANCH   4   5
ENDBRANCH   2   4
TORSDOF 4
ENDMDL
MODEL       73
REMARK 921   NORMALIZED FREE ENERGY PREDICTED BY IDOCK:   -4.60 KCAL/MOL
REMARK 922        TOTAL FREE ENERGY PREDICTED BY IDOCK:   -5.99 KCAL/MOL
REMARK 923 INTER-LIGAND FREE ENERGY PREDICTED BY IDOCK:   -5.42 KCAL/MOL
REMARK 924 INTRA-LIGAND FREE ENERGY PREDICTED BY IDOCK:   -0.56 KCAL/MOL
REMARK 927      BINDING AFFINITY PREDICTED BY RF-SCORE:    0.00 PKD
ROOT
HETATM    1  C   UNL     1      -8.485  12.139  67.231  1.00  0.00    -0.178 C  
HETATM    2  N   UNL     1      -7.549  12.635  68.239  1.00  0.00    -0.125 NA 
HETATM    3  C   UNL     1      -7.090  11.521  69.075  1.00  0.00    -0.115 C  
ENDROOT
BRANCH   2   4
HETATM    4  C   UNL     1      -6.427  13.364  67.598  1.00  0.00    -0.162 C  
BRANCH   4   5
HETATM    5  C   UNL     1      -6.501  14.880  67.820  1.00  0.00    -0.164 C  
BRANCH   5   6
HETATM    6  O   UNL     1      -7.207  15.238  69.013  1.00  0.00    -0.127 OA 
BRANCH   6   7
HETATM    7  C   UNL     1      -7.752  16.485  68.979  1.00  0.00    -0.228 C  
HETATM    8  C   UNL     1      -9.015  16.484  68.116  1.00  0.00    -0.207 C  
HETATM    9  O   UNL     1      -7.245  17.476  69.487  1.00  0.00    -0.070 OA 
HETATM   10  C   UNL     1     -10.133  15.607  68.682  1.00  0.00    -0.210 A  
HETATM   11  C   UNL     1      -9.467  17.933  67.761  1.00  0.00    -0.263 C  
HETATM   12  O   UNL     1      -9.840  18.660  68.936  1.00  0.00    -0.382 OA 
HETATM   13  C   UNL     1     -10.364  15.493  70.059  1.00  0.00    -0.315 A  
HETATM   14  C   UNL     1      -8.404  18.744  66.998  1.00  0.00    -0.280 C  
HETATM   15  C   UNL     1      -9.200  19.895  66.388  1.00  0.00    -0.470 C  
HETATM   16  H   UNL     1     -10.115  19.543  68.720  1.00  0.00     0.000 HD 
HETATM   17  C   UNL     1     -11.426  14.720  70.536  1.00  0.00    -0.300 A  
HETATM   18  C   UNL     1     -12.281  14.072  69.646  1.00  0.00    -0.383 A  
HETATM   19  C   UNL     1     -10.522  19.270  65.972  1.00  0.00    -0.573 C  
HETATM   20  C   UNL     1     -10.656  17.975  66.778  1.00  0.00    -0.281 C  
HETATM   21  C   UNL     1     -12.061  14.173  68.277  1.00  0.00    -0.297 A  
HETATM   22  C   UNL     1     -10.984  14.918  67.801  1.00  0.00    -0.294 A  
ENDBRANCH   6   7
ENDBRANCH   5   6
ENDBRANCH   4   5
ENDBRANCH   2   4
TORSDOF 4
ENDMDL
MODEL       74
REMARK 921   NORMALIZED FREE ENERGY PREDICTED BY IDOCK:   -4.59 KCAL/MOL
REMARK 922        TOTAL FREE ENERGY PREDICTED BY IDOCK:   -5.97 KCAL/MOL
REMARK 923 INTER-LIGAND FREE ENERGY PREDICTED BY IDOCK:   -5.35 KCAL/MOL
REMARK 924 INTRA-LIGAND FREE ENERGY PREDICTED BY IDOCK:   -0.62 KCAL/MOL
REMARK 927      BINDING AFFINITY PREDICTED BY RF-SCORE:    0.00 PKD
ROOT
HETATM    1  C   UNL     1     -10.040  17.807  68.325  1.00  0.00    -0.371 C  
HETATM    2  N   UNL     1      -9.592  16.605  67.622  1.00  0.00    -0.237 NA 
HETATM    3  C   UNL     1      -9.766  16.787  66.177  1.00  0.00    -0.291 C  
ENDROOT
BRANCH   2   4
HETATM    4  C   UNL     1      -8.193  16.275  67.989  1.00  0.00    -0.156 C  
BRANCH   4   5
HETATM    5  C   UNL     1      -8.019  14.805  68.396  1.00  0.00    -0.138 C  
BRANCH   5   6
HETATM    6  O   UNL     1      -7.857  13.929  67.276  1.00  0.00    -0.175 OA 
BRANCH   6   7
HETATM    7  C   UNL     1      -8.283  12.657  67.505  1.00  0.00    -0.178 C  
HETATM    8  C   UNL     1      -9.794  12.642  67.740  1.00  0.00    -0.212 C  
HETATM    9  O   UNL     1      -7.544  11.687  67.602  1.00  0.00    -0.114 OA 
HETATM   10  C   UNL     1     -10.600  13.088  66.519  1.00  0.00    -0.292 A  
HETATM   11  C   UNL     1     -10.265  11.286  68.347  1.00  0.00    -0.195 C  
HETATM   12  O   UNL     1     -10.037  10.205  67.437  1.00  0.00    -0.185 OA 
HETATM   13  C   UNL     1     -10.208  12.771  65.212  1.00  0.00    -0.296 A  
HETATM   14  C   UNL     1      -9.600  10.945  69.693  1.00  0.00     0.259 C  
HETATM   15  C   UNL     1     -10.509   9.870  70.282  1.00  0.00    -0.348 C  
HETATM   16  H   UNL     1     -10.323   9.378  67.807  1.00  0.00     0.000 HD 
HETATM   17  C   UNL     1     -10.997  13.155  64.125  1.00  0.00    -0.418 A  
HETATM   18  C   UNL     1     -12.195  13.838  64.330  1.00  0.00    -0.440 A  
HETATM   19  C   UNL     1     -11.916  10.308  69.904  1.00  0.00    -0.222 C  
HETATM   20  C   UNL     1     -11.761  11.278  68.729  1.00  0.00    -0.405 C  
HETATM   21  C   UNL     1     -12.594  14.163  65.621  1.00  0.00    -0.495 A  
HETATM   22  C   UNL     1     -11.794  13.808  66.705  1.00  0.00    -0.445 A  
ENDBRANCH   6   7
ENDBRANCH   5   6
ENDBRANCH   4   5
ENDBRANCH   2   4
TORSDOF 4
ENDMDL
MODEL       75
REMARK 921   NORMALIZED FREE ENERGY PREDICTED BY IDOCK:   -4.57 KCAL/MOL
REMARK 922        TOTAL FREE ENERGY PREDICTED BY IDOCK:   -5.94 KCAL/MOL
REMARK 923 INTER-LIGAND FREE ENERGY PREDICTED BY IDOCK:   -5.51 KCAL/MOL
REMARK 924 INTRA-LIGAND FREE ENERGY PREDICTED BY IDOCK:   -0.44 KCAL/MOL
REMARK 927      BINDING AFFINITY PREDICTED BY RF-SCORE:    0.00 PKD
ROOT
HETATM    1  C   UNL     1     -10.523  19.435  67.470  1.00  0.00    -0.462 C  
HETATM    2  N   UNL     1      -9.304  19.491  66.663  1.00  0.00    -0.338 NA 
HETATM    3  C   UNL     1      -8.226  20.105  67.444  1.00  0.00    -0.340 C  
ENDROOT
BRANCH   2   4
HETATM    4  C   UNL     1      -8.945  18.141  66.163  1.00  0.00    -0.091 C  
BRANCH   4   5
HETATM    5  C   UNL     1      -7.844  17.473  66.997  1.00  0.00    -0.214 C  
BRANCH   5   6
HETATM    6  O   UNL     1      -8.331  16.406  67.816  1.00  0.00    -0.163 OA 
BRANCH   6   7
HETATM    7  C   UNL     1      -7.774  15.196  67.534  1.00  0.00    -0.181 C  
HETATM    8  C   UNL     1      -8.769  14.075  67.837  1.00  0.00    -0.184 C  
HETATM    9  O   UNL     1      -6.613  15.034  67.182  1.00  0.00    -0.281 OA 
HETATM   10  C   UNL     1     -10.018  14.120  66.957  1.00  0.00    -0.260 A  
HETATM   11  C   UNL     1      -8.069  12.682  67.870  1.00  0.00    -0.165 C  
HETATM   12  O   UNL     1      -7.533  12.344  66.586  1.00  0.00    -0.376 OA 
HETATM   13  C   UNL     1      -9.967  14.509  65.612  1.00  0.00    -0.376 A  
HETATM   14  C   UNL     1      -6.944  12.578  68.915  1.00  0.00    -0.088 C  
HETATM   15  C   UNL     1      -6.738  11.074  69.073  1.00  0.00    -0.074 C  
HETATM   16  H   UNL     1      -7.106  11.495  66.606  1.00  0.00     0.000 HD 
HETATM   17  C   UNL     1     -11.123  14.492  64.827  1.00  0.00    -0.400 A  
HETATM   18  C   UNL     1     -12.335  14.065  65.367  1.00  0.00    -0.495 A  
HETATM   19  C   UNL     1      -8.137  10.484  68.995  1.00  0.00    -0.143 C  
HETATM   20  C   UNL     1      -9.009  11.540  68.309  1.00  0.00    -0.177 C  
HETATM   21  C   UNL     1     -12.402  13.681  66.700  1.00  0.00    -0.381 A  
HETATM   22  C   UNL     1     -11.257  13.727  67.494  1.00  0.00    -0.316 A  
ENDBRANCH   6   7
ENDBRANCH   5   6
ENDBRANCH   4   5
ENDBRANCH   2   4
TORSDOF 4
ENDMDL
MODEL       76
REMARK 921   NORMALIZED FREE ENERGY PREDICTED BY IDOCK:   -4.56 KCAL/MOL
REMARK 922        TOTAL FREE ENERGY PREDICTED BY IDOCK:   -5.94 KCAL/MOL
REMARK 923 INTER-LIGAND FREE ENERGY PREDICTED BY IDOCK:   -5.64 KCAL/MOL
REMARK 924 INTRA-LIGAND FREE ENERGY PREDICTED BY IDOCK:   -0.30 KCAL/MOL
REMARK 927      BINDING AFFINITY PREDICTED BY RF-SCORE:    0.00 PKD
ROOT
HETATM    1  C   UNL     1      -9.852   4.182  64.724  1.00  0.00    -0.188 C  
HETATM    2  N   UNL     1      -9.504   4.769  66.017  1.00  0.00    -0.153 NA 
HETATM    3  C   UNL     1      -8.426   5.748  65.838  1.00  0.00    -0.139 C  
ENDROOT
BRANCH   2   4
HETATM    4  C   UNL     1     -10.702   5.357  66.665  1.00  0.00    -0.236 C  
BRANCH   4   5
HETATM    5  C   UNL     1     -10.349   6.447  67.686  1.00  0.00    -0.197 C  
BRANCH   5   6
HETATM    6  O   UNL     1     -11.280   6.524  68.769  1.00  0.00    -0.293 OA 
BRANCH   6   7
HETATM    7  C   UNL     1     -10.780   6.092  69.959  1.00  0.00    -0.311 C  
HETATM    8  C   UNL     1     -10.546   7.280  70.894  1.00  0.00    -0.234 C  
HETATM    9  O   UNL     1     -10.474   4.932  70.201  1.00  0.00    -0.244 OA 
HETATM   10  C   UNL     1     -11.833   8.010  71.278  1.00  0.00    -0.321 A  
HETATM   11  C   UNL     1      -9.657   6.883  72.111  1.00  0.00    -0.144 C  
HETATM   12  O   UNL     1     -10.311   5.908  72.932  1.00  0.00    -0.185 OA 
HETATM   13  C   UNL     1     -13.041   7.330  71.486  1.00  0.00    -0.434 A  
HETATM   14  C   UNL     1      -8.270   6.343  71.717  1.00  0.00    -0.113 C  
HETATM   15  C   UNL     1      -7.461   6.457  73.006  1.00  0.00    -0.094 C  
HETATM   16  H   UNL     1      -9.769   5.666  73.674  1.00  0.00     0.000 HD 
HETATM   17  C   UNL     1     -14.184   8.027  71.883  1.00  0.00    -0.514 A  
HETATM   18  C   UNL     1     -14.132   9.403  72.099  1.00  0.00    -0.282 A  
HETATM   19  C   UNL     1      -7.923   7.760  73.637  1.00  0.00    -0.215 C  
HETATM   20  C   UNL     1      -9.281   8.082  73.007  1.00  0.00    -0.337 C  
HETATM   21  C   UNL     1     -12.942  10.091  71.892  1.00  0.00    -0.547 A  
HETATM   22  C   UNL     1     -11.808   9.403  71.466  1.00  0.00    -0.456 A  
ENDBRANCH   6   7
ENDBRANCH   5   6
ENDBRANCH   4   5
ENDBRANCH   2   4
TORSDOF 4
ENDMDL
MODEL       77
REMARK 921   NORMALIZED FREE ENERGY PREDICTED BY IDOCK:   -4.55 KCAL/MOL
REMARK 922        TOTAL FREE ENERGY PREDICTED BY IDOCK:   -5.92 KCAL/MOL
REMARK 923 INTER-LIGAND FREE ENERGY PREDICTED BY IDOCK:   -5.33 KCAL/MOL
REMARK 924 INTRA-LIGAND FREE ENERGY PREDICTED BY IDOCK:   -0.59 KCAL/MOL
REMARK 927      BINDING AFFINITY PREDICTED BY RF-SCORE:    0.00 PKD
ROOT
HETATM    1  C   UNL     1     -10.807  12.470  63.577  1.00  0.00    -0.397 C  
HETATM    2  N   UNL     1     -12.176  12.936  63.361  1.00  0.00    -0.669 NA 
HETATM    3  C   UNL     1     -13.120  11.975  63.940  1.00  0.00    -0.041 C  
ENDROOT
BRANCH   2   4
HETATM    4  C   UNL     1     -12.355  14.305  63.904  1.00  0.00    -0.133 C  
BRANCH   4   5
HETATM    5  C   UNL     1     -11.061  14.882  64.493  1.00  0.00    -0.235 C  
BRANCH   5   6
HETATM    6  O   UNL     1     -11.248  15.481  65.779  1.00  0.00    -0.259 OA 
BRANCH   6   7
HETATM    7  C   UNL     1     -11.447  14.582  66.783  1.00  0.00    -0.367 C  
HETATM    8  C   UNL     1     -10.153  13.818  67.069  1.00  0.00    -0.256 C  
HETATM    9  O   UNL     1     -12.530  14.359  67.306  1.00  0.00    -0.211 OA 
HETATM   10  C   UNL     1      -9.026  14.711  67.590  1.00  0.00    -0.187 A  
HETATM   11  C   UNL     1     -10.416  12.556  67.945  1.00  0.00    -0.217 C  
HETATM   12  O   UNL     1     -10.908  12.920  69.239  1.00  0.00    -0.420 OA 
HETATM   13  C   UNL     1      -9.269  15.792  68.447  1.00  0.00    -0.192 A  
HETATM   14  C   UNL     1     -11.397  11.554  67.310  1.00  0.00    -0.359 C  
HETATM   15  C   UNL     1     -11.149  10.265  68.089  1.00  0.00    -0.324 C  
HETATM   16  H   UNL     1     -11.069  12.151  69.774  1.00  0.00     0.000 HD 
HETATM   17  C   UNL     1      -8.208  16.555  68.940  1.00  0.00    -0.241 A  
HETATM   18  C   UNL     1      -6.893  16.235  68.603  1.00  0.00    -0.141 A  
HETATM   19  C   UNL     1      -9.646  10.239  68.319  1.00  0.00    -0.151 C  
HETATM   20  C   UNL     1      -9.161  11.680  68.142  1.00  0.00    -0.184 C  
HETATM   21  C   UNL     1      -6.638  15.168  67.750  1.00  0.00    -0.186 A  
HETATM   22  C   UNL     1      -7.697  14.424  67.232  1.00  0.00    -0.164 A  
ENDBRANCH   6   7
ENDBRANCH   5   6
ENDBRANCH   4   5
ENDBRANCH   2   4
TORSDOF 4
ENDMDL
MODEL       78
REMARK 921   NORMALIZED FREE ENERGY PREDICTED BY IDOCK:   -4.54 KCAL/MOL
REMARK 922        TOTAL FREE ENERGY PREDICTED BY IDOCK:   -5.90 KCAL/MOL
REMARK 923 INTER-LIGAND FREE ENERGY PREDICTED BY IDOCK:   -5.43 KCAL/MOL
REMARK 924 INTRA-LIGAND FREE ENERGY PREDICTED BY IDOCK:   -0.47 KCAL/MOL
REMARK 927      BINDING AFFINITY PREDICTED BY RF-SCORE:    0.00 PKD
ROOT
HETATM    1  C   UNL     1      -6.685   8.640  69.505  1.00  0.00    -0.040 C  
HETATM    2  N   UNL     1      -6.459   7.929  68.248  1.00  0.00    -0.053 NA 
HETATM    3  C   UNL     1      -7.427   6.835  68.120  1.00  0.00    -0.099 C  
ENDROOT
BRANCH   2   4
HETATM    4  C   UNL     1      -6.507   8.867  67.100  1.00  0.00    -0.061 C  
BRANCH   4   5
HETATM    5  C   UNL     1      -7.065  10.244  67.483  1.00  0.00    -0.086 C  
BRANCH   5   6
HETATM    6  O   UNL     1      -8.160  10.655  66.659  1.00  0.00    -0.126 OA 
BRANCH   6   7
HETATM    7  C   UNL     1      -9.384  10.396  67.198  1.00  0.00    -0.157 C  
HETATM    8  C   UNL     1      -9.974  11.673  67.799  1.00  0.00    -0.191 C  
HETATM    9  O   UNL     1      -9.886   9.283  67.272  1.00  0.00    -0.161 OA 
HETATM   10  C   UNL     1     -10.250  12.759  66.760  1.00  0.00    -0.245 A  
HETATM   11  C   UNL     1     -11.188  11.361  68.725  1.00  0.00    -0.247 C  
HETATM   12  O   UNL     1     -12.269  10.785  67.982  1.00  0.00    -0.659 OA 
HETATM   13  C   UNL     1     -10.704  12.456  65.469  1.00  0.00    -0.315 A  
HETATM   14  C   UNL     1     -10.848  10.428  69.901  1.00  0.00    -0.353 C  
HETATM   15  C   UNL     1     -12.010  10.632  70.870  1.00  0.00    -0.469 C  
HETATM   16  H   UNL     1     -13.009  10.594  68.547  1.00  0.00     0.000 HD 
HETATM   17  C   UNL     1     -10.991  13.480  64.562  1.00  0.00    -0.405 A  
HETATM   18  C   UNL     1     -10.852  14.814  64.939  1.00  0.00    -0.433 A  
HETATM   19  C   UNL     1     -12.325  12.117  70.784  1.00  0.00    -0.391 C  
HETATM   20  C   UNL     1     -11.728  12.605  69.461  1.00  0.00    -0.374 C  
HETATM   21  C   UNL     1     -10.399  15.130  66.214  1.00  0.00    -0.303 A  
HETATM   22  C   UNL     1     -10.082  14.111  67.110  1.00  0.00    -0.258 A  
ENDBRANCH   6   7
ENDBRANCH   5   6
ENDBRANCH   4   5
ENDBRANCH   2   4
TORSDOF 4
ENDMDL
MODEL       79
REMARK 921   NORMALIZED FREE ENERGY PREDICTED BY IDOCK:   -4.54 KCAL/MOL
REMARK 922        TOTAL FREE ENERGY PREDICTED BY IDOCK:   -5.90 KCAL/MOL
REMARK 923 INTER-LIGAND FREE ENERGY PREDICTED BY IDOCK:   -5.44 KCAL/MOL
REMARK 924 INTRA-LIGAND FREE ENERGY PREDICTED BY IDOCK:   -0.46 KCAL/MOL
REMARK 927      BINDING AFFINITY PREDICTED BY RF-SCORE:    0.00 PKD
ROOT
HETATM    1  C   UNL     1      -5.888  13.857  70.553  1.00  0.00    -0.178 C  
HETATM    2  N   UNL     1      -5.462  12.624  69.892  1.00  0.00    -0.094 NA 
HETATM    3  C   UNL     1      -6.102  11.473  70.538  1.00  0.00    -0.021 C  
ENDROOT
BRANCH   2   4
HETATM    4  C   UNL     1      -5.743  12.686  68.437  1.00  0.00    -0.060 C  
BRANCH   4   5
HETATM    5  C   UNL     1      -7.243  12.769  68.126  1.00  0.00    -0.115 C  
BRANCH   5   6
HETATM    6  O   UNL     1      -7.657  11.847  67.113  1.00  0.00    -0.145 OA 
BRANCH   6   7
HETATM    7  C   UNL     1      -8.415  10.817  67.580  1.00  0.00    -0.119 C  
HETATM    8  C   UNL     1      -9.658  11.359  68.289  1.00  0.00    -0.192 C  
HETATM    9  O   UNL     1      -8.093   9.638  67.520  1.00  0.00    -0.112 OA 
HETATM   10  C   UNL     1     -10.601  12.121  67.358  1.00  0.00    -0.253 A  
HETATM   11  C   UNL     1     -10.360  10.254  69.135  1.00  0.00    -0.223 C  
HETATM   12  O   UNL     1     -10.857   9.202  68.300  1.00  0.00    -0.418 OA 
HETATM   13  C   UNL     1     -10.810  11.732  66.028  1.00  0.00    -0.343 A  
HETATM   14  C   UNL     1      -9.459   9.636  70.219  1.00  0.00    -0.300 C  
HETATM   15  C   UNL     1     -10.446   8.956  71.164  1.00  0.00    -0.336 C  
HETATM   16  H   UNL     1     -11.285   8.528  68.815  1.00  0.00     0.000 HD 
HETATM   17  C   UNL     1     -11.717  12.426  65.223  1.00  0.00    -0.437 A  
HETATM   18  C   UNL     1     -12.442  13.498  65.741  1.00  0.00    -0.514 A  
HETATM   19  C   UNL     1     -11.636   9.901  71.221  1.00  0.00    -0.456 C  
HETATM   20  C   UNL     1     -11.537  10.789  69.977  1.00  0.00    -0.417 C  
HETATM   21  C   UNL     1     -12.243  13.897  67.057  1.00  0.00    -0.392 A  
HETATM   22  C   UNL     1     -11.316  13.226  67.853  1.00  0.00    -0.317 A  
ENDBRANCH   6   7
ENDBRANCH   5   6
ENDBRANCH   4   5
ENDBRANCH   2   4
TORSDOF 4
ENDMDL
MODEL       80
REMARK 921   NORMALIZED FREE ENERGY PREDICTED BY IDOCK:   -4.52 KCAL/MOL
REMARK 922        TOTAL FREE ENERGY PREDICTED BY IDOCK:   -5.88 KCAL/MOL
REMARK 923 INTER-LIGAND FREE ENERGY PREDICTED BY IDOCK:   -5.46 KCAL/MOL
REMARK 924 INTRA-LIGAND FREE ENERGY PREDICTED BY IDOCK:   -0.42 KCAL/MOL
REMARK 927      BINDING AFFINITY PREDICTED BY RF-SCORE:    0.00 PKD
ROOT
HETATM    1  C   UNL     1      -7.357  20.256  65.401  1.00  0.00    -0.114 C  
HETATM    2  N   UNL     1      -8.043  19.630  66.531  1.00  0.00    -0.303 NA 
HETATM    3  C   UNL     1      -7.533  20.191  67.787  1.00  0.00    -0.292 C  
ENDROOT
BRANCH   2   4
HETATM    4  C   UNL     1      -9.513  19.778  66.398  1.00  0.00    -0.403 C  
BRANCH   4   5
HETATM    5  C   UNL     1     -10.289  18.789  67.279  1.00  0.00    -0.416 C  
BRANCH   5   6
HETATM    6  O   UNL     1     -10.554  17.544  66.624  1.00  0.00    -0.295 OA 
BRANCH   6   7
HETATM    7  C   UNL     1      -9.491  16.694  66.607  1.00  0.00    -0.252 C  
HETATM    8  C   UNL     1      -9.174  16.218  68.026  1.00  0.00    -0.196 C  
HETATM    9  O   UNL     1      -8.833  16.430  65.610  1.00  0.00    -0.406 OA 
HETATM   10  C   UNL     1     -10.298  15.393  68.652  1.00  0.00    -0.234 A  
HETATM   11  C   UNL     1      -7.774  15.539  68.102  1.00  0.00    -0.123 C  
HETATM   12  O   UNL     1      -7.735  14.346  67.311  1.00  0.00    -0.226 OA 
HETATM   13  C   UNL     1     -11.080  14.506  67.899  1.00  0.00    -0.290 A  
HETATM   14  C   UNL     1      -6.615  16.455  67.667  1.00  0.00    -0.172 C  
HETATM   15  C   UNL     1      -5.378  15.767  68.238  1.00  0.00    -0.109 C  
HETATM   16  H   UNL     1      -6.880  13.932  67.356  1.00  0.00     0.000 HD 
HETATM   17  C   UNL     1     -12.066  13.734  68.517  1.00  0.00    -0.327 A  
HETATM   18  C   UNL     1     -12.268  13.819  69.894  1.00  0.00    -0.383 A  
HETATM   19  C   UNL     1      -5.825  15.233  69.590  1.00  0.00    -0.118 C  
HETATM   20  C   UNL     1      -7.354  15.169  69.540  1.00  0.00    -0.210 C  
HETATM   21  C   UNL     1     -11.504  14.696  70.653  1.00  0.00    -0.256 A  
HETATM   22  C   UNL     1     -10.541  15.491  70.034  1.00  0.00    -0.337 A  
ENDBRANCH   6   7
ENDBRANCH   5   6
ENDBRANCH   4   5
ENDBRANCH   2   4
TORSDOF 4
ENDMDL
MODEL       81
REMARK 921   NORMALIZED FREE ENERGY PREDICTED BY IDOCK:   -4.51 KCAL/MOL
REMARK 922        TOTAL FREE ENERGY PREDICTED BY IDOCK:   -5.87 KCAL/MOL
REMARK 923 INTER-LIGAND FREE ENERGY PREDICTED BY IDOCK:   -5.37 KCAL/MOL
REMARK 924 INTRA-LIGAND FREE ENERGY PREDICTED BY IDOCK:   -0.50 KCAL/MOL
REMARK 927      BINDING AFFINITY PREDICTED BY RF-SCORE:    0.00 PKD
ROOT
HETATM    1  C   UNL     1      -8.179   8.421  62.879  1.00  0.00    -0.153 C  
HETATM    2  N   UNL     1      -8.342   9.736  63.498  1.00  0.00    -0.154 NA 
HETATM    3  C   UNL     1      -7.024  10.315  63.779  1.00  0.00    -0.059 C  
ENDROOT
BRANCH   2   4
HETATM    4  C   UNL     1      -9.179  10.616  62.646  1.00  0.00    -0.309 C  
BRANCH   4   5
HETATM    5  C   UNL     1     -10.032  11.596  63.464  1.00  0.00    -0.405 C  
BRANCH   5   6
HETATM    6  O   UNL     1     -10.505  11.036  64.693  1.00  0.00    -0.324 OA 
BRANCH   6   7
HETATM    7  C   UNL     1     -10.307  11.837  65.776  1.00  0.00    -0.253 C  
HETATM    8  C   UNL     1     -10.746  11.115  67.051  1.00  0.00    -0.316 C  
HETATM    9  O   UNL     1      -9.924  12.998  65.717  1.00  0.00    -0.279 OA 
HETATM   10  C   UNL     1      -9.916   9.869  67.357  1.00  0.00    -0.235 A  
HETATM   11  C   UNL     1     -10.871  12.101  68.252  1.00  0.00    -0.223 C  
HETATM   12  O   UNL     1      -9.602  12.672  68.586  1.00  0.00    -0.379 OA 
HETATM   13  C   UNL     1      -8.541   9.807  67.094  1.00  0.00    -0.129 A  
HETATM   14  C   UNL     1     -11.877  13.243  68.015  1.00  0.00    -0.392 C  
HETATM   15  C   UNL     1     -12.156  13.774  69.418  1.00  0.00    -0.377 C  
HETATM   16  H   UNL     1      -9.678  13.274  69.317  1.00  0.00     0.000 HD 
HETATM   17  C   UNL     1      -7.807   8.667  67.432  1.00  0.00    -0.098 A  
HETATM   18  C   UNL     1      -8.430   7.588  68.056  1.00  0.00    -0.123 A  
HETATM   19  C   UNL     1     -12.185  12.535  70.299  1.00  0.00    -0.345 C  
HETATM   20  C   UNL     1     -11.445  11.442  69.523  1.00  0.00    -0.381 C  
HETATM   21  C   UNL     1      -9.793   7.633  68.320  1.00  0.00    -0.181 A  
HETATM   22  C   UNL     1     -10.534   8.756  67.955  1.00  0.00    -0.260 A  
ENDBRANCH   6   7
ENDBRANCH   5   6
ENDBRANCH   4   5
ENDBRANCH   2   4
TORSDOF 4
ENDMDL
MODEL       82
REMARK 921   NORMALIZED FREE ENERGY PREDICTED BY IDOCK:   -4.51 KCAL/MOL
REMARK 922        TOTAL FREE ENERGY PREDICTED BY IDOCK:   -5.86 KCAL/MOL
REMARK 923 INTER-LIGAND FREE ENERGY PREDICTED BY IDOCK:   -5.42 KCAL/MOL
REMARK 924 INTRA-LIGAND FREE ENERGY PREDICTED BY IDOCK:   -0.44 KCAL/MOL
REMARK 927      BINDING AFFINITY PREDICTED BY RF-SCORE:    0.00 PKD
ROOT
HETATM    1  C   UNL     1     -10.491  15.534  66.995  1.00  0.00    -0.304 C  
HETATM    2  N   UNL     1     -10.081  15.460  68.397  1.00  0.00    -0.213 NA 
HETATM    3  C   UNL     1      -9.239  16.615  68.724  1.00  0.00    -0.253 C  
ENDROOT
BRANCH   2   4
HETATM    4  C   UNL     1     -11.265  15.352  69.283  1.00  0.00    -0.296 C  
BRANCH   4   5
HETATM    5  C   UNL     1     -11.898  13.954  69.259  1.00  0.00    -0.348 C  
BRANCH   5   6
HETATM    6  O   UNL     1     -10.930  12.900  69.295  1.00  0.00    -0.179 OA 
BRANCH   6   7
HETATM    7  C   UNL     1     -11.084  11.975  68.308  1.00  0.00    -0.243 C  
HETATM    8  C   UNL     1      -9.834  11.100  68.208  1.00  0.00    -0.195 C  
HETATM    9  O   UNL     1     -12.046  11.922  67.554  1.00  0.00    -0.573 OA 
HETATM   10  C   UNL     1      -9.579  10.263  69.462  1.00  0.00    -0.225 A  
HETATM   11  C   UNL     1      -9.817  10.276  66.885  1.00  0.00    -0.197 C  
HETATM   12  O   UNL     1     -10.906   9.347  66.841  1.00  0.00    -0.149 OA 
HETATM   13  C   UNL     1     -10.624   9.706  70.211  1.00  0.00    -0.333 A  
HETATM   14  C   UNL     1      -9.860  11.144  65.614  1.00  0.00    -0.280 C  
HETATM   15  C   UNL     1      -9.389  10.195  64.514  1.00  0.00    -0.345 C  
HETATM   16  H   UNL     1     -10.896   8.846  66.034  1.00  0.00     0.000 HD 
HETATM   17  C   UNL     1     -10.350   8.908  71.323  1.00  0.00    -0.355 A  
HETATM   18  C   UNL     1      -9.032   8.636  71.688  1.00  0.00    -0.305 A  
HETATM   19  C   UNL     1      -8.294   9.365  65.166  1.00  0.00    -0.151 C  
HETATM   20  C   UNL     1      -8.509   9.485  66.677  1.00  0.00    -0.136 C  
HETATM   21  C   UNL     1      -7.985   9.185  70.957  1.00  0.00    -0.166 A  
HETATM   22  C   UNL     1      -8.256  10.007  69.865  1.00  0.00    -0.175 A  
ENDBRANCH   6   7
ENDBRANCH   5   6
ENDBRANCH   4   5
ENDBRANCH   2   4
TORSDOF 4
ENDMDL
MODEL       83
REMARK 921   NORMALIZED FREE ENERGY PREDICTED BY IDOCK:   -4.47 KCAL/MOL
REMARK 922        TOTAL FREE ENERGY PREDICTED BY IDOCK:   -5.81 KCAL/MOL
REMARK 923 INTER-LIGAND FREE ENERGY PREDICTED BY IDOCK:   -5.48 KCAL/MOL
REMARK 924 INTRA-LIGAND FREE ENERGY PREDICTED BY IDOCK:   -0.34 KCAL/MOL
REMARK 927      BINDING AFFINITY PREDICTED BY RF-SCORE:    0.00 PKD
ROOT
HETATM    1  C   UNL     1      -5.977  18.863  67.907  1.00  0.00    -0.198 C  
HETATM    2  N   UNL     1      -7.221  19.471  67.437  1.00  0.00    -0.213 NA 
HETATM    3  C   UNL     1      -7.012  20.905  67.208  1.00  0.00    -0.376 C  
ENDROOT
BRANCH   2   4
HETATM    4  C   UNL     1      -7.722  18.771  66.229  1.00  0.00    -0.272 C  
BRANCH   4   5
HETATM    5  C   UNL     1      -7.821  17.252  66.423  1.00  0.00    -0.310 C  
BRANCH   5   6
HETATM    6  O   UNL     1      -9.165  16.796  66.604  1.00  0.00    -0.231 OA 
BRANCH   6   7
HETATM    7  C   UNL     1      -9.488  16.529  67.900  1.00  0.00    -0.220 C  
HETATM    8  C   UNL     1     -10.140  15.150  68.005  1.00  0.00    -0.222 C  
HETATM    9  O   UNL     1      -9.357  17.321  68.823  1.00  0.00    -0.264 OA 
HETATM   10  C   UNL     1      -9.205  14.006  67.613  1.00  0.00    -0.194 A  
HETATM   11  C   UNL     1     -10.837  14.951  69.385  1.00  0.00    -0.264 C  
HETATM   12  O   UNL     1      -9.884  14.976  70.453  1.00  0.00    -0.444 OA 
HETATM   13  C   UNL     1      -7.835  14.029  67.910  1.00  0.00    -0.161 A  
HETATM   14  C   UNL     1     -11.934  15.990  69.682  1.00  0.00    -0.189 C  
HETATM   15  C   UNL     1     -12.741  15.350  70.808  1.00  0.00    -0.516 C  
HETATM   16  H   UNL     1     -10.308  14.855  71.295  1.00  0.00     0.000 HD 
HETATM   17  C   UNL     1      -7.022  12.943  67.577  1.00  0.00    -0.151 A  
HETATM   18  C   UNL     1      -7.567  11.814  66.968  1.00  0.00    -0.147 A  
HETATM   19  C   UNL     1     -12.783  13.871  70.458  1.00  0.00    -0.318 C  
HETATM   20  C   UNL     1     -11.626  13.629  69.484  1.00  0.00    -0.361 C  
HETATM   21  C   UNL     1      -8.923  11.779  66.664  1.00  0.00    -0.195 A  
HETATM   22  C   UNL     1      -9.731  12.874  66.967  1.00  0.00    -0.230 A  
ENDBRANCH   6   7
ENDBRANCH   5   6
ENDBRANCH   4   5
ENDBRANCH   2   4
TORSDOF 4
ENDMDL
MODEL       84
REMARK 921   NORMALIZED FREE ENERGY PREDICTED BY IDOCK:   -4.43 KCAL/MOL
REMARK 922        TOTAL FREE ENERGY PREDICTED BY IDOCK:   -5.77 KCAL/MOL
REMARK 923 INTER-LIGAND FREE ENERGY PREDICTED BY IDOCK:   -5.40 KCAL/MOL
REMARK 924 INTRA-LIGAND FREE ENERGY PREDICTED BY IDOCK:   -0.37 KCAL/MOL
REMARK 927      BINDING AFFINITY PREDICTED BY RF-SCORE:    0.00 PKD
ROOT
HETATM    1  C   UNL     1     -12.622   8.958  71.598  1.00  0.00    -0.346 C  
HETATM    2  N   UNL     1     -11.233   9.316  71.882  1.00  0.00    -0.344 NA 
HETATM    3  C   UNL     1     -10.547   8.175  72.498  1.00  0.00    -0.340 C  
ENDROOT
BRANCH   2   4
HETATM    4  C   UNL     1     -10.552   9.790  70.652  1.00  0.00    -0.313 C  
BRANCH   4   5
HETATM    5  C   UNL     1     -11.521  10.430  69.648  1.00  0.00    -0.262 C  
BRANCH   5   6
HETATM    6  O   UNL     1     -11.216  11.800  69.369  1.00  0.00    -0.253 OA 
BRANCH   6   7
HETATM    7  C   UNL     1     -11.161  12.093  68.041  1.00  0.00    -0.264 C  
HETATM    8  C   UNL     1     -10.134  13.198  67.789  1.00  0.00    -0.226 C  
HETATM    9  O   UNL     1     -11.898  11.607  67.194  1.00  0.00    -0.608 OA 
HETATM   10  C   UNL     1      -8.703  12.785  68.135  1.00  0.00    -0.193 A  
HETATM   11  C   UNL     1     -10.287  13.807  66.362  1.00  0.00    -0.290 C  
HETATM   12  O   UNL     1     -10.014  12.830  65.352  1.00  0.00    -0.346 OA 
HETATM   13  C   UNL     1      -8.230  11.484  67.915  1.00  0.00    -0.134 A  
HETATM   14  C   UNL     1     -11.675  14.416  66.094  1.00  0.00    -0.384 C  
HETATM   15  C   UNL     1     -11.447  15.310  64.878  1.00  0.00    -0.343 C  
HETATM   16  H   UNL     1     -10.108  13.201  64.482  1.00  0.00     0.000 HD 
HETATM   17  C   UNL     1      -6.902  11.158  68.200  1.00  0.00    -0.067 A  
HETATM   18  C   UNL     1      -6.026  12.128  68.686  1.00  0.00    -0.055 A  
HETATM   19  C   UNL     1     -10.074  15.923  65.104  1.00  0.00    -0.093 C  
HETATM   20  C   UNL     1      -9.363  15.018  66.115  1.00  0.00    -0.327 C  
HETATM   21  C   UNL     1      -6.483  13.420  68.913  1.00  0.00    -0.103 A  
HETATM   22  C   UNL     1      -7.815  13.741  68.659  1.00  0.00    -0.108 A  
ENDBRANCH   6   7
ENDBRANCH   5   6
ENDBRANCH   4   5
ENDBRANCH   2   4
TORSDOF 4
ENDMDL
MODEL       85
REMARK 921   NORMALIZED FREE ENERGY PREDICTED BY IDOCK:   -4.43 KCAL/MOL
REMARK 922        TOTAL FREE ENERGY PREDICTED BY IDOCK:   -5.77 KCAL/MOL
REMARK 923 INTER-LIGAND FREE ENERGY PREDICTED BY IDOCK:   -5.19 KCAL/MOL
REMARK 924 INTRA-LIGAND FREE ENERGY PREDICTED BY IDOCK:   -0.57 KCAL/MOL
REMARK 927      BINDING AFFINITY PREDICTED BY RF-SCORE:    0.00 PKD
ROOT
HETATM    1  C   UNL     1     -11.810  12.076  68.400  1.00  0.00    -0.300 C  
HETATM    2  N   UNL     1     -10.573  12.256  67.640  1.00  0.00    -0.211 NA 
HETATM    3  C   UNL     1      -9.959  10.949  67.383  1.00  0.00    -0.186 C  
ENDROOT
BRANCH   2   4
HETATM    4  C   UNL     1     -10.831  13.017  66.393  1.00  0.00    -0.278 C  
BRANCH   4   5
HETATM    5  C   UNL     1      -9.709  14.010  66.061  1.00  0.00    -0.258 C  
BRANCH   5   6
HETATM    6  O   UNL     1      -8.744  14.136  67.111  1.00  0.00    -0.209 OA 
BRANCH   6   7
HETATM    7  C   UNL     1      -8.393  15.422  67.386  1.00  0.00    -0.183 C  
HETATM    8  C   UNL     1      -9.644  16.276  67.594  1.00  0.00    -0.227 C  
HETATM    9  O   UNL     1      -7.244  15.843  67.371  1.00  0.00    -0.157 OA 
HETATM   10  C   UNL     1     -10.471  15.852  68.808  1.00  0.00    -0.237 A  
HETATM   11  C   UNL     1      -9.310  17.798  67.558  1.00  0.00    -0.245 C  
HETATM   12  O   UNL     1      -8.446  18.163  68.640  1.00  0.00    -0.307 OA 
HETATM   13  C   UNL     1      -9.877  15.388  69.989  1.00  0.00    -0.110 A  
HETATM   14  C   UNL     1      -8.666  18.261  66.239  1.00  0.00    -0.199 C  
HETATM   15  C   UNL     1      -8.849  19.776  66.260  1.00  0.00    -0.417 C  
HETATM   16  H   UNL     1      -8.242  19.091  68.618  1.00  0.00     0.000 HD 
HETATM   17  C   UNL     1     -10.664  15.055  71.093  1.00  0.00     0.161 A  
HETATM   18  C   UNL     1     -12.050  15.203  71.041  1.00  0.00    -0.389 A  
HETATM   19  C   UNL     1     -10.226  19.988  66.871  1.00  0.00    -0.595 C  
HETATM   20  C   UNL     1     -10.562  18.698  67.625  1.00  0.00    -0.458 C  
HETATM   21  C   UNL     1     -12.654  15.658  69.875  1.00  0.00    -0.107 A  
HETATM   22  C   UNL     1     -11.872  15.961  68.761  1.00  0.00    -0.277 A  
ENDBRANCH   6   7
ENDBRANCH   5   6
ENDBRANCH   4   5
ENDBRANCH   2   4
TORSDOF 4
ENDMDL
MODEL       86
REMARK 921   NORMALIZED FREE ENERGY PREDICTED BY IDOCK:   -4.42 KCAL/MOL
REMARK 922        TOTAL FREE ENERGY PREDICTED BY IDOCK:   -5.76 KCAL/MOL
REMARK 923 INTER-LIGAND FREE ENERGY PREDICTED BY IDOCK:   -5.38 KCAL/MOL
REMARK 924 INTRA-LIGAND FREE ENERGY PREDICTED BY IDOCK:   -0.38 KCAL/MOL
REMARK 927      BINDING AFFINITY PREDICTED BY RF-SCORE:    0.00 PKD
ROOT
HETATM    1  C   UNL     1      -9.511   3.348  67.170  1.00  0.00    -0.162 C  
HETATM    2  N   UNL     1      -9.380   4.688  66.599  1.00  0.00    -0.138 NA 
HETATM    3  C   UNL     1      -8.659   4.611  65.324  1.00  0.00    -0.133 C  
ENDROOT
BRANCH   2   4
HETATM    4  C   UNL     1     -10.711   5.330  66.461  1.00  0.00    -0.221 C  
BRANCH   4   5
HETATM    5  C   UNL     1     -10.939   6.447  67.488  1.00  0.00    -0.364 C  
BRANCH   5   6
HETATM    6  O   UNL     1      -9.888   6.543  68.455  1.00  0.00    -0.134 OA 
BRANCH   6   7
HETATM    7  C   UNL     1      -9.814   7.754  69.071  1.00  0.00    -0.169 C  
HETATM    8  C   UNL     1     -10.872   7.851  70.171  1.00  0.00    -0.243 C  
HETATM    9  O   UNL     1      -9.070   8.662  68.725  1.00  0.00    -0.141 OA 
HETATM   10  C   UNL     1     -10.661   6.846  71.304  1.00  0.00    -0.249 A  
HETATM   11  C   UNL     1     -11.061   9.320  70.656  1.00  0.00    -0.276 C  
HETATM   12  O   UNL     1      -9.866   9.818  71.269  1.00  0.00    -0.239 OA 
HETATM   13  C   UNL     1      -9.383   6.487  71.752  1.00  0.00    -0.149 A  
HETATM   14  C   UNL     1     -11.484  10.292  69.541  1.00  0.00    -0.273 C  
HETATM   15  C   UNL     1     -12.028  11.499  70.302  1.00  0.00    -0.455 C  
HETATM   16  H   UNL     1      -9.981  10.714  71.564  1.00  0.00     0.000 HD 
HETATM   17  C   UNL     1      -9.232   5.602  72.822  1.00  0.00    -0.135 A  
HETATM   18  C   UNL     1     -10.351   5.083  73.471  1.00  0.00    -0.250 A  
HETATM   19  C   UNL     1     -12.765  10.902  71.490  1.00  0.00    -0.533 C  
HETATM   20  C   UNL     1     -12.216   9.484  71.666  1.00  0.00    -0.477 C  
HETATM   21  C   UNL     1     -11.625   5.426  73.035  1.00  0.00    -0.268 A  
HETATM   22  C   UNL     1     -11.778   6.285  71.948  1.00  0.00    -0.370 A  
ENDBRANCH   6   7
ENDBRANCH   5   6
ENDBRANCH   4   5
ENDBRANCH   2   4
TORSDOF 4
ENDMDL
MODEL       87
REMARK 921   NORMALIZED FREE ENERGY PREDICTED BY IDOCK:   -4.41 KCAL/MOL
REMARK 922        TOTAL FREE ENERGY PREDICTED BY IDOCK:   -5.75 KCAL/MOL
REMARK 923 INTER-LIGAND FREE ENERGY PREDICTED BY IDOCK:   -5.25 KCAL/MOL
REMARK 924 INTRA-LIGAND FREE ENERGY PREDICTED BY IDOCK:   -0.50 KCAL/MOL
REMARK 927      BINDING AFFINITY PREDICTED BY RF-SCORE:    0.00 PKD
ROOT
HETATM    1  C   UNL     1      -8.205   3.703  66.394  1.00  0.00    -0.100 C  
HETATM    2  N   UNL     1      -8.655   5.095  66.368  1.00  0.00    -0.112 NA 
HETATM    3  C   UNL     1      -8.080   5.775  65.202  1.00  0.00    -0.133 C  
ENDROOT
BRANCH   2   4
HETATM    4  C   UNL     1     -10.136   5.167  66.393  1.00  0.00    -0.239 C  
BRANCH   4   5
HETATM    5  C   UNL     1     -10.664   6.144  67.453  1.00  0.00    -0.322 C  
BRANCH   5   6
HETATM    6  O   UNL     1      -9.644   6.611  68.341  1.00  0.00    -0.125 OA 
BRANCH   6   7
HETATM    7  C   UNL     1      -9.489   7.964  68.341  1.00  0.00    -0.148 C  
HETATM    8  C   UNL     1     -10.440   8.602  69.355  1.00  0.00    -0.224 C  
HETATM    9  O   UNL     1      -8.763   8.577  67.571  1.00  0.00    -0.133 OA 
HETATM   10  C   UNL     1     -10.145   8.196  70.799  1.00  0.00    -0.211 A  
HETATM   11  C   UNL     1     -10.554  10.142  69.142  1.00  0.00    -0.224 C  
HETATM   12  O   UNL     1      -9.299  10.789  69.376  1.00  0.00    -0.388 OA 
HETATM   13  C   UNL     1      -8.838   8.000  71.266  1.00  0.00    -0.163 A  
HETATM   14  C   UNL     1     -11.059  10.538  67.743  1.00  0.00    -0.382 C  
HETATM   15  C   UNL     1     -11.507  11.987  67.919  1.00  0.00    -0.396 C  
HETATM   16  H   UNL     1      -9.368  11.728  69.245  1.00  0.00     0.000 HD 
HETATM   17  C   UNL     1      -8.607   7.677  72.605  1.00  0.00    -0.171 A  
HETATM   18  C   UNL     1      -9.672   7.568  73.498  1.00  0.00    -0.358 A  
HETATM   19  C   UNL     1     -12.143  12.027  69.300  1.00  0.00    -0.249 C  
HETATM   20  C   UNL     1     -11.608  10.805  70.053  1.00  0.00    -0.417 C  
HETATM   21  C   UNL     1     -10.973   7.756  73.049  1.00  0.00    -0.442 A  
HETATM   22  C   UNL     1     -11.209   8.048  71.707  1.00  0.00    -0.317 A  
ENDBRANCH   6   7
ENDBRANCH   5   6
ENDBRANCH   4   5
ENDBRANCH   2   4
TORSDOF 4
ENDMDL
MODEL       88
REMARK 921   NORMALIZED FREE ENERGY PREDICTED BY IDOCK:   -4.40 KCAL/MOL
REMARK 922        TOTAL FREE ENERGY PREDICTED BY IDOCK:   -5.73 KCAL/MOL
REMARK 923 INTER-LIGAND FREE ENERGY PREDICTED BY IDOCK:   -5.46 KCAL/MOL
REMARK 924 INTRA-LIGAND FREE ENERGY PREDICTED BY IDOCK:   -0.27 KCAL/MOL
REMARK 927      BINDING AFFINITY PREDICTED BY RF-SCORE:    0.00 PKD
ROOT
HETATM    1  C   UNL     1     -10.439  11.158  63.495  1.00  0.00    -0.358 C  
HETATM    2  N   UNL     1     -10.724  12.588  63.602  1.00  0.00    -0.443 NA 
HETATM    3  C   UNL     1     -12.151  12.824  63.360  1.00  0.00    -0.534 C  
ENDROOT
BRANCH   2   4
HETATM    4  C   UNL     1     -10.276  13.115  64.914  1.00  0.00    -0.287 C  
BRANCH   4   5
HETATM    5  C   UNL     1     -10.263  14.649  64.964  1.00  0.00    -0.361 C  
BRANCH   5   6
HETATM    6  O   UNL     1      -9.521  15.167  66.072  1.00  0.00    -0.301 OA 
BRANCH   6   7
HETATM    7  C   UNL     1     -10.290  15.783  67.012  1.00  0.00    -0.292 C  
HETATM    8  C   UNL     1      -9.804  15.413  68.414  1.00  0.00    -0.215 C  
HETATM    9  O   UNL     1     -11.282  16.455  66.762  1.00  0.00     0.039 OA 
HETATM   10  C   UNL     1      -8.389  15.907  68.714  1.00  0.00    -0.206 A  
HETATM   11  C   UNL     1     -10.852  15.798  69.502  1.00  0.00    -0.287 C  
HETATM   12  O   UNL     1     -11.043  17.216  69.555  1.00  0.00    -0.282 OA 
HETATM   13  C   UNL     1      -7.911  17.133  68.234  1.00  0.00    -0.236 A  
HETATM   14  C   UNL     1     -12.222  15.124  69.310  1.00  0.00    -0.212 C  
HETATM   15  C   UNL     1     -12.893  15.277  70.673  1.00  0.00    -0.462 C  
HETATM   16  H   UNL     1     -11.682  17.451  70.218  1.00  0.00     0.000 HD 
HETATM   17  C   UNL     1      -6.628  17.572  68.570  1.00  0.00    -0.198 A  
HETATM   18  C   UNL     1      -5.817  16.805  69.405  1.00  0.00    -0.178 A  
HETATM   19  C   UNL     1     -11.771  15.073  71.678  1.00  0.00    -0.439 C  
HETATM   20  C   UNL     1     -10.465  15.318  70.916  1.00  0.00     0.151 C  
HETATM   21  C   UNL     1      -6.276  15.584  69.885  1.00  0.00    -0.157 A  
HETATM   22  C   UNL     1      -7.544  15.130  69.526  1.00  0.00    -0.207 A  
ENDBRANCH   6   7
ENDBRANCH   5   6
ENDBRANCH   4   5
ENDBRANCH   2   4
TORSDOF 4
ENDMDL
MODEL       89
REMARK 921   NORMALIZED FREE ENERGY PREDICTED BY IDOCK:   -4.32 KCAL/MOL
REMARK 922        TOTAL FREE ENERGY PREDICTED BY IDOCK:   -5.64 KCAL/MOL
REMARK 923 INTER-LIGAND FREE ENERGY PREDICTED BY IDOCK:   -5.27 KCAL/MOL
REMARK 924 INTRA-LIGAND FREE ENERGY PREDICTED BY IDOCK:   -0.36 KCAL/MOL
REMARK 927      BINDING AFFINITY PREDICTED BY RF-SCORE:    0.00 PKD
ROOT
HETATM    1  C   UNL     1     -10.730  15.572  66.614  1.00  0.00    -0.306 C  
HETATM    2  N   UNL     1     -11.011  14.382  67.416  1.00  0.00    -0.292 NA 
HETATM    3  C   UNL     1     -11.118  14.756  68.830  1.00  0.00    -0.265 C  
ENDROOT
BRANCH   2   4
HETATM    4  C   UNL     1     -12.225  13.690  66.918  1.00  0.00    -0.352 C  
BRANCH   4   5
HETATM    5  C   UNL     1     -11.900  12.555  65.937  1.00  0.00    -0.430 C  
BRANCH   5   6
HETATM    6  O   UNL     1     -11.442  11.366  66.588  1.00  0.00    -0.408 OA 
BRANCH   6   7
HETATM    7  C   UNL     1     -10.086  11.254  66.642  1.00  0.00    -0.214 C  
HETATM    8  C   UNL     1      -9.668  10.542  67.929  1.00  0.00    -0.171 C  
HETATM    9  O   UNL     1      -9.319  11.740  65.822  1.00  0.00    -0.232 OA 
HETATM   10  C   UNL     1     -10.162   9.097  68.009  1.00  0.00    -0.258 A  
HETATM   11  C   UNL     1      -8.143  10.704  68.203  1.00  0.00    -0.114 C  
HETATM   12  O   UNL     1      -7.365  10.074  67.179  1.00  0.00    -0.090 OA 
HETATM   13  C   UNL     1     -10.232   8.271  66.880  1.00  0.00    -0.388 A  
HETATM   14  C   UNL     1      -7.688  12.169  68.333  1.00  0.00    -0.134 C  
HETATM   15  C   UNL     1      -6.330  12.065  69.022  1.00  0.00    -0.085 C  
HETATM   16  H   UNL     1      -6.434  10.173  67.346  1.00  0.00     0.000 HD 
HETATM   17  C   UNL     1     -10.643   6.941  67.002  1.00  0.00    -0.403 A  
HETATM   18  C   UNL     1     -10.966   6.415  68.251  1.00  0.00    -0.396 A  
HETATM   19  C   UNL     1      -6.496  10.939  70.030  1.00  0.00    -0.151 C  
HETATM   20  C   UNL     1      -7.703  10.120  69.562  1.00  0.00    -0.155 C  
HETATM   21  C   UNL     1     -10.905   7.224  69.380  1.00  0.00    -0.206 A  
HETATM   22  C   UNL     1     -10.526   8.559  69.256  1.00  0.00    -0.224 A  
ENDBRANCH   6   7
ENDBRANCH   5   6
ENDBRANCH   4   5
ENDBRANCH   2   4
TORSDOF 4
ENDMDL
MODEL       90
REMARK 921   NORMALIZED FREE ENERGY PREDICTED BY IDOCK:   -4.31 KCAL/MOL
REMARK 922        TOTAL FREE ENERGY PREDICTED BY IDOCK:   -5.62 KCAL/MOL
REMARK 923 INTER-LIGAND FREE ENERGY PREDICTED BY IDOCK:   -5.24 KCAL/MOL
REMARK 924 INTRA-LIGAND FREE ENERGY PREDICTED BY IDOCK:   -0.39 KCAL/MOL
REMARK 927      BINDING AFFINITY PREDICTED BY RF-SCORE:    0.00 PKD
ROOT
HETATM    1  C   UNL     1      -8.665   4.639  68.375  1.00  0.00    -0.099 C  
HETATM    2  N   UNL     1      -8.963   5.537  67.260  1.00  0.00    -0.112 NA 
HETATM    3  C   UNL     1     -10.282   5.212  66.706  1.00  0.00    -0.253 C  
ENDROOT
BRANCH   2   4
HETATM    4  C   UNL     1      -8.860   6.954  67.687  1.00  0.00    -0.118 C  
BRANCH   4   5
HETATM    5  C   UNL     1      -9.091   7.137  69.193  1.00  0.00    -0.137 C  
BRANCH   5   6
HETATM    6  O   UNL     1      -9.182   8.510  69.583  1.00  0.00    -0.154 OA 
BRANCH   6   7
HETATM    7  C   UNL     1     -10.459   8.952  69.752  1.00  0.00    -0.212 C  
HETATM    8  C   UNL     1     -10.523  10.467  69.547  1.00  0.00    -0.274 C  
HETATM    9  O   UNL     1     -11.393   8.247  70.110  1.00  0.00    -0.192 OA 
HETATM   10  C   UNL     1     -10.167  10.900  68.125  1.00  0.00    -0.197 A  
HETATM   11  C   UNL     1     -11.867  11.058  70.070  1.00  0.00    -0.355 C  
HETATM   12  O   UNL     1     -12.979  10.551  69.324  1.00  0.00    -0.500 OA 
HETATM   13  C   UNL     1     -10.528  10.142  67.003  1.00  0.00    -0.302 A  
HETATM   14  C   UNL     1     -12.119  10.797  71.566  1.00  0.00    -0.201 C  
HETATM   15  C   UNL     1     -13.201  11.810  71.931  1.00  0.00    -0.468 C  
HETATM   16  H   UNL     1     -13.799  10.911  69.644  1.00  0.00     0.000 HD 
HETATM   17  C   UNL     1     -10.227  10.595  65.717  1.00  0.00    -0.317 A  
HETATM   18  C   UNL     1      -9.584  11.818  65.533  1.00  0.00    -0.222 A  
HETATM   19  C   UNL     1     -12.838  13.060  71.144  1.00  0.00    -0.331 C  
HETATM   20  C   UNL     1     -11.918  12.599  70.010  1.00  0.00    -0.377 C  
HETATM   21  C   UNL     1      -9.216  12.579  66.636  1.00  0.00    -0.223 A  
HETATM   22  C   UNL     1      -9.488  12.114  67.922  1.00  0.00    -0.195 A  
ENDBRANCH   6   7
ENDBRANCH   5   6
ENDBRANCH   4   5
ENDBRANCH   2   4
TORSDOF 4
ENDMDL
MODEL       91
REMARK 921   NORMALIZED FREE ENERGY PREDICTED BY IDOCK:   -4.30 KCAL/MOL
REMARK 922        TOTAL FREE ENERGY PREDICTED BY IDOCK:   -5.61 KCAL/MOL
REMARK 923 INTER-LIGAND FREE ENERGY PREDICTED BY IDOCK:   -5.24 KCAL/MOL
REMARK 924 INTRA-LIGAND FREE ENERGY PREDICTED BY IDOCK:   -0.37 KCAL/MOL
REMARK 927      BINDING AFFINITY PREDICTED BY RF-SCORE:    0.00 PKD
ROOT
HETATM    1  C   UNL     1      -8.707   9.573  62.670  1.00  0.00    -0.230 C  
HETATM    2  N   UNL     1      -7.749   8.856  63.511  1.00  0.00    -0.122 NA 
HETATM    3  C   UNL     1      -6.478   9.588  63.543  1.00  0.00    -0.103 C  
ENDROOT
BRANCH   2   4
HETATM    4  C   UNL     1      -8.308   8.631  64.867  1.00  0.00    -0.164 C  
BRANCH   4   5
HETATM    5  C   UNL     1      -9.258   9.753  65.309  1.00  0.00    -0.238 C  
BRANCH   5   6
HETATM    6  O   UNL     1     -10.252   9.311  66.239  1.00  0.00    -0.273 OA 
BRANCH   6   7
HETATM    7  C   UNL     1     -10.184   9.923  67.452  1.00  0.00    -0.222 C  
HETATM    8  C   UNL     1     -10.867   9.061  68.516  1.00  0.00    -0.061 C  
HETATM    9  O   UNL     1      -9.727  11.043  67.637  1.00  0.00    -0.166 OA 
HETATM   10  C   UNL     1     -10.174   7.717  68.741  1.00  0.00    -0.212 A  
HETATM   11  C   UNL     1     -11.124   9.867  69.825  1.00  0.00    -0.254 C  
HETATM   12  O   UNL     1      -9.893  10.272  70.433  1.00  0.00    -0.367 OA 
HETATM   13  C   UNL     1      -8.781   7.578  68.681  1.00  0.00    -0.128 A  
HETATM   14  C   UNL     1     -12.007  11.112  69.624  1.00  0.00    -0.429 C  
HETATM   15  C   UNL     1     -12.476  11.452  71.036  1.00  0.00    -0.486 C  
HETATM   16  H   UNL     1     -10.050  10.763  71.231  1.00  0.00     0.000 HD 
HETATM   17  C   UNL     1      -8.183   6.343  68.940  1.00  0.00    -0.118 A  
HETATM   18  C   UNL     1      -8.963   5.240  69.283  1.00  0.00    -0.126 A  
HETATM   19  C   UNL     1     -12.723  10.104  71.694  1.00  0.00    -0.549 C  
HETATM   20  C   UNL     1     -11.935   9.078  70.874  1.00  0.00    -0.274 C  
HETATM   21  C   UNL     1     -10.346   5.362  69.342  1.00  0.00    -0.339 A  
HETATM   22  C   UNL     1     -10.948   6.585  69.054  1.00  0.00    -0.378 A  
ENDBRANCH   6   7
ENDBRANCH   5   6
ENDBRANCH   4   5
ENDBRANCH   2   4
TORSDOF 4
ENDMDL
MODEL       92
REMARK 921   NORMALIZED FREE ENERGY PREDICTED BY IDOCK:   -4.27 KCAL/MOL
REMARK 922        TOTAL FREE ENERGY PREDICTED BY IDOCK:   -5.57 KCAL/MOL
REMARK 923 INTER-LIGAND FREE ENERGY PREDICTED BY IDOCK:   -5.20 KCAL/MOL
REMARK 924 INTRA-LIGAND FREE ENERGY PREDICTED BY IDOCK:   -0.37 KCAL/MOL
REMARK 927      BINDING AFFINITY PREDICTED BY RF-SCORE:    0.00 PKD
ROOT
HETATM    1  C   UNL     1      -7.181   6.501  67.105  1.00  0.00    -0.081 C  
HETATM    2  N   UNL     1      -6.426   6.422  65.855  1.00  0.00    -0.042 NA 
HETATM    3  C   UNL     1      -5.695   5.151  65.801  1.00  0.00    -0.018 C  
ENDROOT
BRANCH   2   4
HETATM    4  C   UNL     1      -7.323   6.610  64.688  1.00  0.00    -0.085 C  
BRANCH   4   5
HETATM    5  C   UNL     1      -7.542   8.089  64.342  1.00  0.00    -0.116 C  
BRANCH   5   6
HETATM    6  O   UNL     1      -8.874   8.536  64.612  1.00  0.00    -0.061 OA 
BRANCH   6   7
HETATM    7  C   UNL     1      -9.041   9.881  64.488  1.00  0.00    -0.250 C  
HETATM    8  C   UNL     1     -10.161  10.361  65.413  1.00  0.00    -0.354 C  
HETATM    9  O   UNL     1      -8.443  10.580  63.681  1.00  0.00    -0.171 OA 
HETATM   10  C   UNL     1      -9.847  10.163  66.896  1.00  0.00    -0.244 A  
HETATM   11  C   UNL     1     -10.621  11.805  65.052  1.00  0.00    -0.288 C  
HETATM   12  O   UNL     1      -9.565  12.750  65.254  1.00  0.00    -0.469 OA 
HETATM   13  C   UNL     1      -8.553  10.323  67.411  1.00  0.00    -0.125 A  
HETATM   14  C   UNL     1     -11.140  11.949  63.609  1.00  0.00    -0.517 C  
HETATM   15  C   UNL     1     -11.921  13.259  63.636  1.00  0.00    -0.547 C  
HETATM   16  H   UNL     1      -9.845  13.630  65.033  1.00  0.00     0.000 HD 
HETATM   17  C   UNL     1      -8.315  10.181  68.780  1.00  0.00    -0.122 A  
HETATM   18  C   UNL     1      -9.366   9.900  69.652  1.00  0.00    -0.247 A  
HETATM   19  C   UNL     1     -12.613  13.266  64.990  1.00  0.00    -0.483 C  
HETATM   20  C   UNL     1     -11.843  12.276  65.869  1.00  0.00    -0.420 C  
HETATM   21  C   UNL     1     -10.653   9.734  69.156  1.00  0.00    -0.237 A  
HETATM   22  C   UNL     1     -10.887   9.845  67.786  1.00  0.00    -0.321 A  
ENDBRANCH   6   7
ENDBRANCH   5   6
ENDBRANCH   4   5
ENDBRANCH   2   4
TORSDOF 4
ENDMDL
MODEL       93
REMARK 921   NORMALIZED FREE ENERGY PREDICTED BY IDOCK:   -4.26 KCAL/MOL
REMARK 922        TOTAL FREE ENERGY PREDICTED BY IDOCK:   -5.57 KCAL/MOL
REMARK 923 INTER-LIGAND FREE ENERGY PREDICTED BY IDOCK:   -5.21 KCAL/MOL
REMARK 924 INTRA-LIGAND FREE ENERGY PREDICTED BY IDOCK:   -0.36 KCAL/MOL
REMARK 927      BINDING AFFINITY PREDICTED BY RF-SCORE:    0.00 PKD
ROOT
HETATM    1  C   UNL     1     -12.252  13.327  70.359  1.00  0.00    -0.332 C  
HETATM    2  N   UNL     1     -11.976  12.509  69.179  1.00  0.00    -0.270 NA 
HETATM    3  C   UNL     1     -10.797  13.034  68.481  1.00  0.00    -0.258 C  
ENDROOT
BRANCH   2   4
HETATM    4  C   UNL     1     -11.823  11.082  69.556  1.00  0.00    -0.333 C  
BRANCH   4   5
HETATM    5  C   UNL     1     -12.410  10.768  70.939  1.00  0.00    -0.396 C  
BRANCH   5   6
HETATM    6  O   UNL     1     -11.596   9.873  71.703  1.00  0.00    -0.360 OA 
BRANCH   6   7
HETATM    7  C   UNL     1     -11.610   8.590  71.248  1.00  0.00    -0.283 C  
HETATM    8  C   UNL     1     -10.198   8.157  70.849  1.00  0.00    -0.216 C  
HETATM    9  O   UNL     1     -12.623   7.922  71.094  1.00  0.00    -0.273 OA 
HETATM   10  C   UNL     1      -9.222   8.122  72.025  1.00  0.00    -0.253 A  
HETATM   11  C   UNL     1     -10.218   6.847  70.005  1.00  0.00    -0.196 C  
HETATM   12  O   UNL     1     -10.724   5.748  70.770  1.00  0.00    -0.256 OA 
HETATM   13  C   UNL     1      -9.616   7.721  73.309  1.00  0.00    -0.346 A  
HETATM   14  C   UNL     1     -11.036   6.959  68.706  1.00  0.00    -0.210 C  
HETATM   15  C   UNL     1     -10.551   5.776  67.872  1.00  0.00    -0.304 C  
HETATM   16  H   UNL     1     -10.737   4.949  70.256  1.00  0.00     0.000 HD 
HETATM   17  C   UNL     1      -8.683   7.656  74.347  1.00  0.00    -0.208 A  
HETATM   18  C   UNL     1      -7.345   7.967  74.112  1.00  0.00    -0.207 A  
HETATM   19  C   UNL     1      -9.059   5.695  68.153  1.00  0.00    -0.111 C  
HETATM   20  C   UNL     1      -8.828   6.451  69.465  1.00  0.00    -0.136 C  
HETATM   21  C   UNL     1      -6.940   8.371  72.845  1.00  0.00    -0.103 A  
HETATM   22  C   UNL     1      -7.874   8.466  71.816  1.00  0.00    -0.161 A  
ENDBRANCH   6   7
ENDBRANCH   5   6
ENDBRANCH   4   5
ENDBRANCH   2   4
TORSDOF 4
ENDMDL
MODEL       94
REMARK 921   NORMALIZED FREE ENERGY PREDICTED BY IDOCK:   -4.26 KCAL/MOL
REMARK 922        TOTAL FREE ENERGY PREDICTED BY IDOCK:   -5.57 KCAL/MOL
REMARK 923 INTER-LIGAND FREE ENERGY PREDICTED BY IDOCK:   -5.18 KCAL/MOL
REMARK 924 INTRA-LIGAND FREE ENERGY PREDICTED BY IDOCK:   -0.38 KCAL/MOL
REMARK 927      BINDING AFFINITY PREDICTED BY RF-SCORE:    0.00 PKD
ROOT
HETATM    1  C   UNL     1      -7.998  10.064  64.390  1.00  0.00    -0.152 C  
HETATM    2  N   UNL     1      -9.123  10.997  64.342  1.00  0.00    -0.150 NA 
HETATM    3  C   UNL     1      -9.502  11.239  62.945  1.00  0.00    -0.361 C  
ENDROOT
BRANCH   2   4
HETATM    4  C   UNL     1     -10.255  10.495  65.158  1.00  0.00    -0.288 C  
BRANCH   4   5
HETATM    5  C   UNL     1     -10.182  10.956  66.620  1.00  0.00    -0.234 C  
BRANCH   5   6
HETATM    6  O   UNL     1     -11.109  10.273  67.470  1.00  0.00    -0.311 OA 
BRANCH   6   7
HETATM    7  C   UNL     1     -10.562   9.819  68.631  1.00  0.00    -0.221 C  
HETATM    8  C   UNL     1     -10.950   8.357  68.859  1.00  0.00     0.115 C  
HETATM    9  O   UNL     1      -9.933  10.515  69.418  1.00  0.00    -0.222 OA 
HETATM   10  C   UNL     1     -10.395   7.411  67.794  1.00  0.00    -0.273 A  
HETATM   11  C   UNL     1     -10.651   7.908  70.321  1.00  0.00    -0.231 C  
HETATM   12  O   UNL     1      -9.247   7.950  70.598  1.00  0.00    -0.155 OA 
HETATM   13  C   UNL     1      -9.132   7.598  67.218  1.00  0.00    -0.142 A  
HETATM   14  C   UNL     1     -11.387   8.739  71.388  1.00  0.00    -0.364 C  
HETATM   15  C   UNL     1     -11.310   7.868  72.639  1.00  0.00    -0.468 C  
HETATM   16  H   UNL     1      -9.064   7.677  71.489  1.00  0.00     0.000 HD 
HETATM   17  C   UNL     1      -8.640   6.684  66.283  1.00  0.00    -0.139 A  
HETATM   18  C   UNL     1      -9.391   5.564  65.930  1.00  0.00    -0.140 A  
HETATM   19  C   UNL     1     -11.488   6.447  72.129  1.00  0.00    -0.344 C  
HETATM   20  C   UNL     1     -11.154   6.484  70.635  1.00  0.00    -0.364 C  
HETATM   21  C   UNL     1     -10.647   5.368  66.490  1.00  0.00    -0.353 A  
HETATM   22  C   UNL     1     -11.153   6.294  67.400  1.00  0.00    -0.384 A  
ENDBRANCH   6   7
ENDBRANCH   5   6
ENDBRANCH   4   5
ENDBRANCH   2   4
TORSDOF 4
ENDMDL
MODEL       95
REMARK 921   NORMALIZED FREE ENERGY PREDICTED BY IDOCK:   -4.26 KCAL/MOL
REMARK 922        TOTAL FREE ENERGY PREDICTED BY IDOCK:   -5.55 KCAL/MOL
REMARK 923 INTER-LIGAND FREE ENERGY PREDICTED BY IDOCK:   -5.20 KCAL/MOL
REMARK 924 INTRA-LIGAND FREE ENERGY PREDICTED BY IDOCK:   -0.35 KCAL/MOL
REMARK 927      BINDING AFFINITY PREDICTED BY RF-SCORE:    0.00 PKD
ROOT
HETATM    1  C   UNL     1      -7.604   3.062  68.948  1.00  0.00    -0.048 C  
HETATM    2  N   UNL     1      -8.251   4.374  68.919  1.00  0.00    -0.079 NA 
HETATM    3  C   UNL     1      -8.278   4.878  67.542  1.00  0.00    -0.105 C  
ENDROOT
BRANCH   2   4
HETATM    4  C   UNL     1      -9.603   4.304  69.525  1.00  0.00    -0.204 C  
BRANCH   4   5
HETATM    5  C   UNL     1     -10.403   5.601  69.339  1.00  0.00    -0.273 C  
BRANCH   5   6
HETATM    6  O   UNL     1     -11.498   5.720  70.253  1.00  0.00    -0.180 OA 
BRANCH   6   7
HETATM    7  C   UNL     1     -11.119   5.840  71.555  1.00  0.00    -0.214 C  
HETATM    8  C   UNL     1     -10.477   7.209  71.792  1.00  0.00    -0.219 C  
HETATM    9  O   UNL     1     -11.198   4.944  72.384  1.00  0.00    -0.115 OA 
HETATM   10  C   UNL     1     -11.442   8.375  71.578  1.00  0.00    -0.335 A  
HETATM   11  C   UNL     1      -9.720   7.256  73.153  1.00  0.00    -0.209 C  
HETATM   12  O   UNL     1     -10.623   7.093  74.252  1.00  0.00    -0.545 OA 
HETATM   13  C   UNL     1     -12.796   8.295  71.930  1.00  0.00    -0.371 A  
HETATM   14  C   UNL     1      -8.600   6.208  73.277  1.00  0.00    -0.123 C  
HETATM   15  C   UNL     1      -7.748   6.726  74.434  1.00  0.00    -0.119 C  
HETATM   16  H   UNL     1     -10.161   7.122  75.082  1.00  0.00     0.000 HD 
HETATM   17  C   UNL     1     -13.636   9.399  71.763  1.00  0.00    -0.461 A  
HETATM   18  C   UNL     1     -13.131  10.600  71.266  1.00  0.00    -0.456 A  
HETATM   19  C   UNL     1      -7.738   8.236  74.257  1.00  0.00    -0.277 C  
HETATM   20  C   UNL     1      -8.941   8.571  73.370  1.00  0.00    -0.014 C  
HETATM   21  C   UNL     1     -11.791  10.692  70.908  1.00  0.00    -0.433 A  
HETATM   22  C   UNL     1     -10.959   9.583  71.045  1.00  0.00    -0.424 A  
ENDBRANCH   6   7
ENDBRANCH   5   6
ENDBRANCH   4   5
ENDBRANCH   2   4
TORSDOF 4
ENDMDL
MODEL       96
REMARK 921   NORMALIZED FREE ENERGY PREDICTED BY IDOCK:   -4.25 KCAL/MOL
REMARK 922        TOTAL FREE ENERGY PREDICTED BY IDOCK:   -5.55 KCAL/MOL
REMARK 923 INTER-LIGAND FREE ENERGY PREDICTED BY IDOCK:   -5.22 KCAL/MOL
REMARK 924 INTRA-LIGAND FREE ENERGY PREDICTED BY IDOCK:   -0.33 KCAL/MOL
REMARK 927      BINDING AFFINITY PREDICTED BY RF-SCORE:    0.00 PKD
ROOT
HETATM    1  C   UNL     1     -12.123   7.338  70.919  1.00  0.00    -0.288 C  
HETATM    2  N   UNL     1     -11.531   8.189  71.950  1.00  0.00    -0.280 NA 
HETATM    3  C   UNL     1     -10.983   7.353  73.024  1.00  0.00    -0.374 C  
ENDROOT
BRANCH   2   4
HETATM    4  C   UNL     1     -10.515   9.095  71.361  1.00  0.00    -0.344 C  
BRANCH   4   5
HETATM    5  C   UNL     1     -11.139  10.237  70.548  1.00  0.00    -0.306 C  
BRANCH   5   6
HETATM    6  O   UNL     1     -10.902  10.118  69.142  1.00  0.00    -0.207 OA 
BRANCH   6   7
HETATM    7  C   UNL     1     -11.198  11.243  68.435  1.00  0.00    -0.262 C  
HETATM    8  C   UNL     1     -10.068  12.264  68.574  1.00  0.00    -0.192 C  
HETATM    9  O   UNL     1     -12.258  11.437  67.856  1.00  0.00    -0.592 OA 
HETATM   10  C   UNL     1      -8.745  11.788  67.973  1.00  0.00    -0.167 A  
HETATM   11  C   UNL     1     -10.511  13.677  68.086  1.00  0.00    -0.247 C  
HETATM   12  O   UNL     1     -10.813  13.669  66.687  1.00  0.00    -0.281 OA 
HETATM   13  C   UNL     1      -8.694  11.013  66.807  1.00  0.00    -0.152 A  
HETATM   14  C   UNL     1     -11.722  14.244  68.848  1.00  0.00    -0.363 C  
HETATM   15  C   UNL     1     -11.680  15.737  68.532  1.00  0.00    -0.328 C  
HETATM   16  H   UNL     1     -11.083  14.530  66.390  1.00  0.00     0.000 HD 
HETATM   17  C   UNL     1      -7.464  10.637  66.261  1.00  0.00    -0.137 A  
HETATM   18  C   UNL     1      -6.273  11.049  66.859  1.00  0.00    -0.093 A  
HETATM   19  C   UNL     1     -10.200  16.087  68.533  1.00  0.00    -0.236 C  
HETATM   20  C   UNL     1      -9.448  14.768  68.337  1.00  0.00    -0.213 C  
HETATM   21  C   UNL     1      -6.309  11.814  68.018  1.00  0.00    -0.053 A  
HETATM   22  C   UNL     1      -7.534  12.164  68.581  1.00  0.00    -0.105 A  
ENDBRANCH   6   7
ENDBRANCH   5   6
ENDBRANCH   4   5
ENDBRANCH   2   4
TORSDOF 4
ENDMDL
MODEL       97
REMARK 921   NORMALIZED FREE ENERGY PREDICTED BY IDOCK:   -4.25 KCAL/MOL
REMARK 922        TOTAL FREE ENERGY PREDICTED BY IDOCK:   -5.55 KCAL/MOL
REMARK 923 INTER-LIGAND FREE ENERGY PREDICTED BY IDOCK:   -5.11 KCAL/MOL
REMARK 924 INTRA-LIGAND FREE ENERGY PREDICTED BY IDOCK:   -0.44 KCAL/MOL
REMARK 927      BINDING AFFINITY PREDICTED BY RF-SCORE:    0.00 PKD
ROOT
HETATM    1  C   UNL     1      -8.341   4.328  69.332  1.00  0.00    -0.065 C  
HETATM    2  N   UNL     1      -8.477   5.416  68.364  1.00  0.00    -0.097 NA 
HETATM    3  C   UNL     1      -7.426   5.304  67.347  1.00  0.00    -0.084 C  
ENDROOT
BRANCH   2   4
HETATM    4  C   UNL     1      -9.838   5.426  67.774  1.00  0.00    -0.143 C  
BRANCH   4   5
HETATM    5  C   UNL     1     -10.006   6.498  66.689  1.00  0.00    -0.143 C  
BRANCH   5   6
HETATM    6  O   UNL     1     -10.901   7.547  67.072  1.00  0.00    -0.348 OA 
BRANCH   6   7
HETATM    7  C   UNL     1     -10.364   8.794  66.972  1.00  0.00    -0.283 C  
HETATM    8  C   UNL     1     -10.958   9.710  68.044  1.00  0.00    -0.197 C  
HETATM    9  O   UNL     1      -9.592   9.146  66.091  1.00  0.00    -0.224 OA 
HETATM   10  C   UNL     1     -10.618   9.274  69.469  1.00  0.00    -0.236 A  
HETATM   11  C   UNL     1     -10.648  11.209  67.750  1.00  0.00    -0.209 C  
HETATM   12  O   UNL     1      -9.240  11.465  67.805  1.00  0.00    -0.152 OA 
HETATM   13  C   UNL     1      -9.376   8.715  69.800  1.00  0.00    -0.165 A  
HETATM   14  C   UNL     1     -11.185  11.700  66.394  1.00  0.00    -0.349 C  
HETATM   15  C   UNL     1     -11.170  13.220  66.529  1.00  0.00    -0.329 C  
HETATM   16  H   UNL     1      -9.051  12.379  67.626  1.00  0.00     0.000 HD 
HETATM   17  C   UNL     1      -9.086   8.373  71.123  1.00  0.00    -0.217 A  
HETATM   18  C   UNL     1     -10.019   8.606  72.132  1.00  0.00    -0.386 A  
HETATM   19  C   UNL     1     -11.593  13.481  67.966  1.00  0.00    -0.372 C  
HETATM   20  C   UNL     1     -11.345  12.177  68.729  1.00  0.00    -0.339 C  
HETATM   21  C   UNL     1     -11.255   9.155  71.818  1.00  0.00    -0.451 A  
HETATM   22  C   UNL     1     -11.560   9.468  70.495  1.00  0.00    -0.316 A  
ENDBRANCH   6   7
ENDBRANCH   5   6
ENDBRANCH   4   5
ENDBRANCH   2   4
TORSDOF 4
ENDMDL
MODEL       98
REMARK 921   NORMALIZED FREE ENERGY PREDICTED BY IDOCK:   -4.25 KCAL/MOL
REMARK 922        TOTAL FREE ENERGY PREDICTED BY IDOCK:   -5.54 KCAL/MOL
REMARK 923 INTER-LIGAND FREE ENERGY PREDICTED BY IDOCK:   -5.19 KCAL/MOL
REMARK 924 INTRA-LIGAND FREE ENERGY PREDICTED BY IDOCK:   -0.35 KCAL/MOL
REMARK 927      BINDING AFFINITY PREDICTED BY RF-SCORE:    0.00 PKD
ROOT
HETATM    1  C   UNL     1      -9.348   5.216  67.021  1.00  0.00    -0.124 C  
HETATM    2  N   UNL     1     -10.515   5.685  67.769  1.00  0.00    -0.217 NA 
HETATM    3  C   UNL     1     -10.173   5.800  69.191  1.00  0.00    -0.223 C  
ENDROOT
BRANCH   2   4
HETATM    4  C   UNL     1     -11.023   6.958  67.203  1.00  0.00    -0.357 C  
BRANCH   4   5
HETATM    5  C   UNL     1     -10.596   8.183  68.022  1.00  0.00    -0.126 C  
BRANCH   5   6
HETATM    6  O   UNL     1     -10.540   9.385  67.247  1.00  0.00    -0.267 OA 
BRANCH   6   7
HETATM    7  C   UNL     1      -9.309   9.650  66.728  1.00  0.00    -0.152 C  
HETATM    8  C   UNL     1      -9.429  10.002  65.244  1.00  0.00    -0.323 C  
HETATM    9  O   UNL     1      -8.259   9.527  67.343  1.00  0.00    -0.113 OA 
HETATM   10  C   UNL     1     -10.221  11.284  64.989  1.00  0.00    -0.339 A  
HETATM   11  C   UNL     1      -8.041   9.965  64.535  1.00  0.00    -0.149 C  
HETATM   12  O   UNL     1      -7.162  10.961  65.067  1.00  0.00    -0.355 OA 
HETATM   13  C   UNL     1     -10.148  12.388  65.848  1.00  0.00    -0.272 A  
HETATM   14  C   UNL     1      -7.340   8.597  64.615  1.00  0.00    -0.094 C  
HETATM   15  C   UNL     1      -6.282   8.669  63.517  1.00  0.00    -0.081 C  
HETATM   16  H   UNL     1      -6.316  10.938  64.635  1.00  0.00     0.000 HD 
HETATM   17  C   UNL     1     -10.850  13.560  65.555  1.00  0.00    -0.293 A  
HETATM   18  C   UNL     1     -11.614  13.652  64.392  1.00  0.00    -0.421 A  
HETATM   19  C   UNL     1      -6.959   9.421  62.381  1.00  0.00    -0.097 C  
HETATM   20  C   UNL     1      -8.133  10.178  63.009  1.00  0.00    -0.152 C  
HETATM   21  C   UNL     1     -11.699  12.563  63.533  1.00  0.00    -0.595 A  
HETATM   22  C   UNL     1     -11.024  11.383  63.839  1.00  0.00    -0.442 A  
ENDBRANCH   6   7
ENDBRANCH   5   6
ENDBRANCH   4   5
ENDBRANCH   2   4
TORSDOF 4
ENDMDL
MODEL       99
REMARK 921   NORMALIZED FREE ENERGY PREDICTED BY IDOCK:   -4.24 KCAL/MOL
REMARK 922        TOTAL FREE ENERGY PREDICTED BY IDOCK:   -5.54 KCAL/MOL
REMARK 923 INTER-LIGAND FREE ENERGY PREDICTED BY IDOCK:   -5.25 KCAL/MOL
REMARK 924 INTRA-LIGAND FREE ENERGY PREDICTED BY IDOCK:   -0.30 KCAL/MOL
REMARK 927      BINDING AFFINITY PREDICTED BY RF-SCORE:    0.00 PKD
ROOT
HETATM    1  C   UNL     1     -11.256  10.237  67.469  1.00  0.00    -0.117 C  
HETATM    2  N   UNL     1     -10.483  10.325  68.708  1.00  0.00    -0.191 NA 
HETATM    3  C   UNL     1     -10.438   9.009  69.354  1.00  0.00    -0.222 C  
ENDROOT
BRANCH   2   4
HETATM    4  C   UNL     1      -9.130  10.874  68.443  1.00  0.00    -0.164 C  
BRANCH   4   5
HETATM    5  C   UNL     1      -9.048  12.387  68.685  1.00  0.00     0.027 C  
BRANCH   5   6
HETATM    6  O   UNL     1     -10.304  12.966  69.049  1.00  0.00    -0.094 OA 
BRANCH   6   7
HETATM    7  C   UNL     1     -10.368  14.313  68.859  1.00  0.00    -0.215 C  
HETATM    8  C   UNL     1      -9.858  14.671  67.462  1.00  0.00    -0.218 C  
HETATM    9  O   UNL     1     -10.694  15.118  69.720  1.00  0.00    -0.259 OA 
HETATM   10  C   UNL     1     -10.722  14.099  66.338  1.00  0.00    -0.288 A  
HETATM   11  C   UNL     1      -9.581  16.199  67.330  1.00  0.00    -0.229 C  
HETATM   12  O   UNL     1     -10.787  16.958  67.474  1.00  0.00    -0.304 OA 
HETATM   13  C   UNL     1     -12.116  14.001  66.446  1.00  0.00    -0.483 A  
HETATM   14  C   UNL     1      -8.543  16.731  68.334  1.00  0.00    -0.235 C  
HETATM   15  C   UNL     1      -8.118  18.070  67.739  1.00  0.00    -0.237 C  
HETATM   16  H   UNL     1     -10.617  17.889  67.393  1.00  0.00     0.000 HD 
HETATM   17  C   UNL     1     -12.875  13.517  65.378  1.00  0.00    -0.420 A  
HETATM   18  C   UNL     1     -12.257  13.146  64.185  1.00  0.00    -0.465 A  
HETATM   19  C   UNL     1      -8.076  17.827  66.238  1.00  0.00    -0.269 C  
HETATM   20  C   UNL     1      -8.935  16.585  65.982  1.00  0.00    -0.276 C  
HETATM   21  C   UNL     1     -10.875  13.233  64.065  1.00  0.00    -0.287 A  
HETATM   22  C   UNL     1     -10.113  13.687  65.140  1.00  0.00    -0.298 A  
ENDBRANCH   6   7
ENDBRANCH   5   6
ENDBRANCH   4   5
ENDBRANCH   2   4
TORSDOF 4
ENDMDL
MODEL      100
REMARK 921   NORMALIZED FREE ENERGY PREDICTED BY IDOCK:   -4.24 KCAL/MOL
REMARK 922        TOTAL FREE ENERGY PREDICTED BY IDOCK:   -5.53 KCAL/MOL
REMARK 923 INTER-LIGAND FREE ENERGY PREDICTED BY IDOCK:   -5.70 KCAL/MOL
REMARK 924 INTRA-LIGAND FREE ENERGY PREDICTED BY IDOCK:    0.17 KCAL/MOL
REMARK 927      BINDING AFFINITY PREDICTED BY RF-SCORE:    0.00 PKD
ROOT
HETATM    1  C   UNL     1      -6.538  21.050  62.641  1.00  0.00     0.039 C  
HETATM    2  N   UNL     1      -6.349  20.116  63.750  1.00  0.00    -0.217 NA 
HETATM    3  C   UNL     1      -5.142  19.316  63.519  1.00  0.00    -0.246 C  
ENDROOT
BRANCH   2   4
HETATM    4  C   UNL     1      -6.310  20.841  65.044  1.00  0.00    -0.251 C  
BRANCH   4   5
HETATM    5  C   UNL     1      -7.434  20.413  65.997  1.00  0.00    -0.137 C  
BRANCH   5   6
HETATM    6  O   UNL     1      -7.944  19.107  65.712  1.00  0.00    -0.456 OA 
BRANCH   6   7
HETATM    7  C   UNL     1      -8.966  18.724  66.525  1.00  0.00    -0.319 C  
HETATM    8  C   UNL     1      -8.484  17.659  67.511  1.00  0.00    -0.220 C  
HETATM    9  O   UNL     1     -10.122  19.110  66.411  1.00  0.00    -0.361 OA 
HETATM   10  C   UNL     1      -7.415  18.169  68.477  1.00  0.00    -0.289 A  
HETATM   11  C   UNL     1      -9.679  16.944  68.211  1.00  0.00    -0.256 C  
HETATM   12  O   UNL     1     -10.429  17.861  69.016  1.00  0.00    -0.415 OA 
HETATM   13  C   UNL     1      -7.436  19.474  68.989  1.00  0.00    -0.380 A  
HETATM   14  C   UNL     1     -10.643  16.246  67.234  1.00  0.00    -0.298 C  
HETATM   15  C   UNL     1     -11.422  15.282  68.124  1.00  0.00    -0.357 C  
HETATM   16  H   UNL     1     -11.158  17.425  69.442  1.00  0.00     0.000 HD 
HETATM   17  C   UNL     1      -6.468  19.888  69.907  1.00  0.00    -0.372 A  
HETATM   18  C   UNL     1      -5.485  19.002  70.343  1.00  0.00    -0.245 A  
HETATM   19  C   UNL     1     -10.395  14.759  69.116  1.00  0.00    -0.237 C  
HETATM   20  C   UNL     1      -9.243  15.769  69.110  1.00  0.00    -0.256 C  
HETATM   21  C   UNL     1      -5.449  17.706  69.842  1.00  0.00    -0.230 A  
HETATM   22  C   UNL     1      -6.395  17.300  68.902  1.00  0.00    -0.199 A  
ENDBRANCH   6   7
ENDBRANCH   5   6
ENDBRANCH   4   5
ENDBRANCH   2   4
TORSDOF 4
ENDMDL
MODEL      101
REMARK 921   NORMALIZED FREE ENERGY PREDICTED BY IDOCK:   -4.23 KCAL/MOL
REMARK 922        TOTAL FREE ENERGY PREDICTED BY IDOCK:   -5.53 KCAL/MOL
REMARK 923 INTER-LIGAND FREE ENERGY PREDICTED BY IDOCK:   -5.21 KCAL/MOL
REMARK 924 INTRA-LIGAND FREE ENERGY PREDICTED BY IDOCK:   -0.32 KCAL/MOL
REMARK 927      BINDING AFFINITY PREDICTED BY RF-SCORE:    0.00 PKD
ROOT
HETATM    1  C   UNL     1      -6.844   7.382  74.528  1.00  0.00    -0.097 C  
HETATM    2  N   UNL     1      -6.857   8.527  73.619  1.00  0.00    -0.266 NA 
HETATM    3  C   UNL     1      -5.480   8.928  73.314  1.00  0.00    -0.092 C  
ENDROOT
BRANCH   2   4
HETATM    4  C   UNL     1      -7.641   8.218  72.398  1.00  0.00    -0.120 C  
BRANCH   4   5
HETATM    5  C   UNL     1      -7.175   9.019  71.175  1.00  0.00    -0.097 C  
BRANCH   5   6
HETATM    6  O   UNL     1      -8.175   9.913  70.677  1.00  0.00    -0.210 OA 
BRANCH   6   7
HETATM    7  C   UNL     1      -8.704   9.537  69.480  1.00  0.00    -0.174 C  
HETATM    8  C   UNL     1      -9.779   8.470  69.692  1.00  0.00    -0.179 C  
HETATM    9  O   UNL     1      -8.304   9.931  68.393  1.00  0.00    -0.105 OA 
HETATM   10  C   UNL     1     -10.984   8.975  70.487  1.00  0.00    -0.295 A  
HETATM   11  C   UNL     1     -10.155   7.764  68.355  1.00  0.00    -0.192 C  
HETATM   12  O   UNL     1     -10.747   8.686  67.433  1.00  0.00    -0.413 OA 
HETATM   13  C   UNL     1     -11.474  10.280  70.347  1.00  0.00    -0.415 A  
HETATM   14  C   UNL     1      -8.967   7.071  67.663  1.00  0.00    -0.117 C  
HETATM   15  C   UNL     1      -9.632   6.113  66.679  1.00  0.00    -0.181 C  
HETATM   16  H   UNL     1     -10.976   8.256  66.617  1.00  0.00     0.000 HD 
HETATM   17  C   UNL     1     -12.607  10.689  71.055  1.00  0.00    -0.516 A  
HETATM   18  C   UNL     1     -13.275   9.797  71.891  1.00  0.00    -0.545 A  
HETATM   19  C   UNL     1     -10.850   5.585  67.421  1.00  0.00    -0.118 C  
HETATM   20  C   UNL     1     -11.135   6.587  68.543  1.00  0.00    -0.347 C  
HETATM   21  C   UNL     1     -12.798   8.501  72.044  1.00  0.00    -0.414 A  
HETATM   22  C   UNL     1     -11.650   8.100  71.362  1.00  0.00    -0.314 A  
ENDBRANCH   6   7
ENDBRANCH   5   6
ENDBRANCH   4   5
ENDBRANCH   2   4
TORSDOF 4
ENDMDL
MODEL      102
REMARK 921   NORMALIZED FREE ENERGY PREDICTED BY IDOCK:   -4.22 KCAL/MOL
REMARK 922        TOTAL FREE ENERGY PREDICTED BY IDOCK:   -5.51 KCAL/MOL
REMARK 923 INTER-LIGAND FREE ENERGY PREDICTED BY IDOCK:   -5.12 KCAL/MOL
REMARK 924 INTRA-LIGAND FREE ENERGY PREDICTED BY IDOCK:   -0.39 KCAL/MOL
REMARK 927      BINDING AFFINITY PREDICTED BY RF-SCORE:    0.00 PKD
ROOT
HETATM    1  C   UNL     1     -11.465  16.227  68.812  1.00  0.00    -0.289 C  
HETATM    2  N   UNL     1     -10.787  15.298  69.716  1.00  0.00    -0.271 NA 
HETATM    3  C   UNL     1     -11.763  14.362  70.283  1.00  0.00    -0.288 C  
ENDROOT
BRANCH   2   4
HETATM    4  C   UNL     1      -9.676  14.606  69.018  1.00  0.00    -0.160 C  
BRANCH   4   5
HETATM    5  C   UNL     1     -10.142  13.362  68.250  1.00  0.00    -0.247 C  
BRANCH   5   6
HETATM    6  O   UNL     1      -9.427  12.177  68.616  1.00  0.00    -0.156 OA 
BRANCH   6   7
HETATM    7  C   UNL     1      -9.756  11.084  67.875  1.00  0.00    -0.172 C  
HETATM    8  C   UNL     1      -9.784   9.837  68.761  1.00  0.00    -0.165 C  
HETATM    9  O   UNL     1      -9.911  11.092  66.661  1.00  0.00    -0.191 OA 
HETATM   10  C   UNL     1     -10.862   9.888  69.843  1.00  0.00    -0.316 A  
HETATM   11  C   UNL     1      -9.804   8.532  67.909  1.00  0.00    -0.170 C  
HETATM   12  O   UNL     1     -11.002   8.441  67.131  1.00  0.00    -0.425 OA 
HETATM   13  C   UNL     1     -12.115  10.474  69.619  1.00  0.00    -0.241 A  
HETATM   14  C   UNL     1      -8.594   8.386  66.968  1.00  0.00    -0.124 C  
HETATM   15  C   UNL     1      -8.595   6.903  66.607  1.00  0.00    -0.124 C  
HETATM   16  H   UNL     1     -11.014   7.645  66.612  1.00  0.00     0.000 HD 
HETATM   17  C   UNL     1     -13.091  10.458  70.618  1.00  0.00    -0.293 A  
HETATM   18  C   UNL     1     -12.838   9.838  71.841  1.00  0.00    -0.520 A  
HETATM   19  C   UNL     1      -9.000   6.195  67.890  1.00  0.00    -0.112 C  
HETATM   20  C   UNL     1      -9.691   7.249  68.760  1.00  0.00    -0.151 C  
HETATM   21  C   UNL     1     -11.599   9.256  72.079  1.00  0.00    -0.305 A  
HETATM   22  C   UNL     1     -10.612   9.298  71.095  1.00  0.00    -0.402 A  
ENDBRANCH   6   7
ENDBRANCH   5   6
ENDBRANCH   4   5
ENDBRANCH   2   4
TORSDOF 4
ENDMDL
MODEL      103
REMARK 921   NORMALIZED FREE ENERGY PREDICTED BY IDOCK:   -4.22 KCAL/MOL
REMARK 922        TOTAL FREE ENERGY PREDICTED BY IDOCK:   -5.51 KCAL/MOL
REMARK 923 INTER-LIGAND FREE ENERGY PREDICTED BY IDOCK:   -5.07 KCAL/MOL
REMARK 924 INTRA-LIGAND FREE ENERGY PREDICTED BY IDOCK:   -0.44 KCAL/MOL
REMARK 927      BINDING AFFINITY PREDICTED BY RF-SCORE:    0.00 PKD
ROOT
HETATM    1  C   UNL     1      -7.114  18.904  67.764  1.00  0.00    -0.227 C  
HETATM    2  N   UNL     1      -7.898  17.670  67.704  1.00  0.00    -0.204 NA 
HETATM    3  C   UNL     1      -7.615  16.969  66.447  1.00  0.00    -0.315 C  
ENDROOT
BRANCH   2   4
HETATM    4  C   UNL     1      -7.637  16.827  68.896  1.00  0.00    -0.239 C  
BRANCH   4   5
HETATM    5  C   UNL     1      -8.757  15.810  69.158  1.00  0.00    -0.253 C  
BRANCH   5   6
HETATM    6  O   UNL     1     -10.038  16.259  68.707  1.00  0.00    -0.222 OA 
BRANCH   6   7
HETATM    7  C   UNL     1     -10.686  15.366  67.908  1.00  0.00    -0.286 C  
HETATM    8  C   UNL     1     -10.997  14.089  68.691  1.00  0.00    -0.281 C  
HETATM    9  O   UNL     1     -10.898  15.533  66.715  1.00  0.00    -0.311 OA 
HETATM   10  C   UNL     1     -11.963  14.313  69.854  1.00  0.00    -0.397 A  
HETATM   11  C   UNL     1     -11.410  12.924  67.742  1.00  0.00    -0.299 C  
HETATM   12  O   UNL     1     -12.629  13.225  67.054  1.00  0.00    -0.152 OA 
HETATM   13  C   UNL     1     -13.025  15.224  69.776  1.00  0.00     0.191 A  
HETATM   14  C   UNL     1     -10.335  12.561  66.701  1.00  0.00    -0.244 C  
HETATM   15  C   UNL     1     -10.751  11.173  66.223  1.00  0.00    -0.298 C  
HETATM   16  H   UNL     1     -12.880  12.515  66.475  1.00  0.00     0.000 HD 
HETATM   17  C   UNL     1     -13.915  15.365  70.844  1.00  0.00    -0.172 A  
HETATM   18  C   UNL     1     -13.771  14.584  71.989  1.00  0.00    -0.528 A  
HETATM   19  C   UNL     1     -11.259  10.472  67.473  1.00  0.00    -0.299 C  
HETATM   20  C   UNL     1     -11.598  11.580  68.476  1.00  0.00    -0.377 C  
HETATM   21  C   UNL     1     -12.720  13.680  72.083  1.00  0.00    -0.266 A  
HETATM   22  C   UNL     1     -11.812  13.559  71.032  1.00  0.00     0.109 A  
ENDBRANCH   6   7
ENDBRANCH   5   6
ENDBRANCH   4   5
ENDBRANCH   2   4
TORSDOF 4
ENDMDL
MODEL      104
REMARK 921   NORMALIZED FREE ENERGY PREDICTED BY IDOCK:   -4.19 KCAL/MOL
REMARK 922        TOTAL FREE ENERGY PREDICTED BY IDOCK:   -5.47 KCAL/MOL
REMARK 923 INTER-LIGAND FREE ENERGY PREDICTED BY IDOCK:   -4.92 KCAL/MOL
REMARK 924 INTRA-LIGAND FREE ENERGY PREDICTED BY IDOCK:   -0.55 KCAL/MOL
REMARK 927      BINDING AFFINITY PREDICTED BY RF-SCORE:    0.00 PKD
ROOT
HETATM    1  C   UNL     1     -10.006  11.513  68.502  1.00  0.00    -0.204 C  
HETATM    2  N   UNL     1      -9.918  10.398  67.561  1.00  0.00    -0.175 NA 
HETATM    3  C   UNL     1     -10.300  10.854  66.220  1.00  0.00    -0.250 C  
ENDROOT
BRANCH   2   4
HETATM    4  C   UNL     1      -8.563   9.794  67.590  1.00  0.00    -0.125 C  
BRANCH   4   5
HETATM    5  C   UNL     1      -8.560   8.373  68.170  1.00  0.00    -0.139 C  
BRANCH   5   6
HETATM    6  O   UNL     1      -7.907   8.288  69.440  1.00  0.00    -0.100 OA 
BRANCH   6   7
HETATM    7  C   UNL     1      -8.721   8.558  70.498  1.00  0.00    -0.152 C  
HETATM    8  C   UNL     1      -9.871   7.551  70.547  1.00  0.00    -0.183 C  
HETATM    9  O   UNL     1      -8.595   9.524  71.238  1.00  0.00    -0.247 OA 
HETATM   10  C   UNL     1      -9.408   6.115  70.794  1.00  0.00    -0.170 A  
HETATM   11  C   UNL     1     -11.004   8.024  71.508  1.00  0.00    -0.234 C  
HETATM   12  O   UNL     1     -10.538   8.097  72.859  1.00  0.00    -0.346 OA 
HETATM   13  C   UNL     1      -8.331   5.815  71.639  1.00  0.00    -0.124 A  
HETATM   14  C   UNL     1     -11.615   9.384  71.124  1.00  0.00    -0.415 C  
HETATM   15  C   UNL     1     -12.936   9.413  71.887  1.00  0.00    -0.502 C  
HETATM   16  H   UNL     1     -11.228   8.386  73.445  1.00  0.00     0.000 HD 
HETATM   17  C   UNL     1      -7.969   4.487  71.877  1.00  0.00    -0.098 A  
HETATM   18  C   UNL     1      -8.688   3.445  71.295  1.00  0.00    -0.122 A  
HETATM   19  C   UNL     1     -13.456   7.985  71.810  1.00  0.00    -0.378 C  
HETATM   20  C   UNL     1     -12.245   7.107  71.482  1.00  0.00    -0.396 C  
HETATM   21  C   UNL     1      -9.756   3.727  70.451  1.00  0.00    -0.225 A  
HETATM   22  C   UNL     1     -10.100   5.052  70.188  1.00  0.00    -0.338 A  
ENDBRANCH   6   7
ENDBRANCH   5   6
ENDBRANCH   4   5
ENDBRANCH   2   4
TORSDOF 4
ENDMDL
MODEL      105
REMARK 921   NORMALIZED FREE ENERGY PREDICTED BY IDOCK:   -4.17 KCAL/MOL
REMARK 922        TOTAL FREE ENERGY PREDICTED BY IDOCK:   -5.45 KCAL/MOL
REMARK 923 INTER-LIGAND FREE ENERGY PREDICTED BY IDOCK:   -5.15 KCAL/MOL
REMARK 924 INTRA-LIGAND FREE ENERGY PREDICTED BY IDOCK:   -0.29 KCAL/MOL
REMARK 927      BINDING AFFINITY PREDICTED BY RF-SCORE:    0.00 PKD
ROOT
HETATM    1  C   UNL     1     -12.287  13.877  66.016  1.00  0.00    -0.475 C  
HETATM    2  N   UNL     1     -12.129  12.428  65.901  1.00  0.00    -0.623 NA 
HETATM    3  C   UNL     1     -11.772  12.081  64.521  1.00  0.00    -0.305 C  
ENDROOT
BRANCH   2   4
HETATM    4  C   UNL     1     -11.139  11.928  66.886  1.00  0.00    -0.305 C  
BRANCH   4   5
HETATM    5  C   UNL     1     -10.522  10.584  66.476  1.00  0.00    -0.212 C  
BRANCH   5   6
HETATM    6  O   UNL     1     -10.762   9.543  67.428  1.00  0.00    -0.279 OA 
BRANCH   6   7
HETATM    7  C   UNL     1      -9.635   8.896  67.835  1.00  0.00    -0.148 C  
HETATM    8  C   UNL     1      -9.419   9.108  69.334  1.00  0.00    -0.161 C  
HETATM    9  O   UNL     1      -8.864   8.314  67.085  1.00  0.00    -0.133 OA 
HETATM   10  C   UNL     1     -10.525   8.501  70.197  1.00  0.00    -0.226 A  
HETATM   11  C   UNL     1      -7.980   8.694  69.768  1.00  0.00    -0.095 C  
HETATM   12  O   UNL     1      -7.766   7.292  69.573  1.00  0.00    -0.107 OA 
HETATM   13  C   UNL     1     -11.154   7.295  69.861  1.00  0.00    -0.233 A  
HETATM   14  C   UNL     1      -6.866   9.468  69.040  1.00  0.00    -0.054 C  
HETATM   15  C   UNL     1      -5.637   9.237  69.915  1.00  0.00    -0.032 C  
HETATM   16  H   UNL     1      -6.888   7.040  69.836  1.00  0.00     0.000 HD 
HETATM   17  C   UNL     1     -12.127   6.748  70.701  1.00  0.00    -0.371 A  
HETATM   18  C   UNL     1     -12.468   7.384  71.893  1.00  0.00    -0.334 A  
HETATM   19  C   UNL     1      -6.166   9.279  71.340  1.00  0.00    -0.066 C  
HETATM   20  C   UNL     1      -7.673   9.021  71.244  1.00  0.00    -0.118 C  
HETATM   21  C   UNL     1     -11.856   8.584  72.237  1.00  0.00    -0.453 A  
HETATM   22  C   UNL     1     -10.907   9.147  71.386  1.00  0.00    -0.419 A  
ENDBRANCH   6   7
ENDBRANCH   5   6
ENDBRANCH   4   5
ENDBRANCH   2   4
TORSDOF 4
ENDMDL
MODEL      106
REMARK 921   NORMALIZED FREE ENERGY PREDICTED BY IDOCK:   -4.14 KCAL/MOL
REMARK 922        TOTAL FREE ENERGY PREDICTED BY IDOCK:   -5.42 KCAL/MOL
REMARK 923 INTER-LIGAND FREE ENERGY PREDICTED BY IDOCK:   -5.13 KCAL/MOL
REMARK 924 INTRA-LIGAND FREE ENERGY PREDICTED BY IDOCK:   -0.28 KCAL/MOL
REMARK 927      BINDING AFFINITY PREDICTED BY RF-SCORE:    0.00 PKD
ROOT
HETATM    1  C   UNL     1      -8.071   6.441  69.158  1.00  0.00    -0.111 C  
HETATM    2  N   UNL     1      -9.404   6.890  68.757  1.00  0.00    -0.131 NA 
HETATM    3  C   UNL     1     -10.040   7.598  69.873  1.00  0.00    -0.198 C  
ENDROOT
BRANCH   2   4
HETATM    4  C   UNL     1      -9.331   7.717  67.528  1.00  0.00    -0.139 C  
BRANCH   4   5
HETATM    5  C   UNL     1     -10.525   8.670  67.383  1.00  0.00    -0.281 C  
BRANCH   5   6
HETATM    6  O   UNL     1     -10.150  10.050  67.435  1.00  0.00    -0.186 OA 
BRANCH   6   7
HETATM    7  C   UNL     1     -10.182  10.676  66.226  1.00  0.00    -0.245 C  
HETATM    8  C   UNL     1     -10.408  12.177  66.417  1.00  0.00    -0.246 C  
HETATM    9  O   UNL     1     -10.133  10.101  65.148  1.00  0.00    -0.326 OA 
HETATM   10  C   UNL     1      -9.268  12.871  67.162  1.00  0.00    -0.225 A  
HETATM   11  C   UNL     1     -10.802  12.870  65.077  1.00  0.00    -0.299 C  
HETATM   12  O   UNL     1      -9.739  12.790  64.122  1.00  0.00    -0.595 OA 
HETATM   13  C   UNL     1      -7.929  12.499  66.986  1.00  0.00    -0.086 A  
HETATM   14  C   UNL     1     -12.082  12.302  64.437  1.00  0.00    -0.481 C  
HETATM   15  C   UNL     1     -12.499  13.384  63.445  1.00  0.00    -0.229 C  
HETATM   16  H   UNL     1      -9.979  13.212  63.305  1.00  0.00     0.000 HD 
HETATM   17  C   UNL     1      -6.911  13.189  67.649  1.00  0.00    -0.160 A  
HETATM   18  C   UNL     1      -7.214  14.270  68.474  1.00  0.00    -0.118 A  
HETATM   19  C   UNL     1     -12.189  14.694  64.151  1.00  0.00    -0.343 C  
HETATM   20  C   UNL     1     -11.175  14.358  65.249  1.00  0.00    -0.345 C  
HETATM   21  C   UNL     1      -8.538  14.648  68.662  1.00  0.00    -0.172 A  
HETATM   22  C   UNL     1      -9.558  13.941  68.026  1.00  0.00    -0.219 A  
ENDBRANCH   6   7
ENDBRANCH   5   6
ENDBRANCH   4   5
ENDBRANCH   2   4
TORSDOF 4
ENDMDL
MODEL      107
REMARK 921   NORMALIZED FREE ENERGY PREDICTED BY IDOCK:   -4.14 KCAL/MOL
REMARK 922        TOTAL FREE ENERGY PREDICTED BY IDOCK:   -5.41 KCAL/MOL
REMARK 923 INTER-LIGAND FREE ENERGY PREDICTED BY IDOCK:   -5.10 KCAL/MOL
REMARK 924 INTRA-LIGAND FREE ENERGY PREDICTED BY IDOCK:   -0.32 KCAL/MOL
REMARK 927      BINDING AFFINITY PREDICTED BY RF-SCORE:    0.00 PKD
ROOT
HETATM    1  C   UNL     1      -7.424   9.402  67.155  1.00  0.00    -0.091 C  
HETATM    2  N   UNL     1      -8.667   9.434  66.385  1.00  0.00    -0.133 NA 
HETATM    3  C   UNL     1      -8.529   8.590  65.193  1.00  0.00    -0.175 C  
ENDROOT
BRANCH   2   4
HETATM    4  C   UNL     1      -9.818   9.036  67.232  1.00  0.00    -0.196 C  
BRANCH   4   5
HETATM    5  C   UNL     1      -9.437   8.005  68.303  1.00  0.00    -0.141 C  
BRANCH   5   6
HETATM    6  O   UNL     1     -10.558   7.256  68.784  1.00  0.00    -0.204 OA 
BRANCH   6   7
HETATM    7  C   UNL     1     -10.268   6.444  69.837  1.00  0.00    -0.183 C  
HETATM    8  C   UNL     1     -10.397   7.220  71.150  1.00  0.00    -0.207 C  
HETATM    9  O   UNL     1      -9.870   5.292  69.734  1.00  0.00    -0.173 OA 
HETATM   10  C   UNL     1     -11.822   7.697  71.432  1.00  0.00    -0.320 A  
HETATM   11  C   UNL     1      -9.743   6.449  72.336  1.00  0.00    -0.153 C  
HETATM   12  O   UNL     1     -10.420   5.213  72.585  1.00  0.00    -0.194 OA 
HETATM   13  C   UNL     1     -12.945   6.932  71.092  1.00  0.00    -0.248 A  
HETATM   14  C   UNL     1      -8.245   6.156  72.134  1.00  0.00    -0.110 C  
HETATM   15  C   UNL     1      -7.749   5.830  73.540  1.00  0.00    -0.101 C  
HETATM   16  H   UNL     1     -10.021   4.742  73.308  1.00  0.00     0.000 HD 
HETATM   17  C   UNL     1     -14.229   7.382  71.410  1.00  0.00    -0.508 A  
HETATM   18  C   UNL     1     -14.406   8.585  72.090  1.00  0.00    -0.529 A  
HETATM   19  C   UNL     1      -8.503   6.791  74.446  1.00  0.00    -0.174 C  
HETATM   20  C   UNL     1      -9.727   7.256  73.651  1.00  0.00    -0.335 C  
HETATM   21  C   UNL     1     -13.302   9.357  72.430  1.00  0.00    -0.503 A  
HETATM   22  C   UNL     1     -12.022   8.926  72.087  1.00  0.00    -0.419 A  
ENDBRANCH   6   7
ENDBRANCH   5   6
ENDBRANCH   4   5
ENDBRANCH   2   4
TORSDOF 4
ENDMDL
MODEL      108
REMARK 921   NORMALIZED FREE ENERGY PREDICTED BY IDOCK:   -4.13 KCAL/MOL
REMARK 922        TOTAL FREE ENERGY PREDICTED BY IDOCK:   -5.41 KCAL/MOL
REMARK 923 INTER-LIGAND FREE ENERGY PREDICTED BY IDOCK:   -5.07 KCAL/MOL
REMARK 924 INTRA-LIGAND FREE ENERGY PREDICTED BY IDOCK:   -0.33 KCAL/MOL
REMARK 927      BINDING AFFINITY PREDICTED BY RF-SCORE:    0.00 PKD
ROOT
HETATM    1  C   UNL     1      -5.314  14.148  72.104  1.00  0.00    -0.214 C  
HETATM    2  N   UNL     1      -5.320  14.563  70.702  1.00  0.00    -0.121 NA 
HETATM    3  C   UNL     1      -6.347  13.813  69.972  1.00  0.00    -0.084 C  
ENDROOT
BRANCH   2   4
HETATM    4  C   UNL     1      -5.502  16.031  70.591  1.00  0.00    -0.110 C  
BRANCH   4   5
HETATM    5  C   UNL     1      -6.757  16.414  69.796  1.00  0.00    -0.051 C  
BRANCH   5   6
HETATM    6  O   UNL     1      -6.470  16.807  68.450  1.00  0.00    -0.138 OA 
BRANCH   6   7
HETATM    7  C   UNL     1      -7.230  16.172  67.515  1.00  0.00    -0.161 C  
HETATM    8  C   UNL     1      -8.713  16.452  67.765  1.00  0.00    -0.182 C  
HETATM    9  O   UNL     1      -6.787  15.414  66.663  1.00  0.00     0.028 OA 
HETATM   10  C   UNL     1      -9.086  17.925  67.606  1.00  0.00    -0.250 A  
HETATM   11  C   UNL     1      -9.622  15.478  66.955  1.00  0.00    -0.224 C  
HETATM   12  O   UNL     1      -9.457  15.670  65.546  1.00  0.00    -0.281 OA 
HETATM   13  C   UNL     1      -8.492  18.743  66.635  1.00  0.00    -0.299 A  
HETATM   14  C   UNL     1      -9.385  13.992  67.281  1.00  0.00    -0.230 C  
HETATM   15  C   UNL     1     -10.636  13.302  66.744  1.00  0.00    -0.276 C  
HETATM   16  H   UNL     1     -10.010  15.076  65.052  1.00  0.00     0.000 HD 
HETATM   17  C   UNL     1      -8.894  20.073  66.489  1.00  0.00    -0.414 A  
HETATM   18  C   UNL     1      -9.907  20.595  67.292  1.00  0.00    -0.529 A  
HETATM   19  C   UNL     1     -11.771  14.264  67.061  1.00  0.00    -0.427 C  
HETATM   20  C   UNL     1     -11.122  15.633  67.283  1.00  0.00    -0.238 C  
HETATM   21  C   UNL     1     -10.503  19.797  68.261  1.00  0.00    -0.449 A  
HETATM   22  C   UNL     1     -10.081  18.479  68.430  1.00  0.00    -0.423 A  
ENDBRANCH   6   7
ENDBRANCH   5   6
ENDBRANCH   4   5
ENDBRANCH   2   4
TORSDOF 4
ENDMDL
MODEL      109
REMARK 921   NORMALIZED FREE ENERGY PREDICTED BY IDOCK:   -4.13 KCAL/MOL
REMARK 922        TOTAL FREE ENERGY PREDICTED BY IDOCK:   -5.40 KCAL/MOL
REMARK 923 INTER-LIGAND FREE ENERGY PREDICTED BY IDOCK:   -5.15 KCAL/MOL
REMARK 924 INTRA-LIGAND FREE ENERGY PREDICTED BY IDOCK:   -0.26 KCAL/MOL
REMARK 927      BINDING AFFINITY PREDICTED BY RF-SCORE:    0.00 PKD
ROOT
HETATM    1  C   UNL     1     -12.006  15.576  69.725  1.00  0.00    -0.364 C  
HETATM    2  N   UNL     1     -11.709  14.718  70.871  1.00  0.00    -0.309 NA 
HETATM    3  C   UNL     1     -11.925  15.465  72.115  1.00  0.00    -0.429 C  
ENDROOT
BRANCH   2   4
HETATM    4  C   UNL     1     -12.509  13.470  70.813  1.00  0.00    -0.353 C  
BRANCH   4   5
HETATM    5  C   UNL     1     -12.061  12.531  69.684  1.00  0.00    -0.207 C  
BRANCH   5   6
HETATM    6  O   UNL     1     -11.698  11.228  70.150  1.00  0.00    -0.309 OA 
BRANCH   6   7
HETATM    7  C   UNL     1     -10.715  10.634  69.419  1.00  0.00    -0.244 C  
HETATM    8  C   UNL     1      -9.804   9.812  70.333  1.00  0.00    -0.269 C  
HETATM    9  O   UNL     1     -10.537  10.816  68.222  1.00  0.00    -0.178 OA 
HETATM   10  C   UNL     1     -10.521   8.642  71.007  1.00  0.00    -0.276 A  
HETATM   11  C   UNL     1      -8.482   9.412  69.611  1.00  0.00    -0.164 C  
HETATM   12  O   UNL     1      -8.741   8.549  68.498  1.00  0.00    -0.137 OA 
HETATM   13  C   UNL     1     -11.516   7.903  70.354  1.00  0.00    -0.154 A  
HETATM   14  C   UNL     1      -7.655  10.614  69.119  1.00  0.00    -0.131 C  
HETATM   15  C   UNL     1      -6.269  10.024  68.878  1.00  0.00    -0.044 C  
HETATM   16  H   UNL     1      -7.935   8.306  68.058  1.00  0.00     0.000 HD 
HETATM   17  C   UNL     1     -12.114   6.810  70.987  1.00  0.00    -0.426 A  
HETATM   18  C   UNL     1     -11.711   6.429  72.266  1.00  0.00    -0.333 A  
HETATM   19  C   UNL     1      -6.074   9.027  70.010  1.00  0.00    -0.037 C  
HETATM   20  C   UNL     1      -7.474   8.701  70.539  1.00  0.00    -0.071 C  
HETATM   21  C   UNL     1     -10.728   7.155  72.927  1.00  0.00    -0.339 A  
HETATM   22  C   UNL     1     -10.152   8.265  72.310  1.00  0.00    -0.370 A  
ENDBRANCH   6   7
ENDBRANCH   5   6
ENDBRANCH   4   5
ENDBRANCH   2   4
TORSDOF 4
ENDMDL
MODEL      110
REMARK 921   NORMALIZED FREE ENERGY PREDICTED BY IDOCK:   -4.11 KCAL/MOL
REMARK 922        TOTAL FREE ENERGY PREDICTED BY IDOCK:   -5.38 KCAL/MOL
REMARK 923 INTER-LIGAND FREE ENERGY PREDICTED BY IDOCK:   -5.02 KCAL/MOL
REMARK 924 INTRA-LIGAND FREE ENERGY PREDICTED BY IDOCK:   -0.36 KCAL/MOL
REMARK 927      BINDING AFFINITY PREDICTED BY RF-SCORE:    0.00 PKD
ROOT
HETATM    1  C   UNL     1     -10.750  19.393  67.036  1.00  0.00    -0.474 C  
HETATM    2  N   UNL     1      -9.812  18.277  66.907  1.00  0.00    -0.314 NA 
HETATM    3  C   UNL     1      -8.752  18.407  67.912  1.00  0.00    -0.283 C  
ENDROOT
BRANCH   2   4
HETATM    4  C   UNL     1     -10.526  16.980  66.999  1.00  0.00    -0.279 C  
BRANCH   4   5
HETATM    5  C   UNL     1     -10.535  16.213  65.669  1.00  0.00    -0.383 C  
BRANCH   5   6
HETATM    6  O   UNL     1      -9.682  15.065  65.679  1.00  0.00    -0.339 OA 
BRANCH   6   7
HETATM    7  C   UNL     1     -10.174  14.018  66.397  1.00  0.00    -0.291 C  
HETATM    8  C   UNL     1      -9.041  13.065  66.783  1.00  0.00    -0.212 C  
HETATM    9  O   UNL     1     -11.363  13.826  66.614  1.00  0.00    -0.311 OA 
HETATM   10  C   UNL     1      -8.009  13.700  67.714  1.00  0.00    -0.172 A  
HETATM   11  C   UNL     1      -9.591  11.697  67.287  1.00  0.00    -0.174 C  
HETATM   12  O   UNL     1     -10.347  11.857  68.492  1.00  0.00    -0.210 OA 
HETATM   13  C   UNL     1      -8.369  14.614  68.713  1.00  0.00    -0.163 A  
HETATM   14  C   UNL     1     -10.463  10.960  66.254  1.00  0.00    -0.304 C  
HETATM   15  C   UNL     1     -10.497   9.524  66.770  1.00  0.00    -0.263 C  
HETATM   16  H   UNL     1     -10.683  11.023  68.799  1.00  0.00     0.000 HD 
HETATM   17  C   UNL     1      -7.403  15.136  69.576  1.00  0.00    -0.210 A  
HETATM   18  C   UNL     1      -6.072  14.735  69.469  1.00  0.00    -0.112 A  
HETATM   19  C   UNL     1      -9.096   9.276  67.307  1.00  0.00    -0.143 C  
HETATM   20  C   UNL     1      -8.483  10.658  67.555  1.00  0.00    -0.121 C  
HETATM   21  C   UNL     1      -5.699  13.832  68.481  1.00  0.00    -0.091 A  
HETATM   22  C   UNL     1      -6.656  13.334  67.599  1.00  0.00    -0.172 A  
ENDBRANCH   6   7
ENDBRANCH   5   6
ENDBRANCH   4   5
ENDBRANCH   2   4
TORSDOF 4
ENDMDL
MODEL      111
REMARK 921   NORMALIZED FREE ENERGY PREDICTED BY IDOCK:   -4.06 KCAL/MOL
REMARK 922        TOTAL FREE ENERGY PREDICTED BY IDOCK:   -5.31 KCAL/MOL
REMARK 923 INTER-LIGAND FREE ENERGY PREDICTED BY IDOCK:   -4.96 KCAL/MOL
REMARK 924 INTRA-LIGAND FREE ENERGY PREDICTED BY IDOCK:   -0.35 KCAL/MOL
REMARK 927      BINDING AFFINITY PREDICTED BY RF-SCORE:    0.00 PKD
ROOT
HETATM    1  C   UNL     1     -12.160  14.970  64.572  1.00  0.00    -0.363 C  
HETATM    2  N   UNL     1     -10.830  14.835  65.166  1.00  0.00    -0.375 NA 
HETATM    3  C   UNL     1     -10.919  15.026  66.618  1.00  0.00    -0.325 C  
ENDROOT
BRANCH   2   4
HETATM    4  C   UNL     1     -10.223  13.533  64.801  1.00  0.00    -0.332 C  
BRANCH   4   5
HETATM    5  C   UNL     1     -10.493  12.439  65.843  1.00  0.00    -0.256 C  
BRANCH   5   6
HETATM    6  O   UNL     1      -9.360  11.597  66.079  1.00  0.00    -0.223 OA 
BRANCH   6   7
HETATM    7  C   UNL     1      -9.566  10.292  65.753  1.00  0.00    -0.224 C  
HETATM    8  C   UNL     1      -8.845   9.381  66.749  1.00  0.00    -0.142 C  
HETATM    9  O   UNL     1     -10.160   9.914  64.752  1.00  0.00    -0.232 OA 
HETATM   10  C   UNL     1      -9.387   9.495  68.174  1.00  0.00    -0.141 A  
HETATM   11  C   UNL     1      -8.755   7.917  66.222  1.00  0.00    -0.154 C  
HETATM   12  O   UNL     1     -10.057   7.336  66.087  1.00  0.00    -0.445 OA 
HETATM   13  C   UNL     1     -10.749   9.692  68.439  1.00  0.00    -0.251 A  
HETATM   14  C   UNL     1      -8.016   7.784  64.879  1.00  0.00    -0.139 C  
HETATM   15  C   UNL     1      -7.666   6.300  64.805  1.00  0.00    -0.101 C  
HETATM   16  H   UNL     1     -10.002   6.443  65.766  1.00  0.00     0.000 HD 
HETATM   17  C   UNL     1     -11.212   9.743  69.756  1.00  0.00    -0.242 A  
HETATM   18  C   UNL     1     -10.327   9.577  70.821  1.00  0.00    -0.377 A  
HETATM   19  C   UNL     1      -7.299   5.920  66.230  1.00  0.00    -0.081 C  
HETATM   20  C   UNL     1      -7.916   6.994  67.131  1.00  0.00    -0.113 C  
HETATM   21  C   UNL     1      -8.974   9.385  70.573  1.00  0.00    -0.303 A  
HETATM   22  C   UNL     1      -8.505   9.365  69.261  1.00  0.00    -0.141 A  
ENDBRANCH   6   7
ENDBRANCH   5   6
ENDBRANCH   4   5
ENDBRANCH   2   4
TORSDOF 4
ENDMDL
MODEL      112
REMARK 921   NORMALIZED FREE ENERGY PREDICTED BY IDOCK:   -4.05 KCAL/MOL
REMARK 922        TOTAL FREE ENERGY PREDICTED BY IDOCK:   -5.30 KCAL/MOL
REMARK 923 INTER-LIGAND FREE ENERGY PREDICTED BY IDOCK:   -4.99 KCAL/MOL
REMARK 924 INTRA-LIGAND FREE ENERGY PREDICTED BY IDOCK:   -0.31 KCAL/MOL
REMARK 927      BINDING AFFINITY PREDICTED BY RF-SCORE:    0.00 PKD
ROOT
HETATM    1  C   UNL     1      -7.363   7.488  73.780  1.00  0.00    -0.100 C  
HETATM    2  N   UNL     1      -8.016   6.560  72.858  1.00  0.00    -0.105 NA 
HETATM    3  C   UNL     1      -7.618   5.185  73.181  1.00  0.00    -0.096 C  
ENDROOT
BRANCH   2   4
HETATM    4  C   UNL     1      -9.487   6.745  72.882  1.00  0.00    -0.138 C  
BRANCH   4   5
HETATM    5  C   UNL     1      -9.901   8.217  72.748  1.00  0.00    -0.283 C  
BRANCH   5   6
HETATM    6  O   UNL     1      -9.649   8.754  71.446  1.00  0.00    -0.215 OA 
BRANCH   6   7
HETATM    7  C   UNL     1     -10.696   9.450  70.924  1.00  0.00    -0.323 C  
HETATM    8  C   UNL     1     -10.311  10.038  69.565  1.00  0.00    -0.256 C  
HETATM    9  O   UNL     1     -11.752   9.651  71.507  1.00  0.00    -0.371 OA 
HETATM   10  C   UNL     1     -10.012   8.974  68.509  1.00  0.00    -0.193 A  
HETATM   11  C   UNL     1     -11.333  11.119  69.100  1.00  0.00    -0.273 C  
HETATM   12  O   UNL     1     -12.628  10.548  68.887  1.00  0.00    -0.682 OA 
HETATM   13  C   UNL     1     -10.722   7.767  68.445  1.00  0.00    -0.088 A  
HETATM   14  C   UNL     1     -11.472  12.302  70.076  1.00  0.00    -0.133 C  
HETATM   15  C   UNL     1     -12.134  13.388  69.234  1.00  0.00    -0.312 C  
HETATM   16  H   UNL     1     -13.251  11.207  68.604  1.00  0.00     0.000 HD 
HETATM   17  C   UNL     1     -10.451   6.840  67.436  1.00  0.00    -0.330 A  
HETATM   18  C   UNL     1      -9.487   7.115  66.467  1.00  0.00    -0.208 A  
HETATM   19  C   UNL     1     -11.499  13.249  67.859  1.00  0.00    -0.341 C  
HETATM   20  C   UNL     1     -10.910  11.837  67.801  1.00  0.00    -0.258 C  
HETATM   21  C   UNL     1      -8.772   8.305  66.520  1.00  0.00    -0.157 A  
HETATM   22  C   UNL     1      -9.019   9.218  67.544  1.00  0.00    -0.127 A  
ENDBRANCH   6   7
ENDBRANCH   5   6
ENDBRANCH   4   5
ENDBRANCH   2   4
TORSDOF 4
ENDMDL
MODEL      113
REMARK 921   NORMALIZED FREE ENERGY PREDICTED BY IDOCK:   -4.04 KCAL/MOL
REMARK 922        TOTAL FREE ENERGY PREDICTED BY IDOCK:   -5.28 KCAL/MOL
REMARK 923 INTER-LIGAND FREE ENERGY PREDICTED BY IDOCK:   -4.90 KCAL/MOL
REMARK 924 INTRA-LIGAND FREE ENERGY PREDICTED BY IDOCK:   -0.38 KCAL/MOL
REMARK 927      BINDING AFFINITY PREDICTED BY RF-SCORE:    0.00 PKD
ROOT
HETATM    1  C   UNL     1     -11.319  15.670  64.909  1.00  0.00    -0.315 C  
HETATM    2  N   UNL     1     -10.482  14.756  65.686  1.00  0.00    -0.325 NA 
HETATM    3  C   UNL     1     -10.968  14.700  67.069  1.00  0.00    -0.317 C  
ENDROOT
BRANCH   2   4
HETATM    4  C   UNL     1     -10.435  13.418  65.047  1.00  0.00    -0.365 C  
BRANCH   4   5
HETATM    5  C   UNL     1     -11.398  12.416  65.698  1.00  0.00    -0.347 C  
BRANCH   5   6
HETATM    6  O   UNL     1     -10.776  11.168  66.018  1.00  0.00    -0.259 OA 
BRANCH   6   7
HETATM    7  C   UNL     1     -10.837  10.843  67.338  1.00  0.00    -0.279 C  
HETATM    8  C   UNL     1      -9.500  10.259  67.799  1.00  0.00    -0.163 C  
HETATM    9  O   UNL     1     -11.848  10.921  68.023  1.00  0.00    -0.585 OA 
HETATM   10  C   UNL     1      -8.344  11.256  67.717  1.00  0.00    -0.125 A  
HETATM   11  C   UNL     1      -9.631   9.555  69.184  1.00  0.00    -0.170 C  
HETATM   12  O   UNL     1      -9.981  10.492  70.208  1.00  0.00    -0.357 OA 
HETATM   13  C   UNL     1      -8.515  12.618  67.996  1.00  0.00    -0.177 A  
HETATM   14  C   UNL     1     -10.653   8.404  69.201  1.00  0.00    -0.177 C  
HETATM   15  C   UNL     1     -10.286   7.615  70.455  1.00  0.00    -0.201 C  
HETATM   16  H   UNL     1     -10.062  10.064  71.052  1.00  0.00     0.000 HD 
HETATM   17  C   UNL     1      -7.424  13.490  67.957  1.00  0.00    -0.140 A  
HETATM   18  C   UNL     1      -6.149  13.009  67.662  1.00  0.00    -0.151 A  
HETATM   19  C   UNL     1      -8.766   7.652  70.501  1.00  0.00    -0.138 C  
HETATM   20  C   UNL     1      -8.341   8.832  69.623  1.00  0.00    -0.126 C  
HETATM   21  C   UNL     1      -5.965  11.662  67.379  1.00  0.00    -0.096 A  
HETATM   22  C   UNL     1      -7.057  10.796  67.387  1.00  0.00    -0.091 A  
ENDBRANCH   6   7
ENDBRANCH   5   6
ENDBRANCH   4   5
ENDBRANCH   2   4
TORSDOF 4
ENDMDL
MODEL      114
REMARK 921   NORMALIZED FREE ENERGY PREDICTED BY IDOCK:   -3.95 KCAL/MOL
REMARK 922        TOTAL FREE ENERGY PREDICTED BY IDOCK:   -5.18 KCAL/MOL
REMARK 923 INTER-LIGAND FREE ENERGY PREDICTED BY IDOCK:   -4.78 KCAL/MOL
REMARK 924 INTRA-LIGAND FREE ENERGY PREDICTED BY IDOCK:   -0.40 KCAL/MOL
REMARK 927      BINDING AFFINITY PREDICTED BY RF-SCORE:    0.00 PKD
ROOT
HETATM    1  C   UNL     1     -10.608   7.423  68.921  1.00  0.00    -0.176 C  
HETATM    2  N   UNL     1      -9.727   8.437  68.344  1.00  0.00    -0.152 NA 
HETATM    3  C   UNL     1     -10.047   8.617  66.924  1.00  0.00    -0.285 C  
ENDROOT
BRANCH   2   4
HETATM    4  C   UNL     1      -9.814   9.704  69.110  1.00  0.00    -0.186 C  
BRANCH   4   5
HETATM    5  C   UNL     1     -10.877  10.662  68.554  1.00  0.00    -0.233 C  
BRANCH   5   6
HETATM    6  O   UNL     1     -10.579  12.038  68.807  1.00  0.00    -0.227 OA 
BRANCH   6   7
HETATM    7  C   UNL     1     -10.635  12.828  67.699  1.00  0.00    -0.219 C  
HETATM    8  C   UNL     1      -9.367  13.677  67.593  1.00  0.00    -0.215 C  
HETATM    9  O   UNL     1     -11.604  12.909  66.957  1.00  0.00    -0.322 OA 
HETATM   10  C   UNL     1      -8.099  12.847  67.391  1.00  0.00    -0.181 A  
HETATM   11  C   UNL     1      -9.538  14.832  66.561  1.00  0.00    -0.284 C  
HETATM   12  O   UNL     1      -9.733  14.318  65.239  1.00  0.00    -0.553 OA 
HETATM   13  C   UNL     1      -8.088  11.680  66.616  1.00  0.00    -0.121 A  
HETATM   14  C   UNL     1     -10.695  15.793  66.890  1.00  0.00    -0.299 C  
HETATM   15  C   UNL     1     -10.387  17.029  66.049  1.00  0.00    -0.324 C  
HETATM   16  H   UNL     1      -9.838  15.022  64.609  1.00  0.00     0.000 HD 
HETATM   17  C   UNL     1      -6.898  10.976  66.416  1.00  0.00    -0.118 A  
HETATM   18  C   UNL     1      -5.704  11.439  66.966  1.00  0.00    -0.106 A  
HETATM   19  C   UNL     1      -8.874  17.169  66.112  1.00  0.00    -0.220 C  
HETATM   20  C   UNL     1      -8.334  15.796  66.522  1.00  0.00    -0.313 C  
HETATM   21  C   UNL     1      -5.701  12.593  67.741  1.00  0.00    -0.122 A  
HETATM   22  C   UNL     1      -6.892  13.280  67.968  1.00  0.00    -0.122 A  
ENDBRANCH   6   7
ENDBRANCH   5   6
ENDBRANCH   4   5
ENDBRANCH   2   4
TORSDOF 4
ENDMDL
MODEL      115
REMARK 921   NORMALIZED FREE ENERGY PREDICTED BY IDOCK:   -3.95 KCAL/MOL
REMARK 922        TOTAL FREE ENERGY PREDICTED BY IDOCK:   -5.18 KCAL/MOL
REMARK 923 INTER-LIGAND FREE ENERGY PREDICTED BY IDOCK:   -4.87 KCAL/MOL
REMARK 924 INTRA-LIGAND FREE ENERGY PREDICTED BY IDOCK:   -0.31 KCAL/MOL
REMARK 927      BINDING AFFINITY PREDICTED BY RF-SCORE:    0.00 PKD
ROOT
HETATM    1  C   UNL     1     -11.646  15.754  68.214  1.00  0.00    -0.298 C  
HETATM    2  N   UNL     1     -11.671  14.292  68.238  1.00  0.00    -0.325 NA 
HETATM    3  C   UNL     1     -12.048  13.784  66.915  1.00  0.00    -0.413 C  
ENDROOT
BRANCH   2   4
HETATM    4  C   UNL     1     -10.369  13.754  68.703  1.00  0.00    -0.224 C  
BRANCH   4   5
HETATM    5  C   UNL     1     -10.217  12.252  68.428  1.00  0.00    -0.217 C  
BRANCH   5   6
HETATM    6  O   UNL     1      -8.862  11.800  68.518  1.00  0.00    -0.169 OA 
BRANCH   6   7
HETATM    7  C   UNL     1      -8.740  10.463  68.742  1.00  0.00    -0.146 C  
HETATM    8  C   UNL     1      -9.414   9.677  67.615  1.00  0.00    -0.155 C  
HETATM    9  O   UNL     1      -8.246   9.972  69.748  1.00  0.00    -0.168 OA 
HETATM   10  C   UNL     1      -8.752   9.886  66.253  1.00  0.00    -0.152 A  
HETATM   11  C   UNL     1      -9.609   8.179  68.001  1.00  0.00    -0.156 C  
HETATM   12  O   UNL     1      -8.349   7.525  68.186  1.00  0.00    -0.123 OA 
HETATM   13  C   UNL     1      -7.366  10.036  66.113  1.00  0.00    -0.109 A  
HETATM   14  C   UNL     1     -10.462   7.970  69.265  1.00  0.00    -0.221 C  
HETATM   15  C   UNL     1     -10.879   6.504  69.179  1.00  0.00    -0.354 C  
HETATM   16  H   UNL     1      -8.468   6.612  68.421  1.00  0.00     0.000 HD 
HETATM   17  C   UNL     1      -6.795  10.176  64.847  1.00  0.00    -0.129 A  
HETATM   18  C   UNL     1      -7.594  10.145  63.705  1.00  0.00    -0.133 A  
HETATM   19  C   UNL     1     -11.143   6.266  67.701  1.00  0.00    -0.368 C  
HETATM   20  C   UNL     1     -10.409   7.381  66.950  1.00  0.00    -0.367 C  
HETATM   21  C   UNL     1      -8.971  10.001  63.828  1.00  0.00    -0.274 A  
HETATM   22  C   UNL     1      -9.547   9.892  65.093  1.00  0.00    -0.367 A  
ENDBRANCH   6   7
ENDBRANCH   5   6
ENDBRANCH   4   5
ENDBRANCH   2   4
TORSDOF 4
ENDMDL
MODEL      116
REMARK 921   NORMALIZED FREE ENERGY PREDICTED BY IDOCK:   -3.91 KCAL/MOL
REMARK 922        TOTAL FREE ENERGY PREDICTED BY IDOCK:   -5.14 KCAL/MOL
REMARK 923 INTER-LIGAND FREE ENERGY PREDICTED BY IDOCK:   -4.79 KCAL/MOL
REMARK 924 INTRA-LIGAND FREE ENERGY PREDICTED BY IDOCK:   -0.35 KCAL/MOL
REMARK 927      BINDING AFFINITY PREDICTED BY RF-SCORE:    0.00 PKD
ROOT
HETATM    1  C   UNL     1     -10.760  16.410  67.320  1.00  0.00    -0.257 C  
HETATM    2  N   UNL     1      -9.439  16.843  67.776  1.00  0.00    -0.234 NA 
HETATM    3  C   UNL     1      -9.587  17.921  68.759  1.00  0.00    -0.286 C  
ENDROOT
BRANCH   2   4
HETATM    4  C   UNL     1      -8.666  15.694  68.307  1.00  0.00    -0.174 C  
BRANCH   4   5
HETATM    5  C   UNL     1      -9.534  14.448  68.530  1.00  0.00    -0.212 C  
BRANCH   5   6
HETATM    6  O   UNL     1      -8.778  13.233  68.542  1.00  0.00    -0.151 OA 
BRANCH   6   7
HETATM    7  C   UNL     1      -9.094  12.376  67.533  1.00  0.00    -0.185 C  
HETATM    8  C   UNL     1      -9.193  10.947  68.068  1.00  0.00    -0.156 C  
HETATM    9  O   UNL     1      -9.189  12.698  66.357  1.00  0.00    -0.226 OA 
HETATM   10  C   UNL     1     -10.322  10.757  69.082  1.00  0.00    -0.238 A  
HETATM   11  C   UNL     1      -9.200   9.902  66.911  1.00  0.00    -0.147 C  
HETATM   12  O   UNL     1     -10.361  10.054  66.086  1.00  0.00    -0.224 OA 
HETATM   13  C   UNL     1     -11.549  11.423  68.963  1.00  0.00    -0.383 A  
HETATM   14  C   UNL     1      -7.950   9.960  66.015  1.00  0.00    -0.114 C  
HETATM   15  C   UNL     1      -7.966   8.619  65.287  1.00  0.00    -0.114 C  
HETATM   16  H   UNL     1     -10.365   9.418  65.380  1.00  0.00     0.000 HD 
HETATM   17  C   UNL     1     -12.573  11.187  69.883  1.00  0.00    -0.171 A  
HETATM   18  C   UNL     1     -12.394  10.268  70.916  1.00  0.00    -0.471 A  
HETATM   19  C   UNL     1      -8.449   7.622  66.328  1.00  0.00    -0.140 C  
HETATM   20  C   UNL     1      -9.159   8.442  67.409  1.00  0.00    -0.152 C  
HETATM   21  C   UNL     1     -11.182   9.603  71.048  1.00  0.00    -0.445 A  
HETATM   22  C   UNL     1     -10.147   9.860  70.150  1.00  0.00    -0.309 A  
ENDBRANCH   6   7
ENDBRANCH   5   6
ENDBRANCH   4   5
ENDBRANCH   2   4
TORSDOF 4
ENDMDL
MODEL      117
REMARK 921   NORMALIZED FREE ENERGY PREDICTED BY IDOCK:   -3.91 KCAL/MOL
REMARK 922        TOTAL FREE ENERGY PREDICTED BY IDOCK:   -5.13 KCAL/MOL
REMARK 923 INTER-LIGAND FREE ENERGY PREDICTED BY IDOCK:   -4.88 KCAL/MOL
REMARK 924 INTRA-LIGAND FREE ENERGY PREDICTED BY IDOCK:   -0.25 KCAL/MOL
REMARK 927      BINDING AFFINITY PREDICTED BY RF-SCORE:    0.00 PKD
ROOT
HETATM    1  C   UNL     1     -12.458  13.975  65.861  1.00  0.00    -0.481 C  
HETATM    2  N   UNL     1     -12.172  12.541  65.894  1.00  0.00    -0.624 NA 
HETATM    3  C   UNL     1     -11.756  12.093  64.560  1.00  0.00    -0.338 C  
ENDROOT
BRANCH   2   4
HETATM    4  C   UNL     1     -11.163  12.232  66.936  1.00  0.00    -0.312 C  
BRANCH   4   5
HETATM    5  C   UNL     1     -11.131  10.743  67.306  1.00  0.00    -0.270 C  
BRANCH   5   6
HETATM    6  O   UNL     1      -9.986  10.384  68.086  1.00  0.00    -0.145 OA 
BRANCH   6   7
HETATM    7  C   UNL     1     -10.290   9.897  69.321  1.00  0.00    -0.219 C  
HETATM    8  C   UNL     1      -9.565   8.571  69.556  1.00  0.00    -0.170 C  
HETATM    9  O   UNL     1     -11.100  10.404  70.084  1.00  0.00    -0.280 OA 
HETATM   10  C   UNL     1      -8.043   8.709  69.578  1.00  0.00    -0.110 A  
HETATM   11  C   UNL     1     -10.149   7.811  70.786  1.00  0.00    -0.192 C  
HETATM   12  O   UNL     1      -9.940   8.549  71.995  1.00  0.00    -0.254 OA 
HETATM   13  C   UNL     1      -7.405   9.830  70.126  1.00  0.00    -0.159 A  
HETATM   14  C   UNL     1     -11.648   7.486  70.660  1.00  0.00    -0.272 C  
HETATM   15  C   UNL     1     -11.869   6.398  71.708  1.00  0.00    -0.374 C  
HETATM   16  H   UNL     1     -10.296   8.086  72.745  1.00  0.00     0.000 HD 
HETATM   17  C   UNL     1      -6.010   9.897  70.170  1.00  0.00    -0.058 A  
HETATM   18  C   UNL     1      -5.238   8.840  69.691  1.00  0.00    -0.030 A  
HETATM   19  C   UNL     1     -10.615   5.541  71.643  1.00  0.00    -0.294 C  
HETATM   20  C   UNL     1      -9.541   6.406  70.977  1.00  0.00    -0.188 C  
HETATM   21  C   UNL     1      -5.857   7.725  69.141  1.00  0.00    -0.030 A  
HETATM   22  C   UNL     1      -7.247   7.668  69.067  1.00  0.00    -0.080 A  
ENDBRANCH   6   7
ENDBRANCH   5   6
ENDBRANCH   4   5
ENDBRANCH   2   4
TORSDOF 4
ENDMDL
MODEL      118
REMARK 921   NORMALIZED FREE ENERGY PREDICTED BY IDOCK:   -3.91 KCAL/MOL
REMARK 922        TOTAL FREE ENERGY PREDICTED BY IDOCK:   -5.13 KCAL/MOL
REMARK 923 INTER-LIGAND FREE ENERGY PREDICTED BY IDOCK:   -5.03 KCAL/MOL
REMARK 924 INTRA-LIGAND FREE ENERGY PREDICTED BY IDOCK:   -0.10 KCAL/MOL
REMARK 927      BINDING AFFINITY PREDICTED BY RF-SCORE:    0.00 PKD
ROOT
HETATM    1  C   UNL     1      -7.915  10.059  64.397  1.00  0.00    -0.152 C  
HETATM    2  N   UNL     1      -7.180   9.873  65.648  1.00  0.00    -0.106 NA 
HETATM    3  C   UNL     1      -6.254  10.993  65.844  1.00  0.00    -0.037 C  
ENDROOT
BRANCH   2   4
HETATM    4  C   UNL     1      -8.117   9.705  66.785  1.00  0.00    -0.113 C  
BRANCH   4   5
HETATM    5  C   UNL     1      -7.410   9.749  68.147  1.00  0.00    -0.080 C  
BRANCH   5   6
HETATM    6  O   UNL     1      -8.225  10.303  69.184  1.00  0.00    -0.129 OA 
BRANCH   6   7
HETATM    7  C   UNL     1      -9.310   9.544  69.498  1.00  0.00    -0.190 C  
HETATM    8  C   UNL     1     -10.468  10.439  69.940  1.00  0.00    -0.266 C  
HETATM    9  O   UNL     1      -9.317   8.320  69.514  1.00  0.00    -0.157 OA 
HETATM   10  C   UNL     1     -10.973  11.366  68.834  1.00  0.00    -0.276 A  
HETATM   11  C   UNL     1     -11.593   9.616  70.638  1.00  0.00    -0.299 C  
HETATM   12  O   UNL     1     -12.191   8.685  69.729  1.00  0.00     0.231 OA 
HETATM   13  C   UNL     1     -11.023  10.965  67.492  1.00  0.00    -0.352 A  
HETATM   14  C   UNL     1     -11.119   8.849  71.885  1.00  0.00    -0.442 C  
HETATM   15  C   UNL     1     -12.415   8.517  72.619  1.00  0.00    -0.276 C  
HETATM   16  H   UNL     1     -12.876   8.183  70.154  1.00  0.00     0.000 HD 
HETATM   17  C   UNL     1     -11.536  11.824  66.517  1.00  0.00    -0.325 A  
HETATM   18  C   UNL     1     -12.025  13.080  66.871  1.00  0.00    -0.415 A  
HETATM   19  C   UNL     1     -13.290   9.746  72.430  1.00  0.00    -0.374 C  
HETATM   20  C   UNL     1     -12.717  10.496  71.223  1.00  0.00    -0.532 C  
HETATM   21  C   UNL     1     -11.979  13.492  68.197  1.00  0.00    -0.376 A  
HETATM   22  C   UNL     1     -11.439  12.650  69.167  1.00  0.00    -0.359 A  
ENDBRANCH   6   7
ENDBRANCH   5   6
ENDBRANCH   4   5
ENDBRANCH   2   4
TORSDOF 4
ENDMDL
MODEL      119
REMARK 921   NORMALIZED FREE ENERGY PREDICTED BY IDOCK:   -3.90 KCAL/MOL
REMARK 922        TOTAL FREE ENERGY PREDICTED BY IDOCK:   -5.12 KCAL/MOL
REMARK 923 INTER-LIGAND FREE ENERGY PREDICTED BY IDOCK:   -4.81 KCAL/MOL
REMARK 924 INTRA-LIGAND FREE ENERGY PREDICTED BY IDOCK:   -0.30 KCAL/MOL
REMARK 927      BINDING AFFINITY PREDICTED BY RF-SCORE:    0.00 PKD
ROOT
HETATM    1  C   UNL     1     -10.362  16.211  65.900  1.00  0.00    -0.367 C  
HETATM    2  N   UNL     1     -10.800  15.259  66.921  1.00  0.00    -0.315 NA 
HETATM    3  C   UNL     1     -11.159  15.982  68.145  1.00  0.00    -0.344 C  
ENDROOT
BRANCH   2   4
HETATM    4  C   UNL     1     -11.911  14.419  66.411  1.00  0.00    -0.385 C  
BRANCH   4   5
HETATM    5  C   UNL     1     -11.417  13.195  65.628  1.00  0.00    -0.323 C  
BRANCH   5   6
HETATM    6  O   UNL     1     -10.708  12.257  66.443  1.00  0.00    -0.240 OA 
BRANCH   6   7
HETATM    7  C   UNL     1     -10.288  11.149  65.772  1.00  0.00    -0.260 C  
HETATM    8  C   UNL     1      -9.068  10.544  66.468  1.00  0.00    -0.175 C  
HETATM    9  O   UNL     1     -10.764  10.760  64.715  1.00  0.00    -0.270 OA 
HETATM   10  C   UNL     1      -9.368  10.030  67.877  1.00  0.00    -0.151 A  
HETATM   11  C   UNL     1      -8.347   9.504  65.557  1.00  0.00    -0.132 C  
HETATM   12  O   UNL     1      -9.194   8.383  65.284  1.00  0.00    -0.413 OA 
HETATM   13  C   UNL     1     -10.589   9.426  68.204  1.00  0.00    -0.261 A  
HETATM   14  C   UNL     1      -7.856  10.087  64.219  1.00  0.00    -0.144 C  
HETATM   15  C   UNL     1      -6.835   9.062  63.734  1.00  0.00    -0.088 C  
HETATM   16  H   UNL     1      -8.755   7.749  64.728  1.00  0.00     0.000 HD 
HETATM   17  C   UNL     1     -10.807   8.926  69.491  1.00  0.00    -0.163 A  
HETATM   18  C   UNL     1      -9.804   9.003  70.456  1.00  0.00    -0.263 A  
HETATM   19  C   UNL     1      -6.113   8.612  64.994  1.00  0.00    -0.060 C  
HETATM   20  C   UNL     1      -7.033   8.971  66.165  1.00  0.00    -0.085 C  
HETATM   21  C   UNL     1      -8.590   9.603  70.147  1.00  0.00    -0.243 A  
HETATM   22  C   UNL     1      -8.381  10.131  68.873  1.00  0.00    -0.130 A  
ENDBRANCH   6   7
ENDBRANCH   5   6
ENDBRANCH   4   5
ENDBRANCH   2   4
TORSDOF 4
ENDMDL
MODEL      120
REMARK 921   NORMALIZED FREE ENERGY PREDICTED BY IDOCK:   -3.89 KCAL/MOL
REMARK 922        TOTAL FREE ENERGY PREDICTED BY IDOCK:   -5.10 KCAL/MOL
REMARK 923 INTER-LIGAND FREE ENERGY PREDICTED BY IDOCK:   -4.66 KCAL/MOL
REMARK 924 INTRA-LIGAND FREE ENERGY PREDICTED BY IDOCK:   -0.44 KCAL/MOL
REMARK 927      BINDING AFFINITY PREDICTED BY RF-SCORE:    0.00 PKD
ROOT
HETATM    1  C   UNL     1      -9.077   3.303  68.911  1.00  0.00    -0.146 C  
HETATM    2  N   UNL     1      -8.179   3.336  67.758  1.00  0.00    -0.079 NA 
HETATM    3  C   UNL     1      -8.777   2.586  66.648  1.00  0.00    -0.123 C  
ENDROOT
BRANCH   2   4
HETATM    4  C   UNL     1      -7.853   4.735  67.387  1.00  0.00    -0.094 C  
BRANCH   4   5
HETATM    5  C   UNL     1      -9.005   5.438  66.657  1.00  0.00    -0.116 C  
BRANCH   5   6
HETATM    6  O   UNL     1      -9.273   6.749  67.164  1.00  0.00    -0.128 OA 
BRANCH   6   7
HETATM    7  C   UNL     1     -10.205   6.777  68.156  1.00  0.00    -0.174 C  
HETATM    8  C   UNL     1      -9.841   7.846  69.188  1.00  0.00    -0.174 C  
HETATM    9  O   UNL     1     -11.139   5.993  68.250  1.00  0.00    -0.309 OA 
HETATM   10  C   UNL     1      -9.862   9.266  68.622  1.00  0.00    -0.173 A  
HETATM   11  C   UNL     1     -10.665   7.677  70.501  1.00  0.00    -0.236 C  
HETATM   12  O   UNL     1     -12.063   7.875  70.262  1.00  0.00    -0.462 OA 
HETATM   13  C   UNL     1     -10.802   9.672  67.665  1.00  0.00    -0.276 A  
HETATM   14  C   UNL     1     -10.471   6.311  71.184  1.00  0.00    -0.271 C  
HETATM   15  C   UNL     1     -10.980   6.543  72.604  1.00  0.00    -0.287 C  
HETATM   16  H   UNL     1     -12.565   7.771  71.062  1.00  0.00     0.000 HD 
HETATM   17  C   UNL     1     -10.820  10.991  67.207  1.00  0.00    -0.335 A  
HETATM   18  C   UNL     1      -9.917  11.925  67.713  1.00  0.00    -0.191 A  
HETATM   19  C   UNL     1     -10.518   7.950  72.952  1.00  0.00    -0.422 C  
HETATM   20  C   UNL     1     -10.233   8.648  71.619  1.00  0.00    -0.366 C  
HETATM   21  C   UNL     1      -8.977  11.536  68.659  1.00  0.00    -0.115 A  
HETATM   22  C   UNL     1      -8.937  10.213  69.095  1.00  0.00    -0.181 A  
ENDBRANCH   6   7
ENDBRANCH   5   6
ENDBRANCH   4   5
ENDBRANCH   2   4
TORSDOF 4
ENDMDL
MODEL      121
REMARK 921   NORMALIZED FREE ENERGY PREDICTED BY IDOCK:   -3.87 KCAL/MOL
REMARK 922        TOTAL FREE ENERGY PREDICTED BY IDOCK:   -5.07 KCAL/MOL
REMARK 923 INTER-LIGAND FREE ENERGY PREDICTED BY IDOCK:   -4.77 KCAL/MOL
REMARK 924 INTRA-LIGAND FREE ENERGY PREDICTED BY IDOCK:   -0.30 KCAL/MOL
REMARK 927      BINDING AFFINITY PREDICTED BY RF-SCORE:    0.00 PKD
ROOT
HETATM    1  C   UNL     1      -8.762   4.836  67.156  1.00  0.00    -0.103 C  
HETATM    2  N   UNL     1     -10.063   5.225  67.701  1.00  0.00    -0.172 NA 
HETATM    3  C   UNL     1      -9.912   5.609  69.108  1.00  0.00    -0.183 C  
ENDROOT
BRANCH   2   4
HETATM    4  C   UNL     1     -10.673   6.301  66.881  1.00  0.00    -0.339 C  
BRANCH   4   5
HETATM    5  C   UNL     1     -10.985   7.562  67.697  1.00  0.00    -0.023 C  
BRANCH   5   6
HETATM    6  O   UNL     1     -10.744   8.772  66.972  1.00  0.00    -0.262 OA 
BRANCH   6   7
HETATM    7  C   UNL     1     -10.287   9.796  67.745  1.00  0.00    -0.225 C  
HETATM    8  C   UNL     1      -9.470  10.771  66.895  1.00  0.00    -0.192 C  
HETATM    9  O   UNL     1     -10.433   9.866  68.957  1.00  0.00    -0.191 OA 
HETATM   10  C   UNL     1     -10.293  11.466  65.811  1.00  0.00    -0.304 A  
HETATM   11  C   UNL     1      -8.643  11.749  67.784  1.00  0.00    -0.151 C  
HETATM   12  O   UNL     1      -9.502  12.589  68.563  1.00  0.00    -0.327 OA 
HETATM   13  C   UNL     1     -11.627  11.844  66.016  1.00  0.00    -0.296 A  
HETATM   14  C   UNL     1      -7.656  11.043  68.731  1.00  0.00    -0.127 C  
HETATM   15  C   UNL     1      -6.689  12.152  69.135  1.00  0.00    -0.100 C  
HETATM   16  H   UNL     1      -8.998  13.185  69.106  1.00  0.00     0.000 HD 
HETATM   17  C   UNL     1     -12.331  12.520  65.017  1.00  0.00    -0.522 A  
HETATM   18  C   UNL     1     -11.709  12.846  63.813  1.00  0.00    -0.557 A  
HETATM   19  C   UNL     1      -6.502  12.978  67.872  1.00  0.00    -0.130 C  
HETATM   20  C   UNL     1      -7.698  12.658  66.971  1.00  0.00    -0.021 C  
HETATM   21  C   UNL     1     -10.388  12.473  63.593  1.00  0.00    -0.382 A  
HETATM   22  C   UNL     1      -9.693  11.772  64.577  1.00  0.00    -0.165 A  
ENDBRANCH   6   7
ENDBRANCH   5   6
ENDBRANCH   4   5
ENDBRANCH   2   4
TORSDOF 4
ENDMDL
MODEL      122
REMARK 921   NORMALIZED FREE ENERGY PREDICTED BY IDOCK:   -3.86 KCAL/MOL
REMARK 922        TOTAL FREE ENERGY PREDICTED BY IDOCK:   -5.07 KCAL/MOL
REMARK 923 INTER-LIGAND FREE ENERGY PREDICTED BY IDOCK:   -4.72 KCAL/MOL
REMARK 924 INTRA-LIGAND FREE ENERGY PREDICTED BY IDOCK:   -0.35 KCAL/MOL
REMARK 927      BINDING AFFINITY PREDICTED BY RF-SCORE:    0.00 PKD
ROOT
HETATM    1  C   UNL     1      -7.116  19.941  66.194  1.00  0.00    -0.269 C  
HETATM    2  N   UNL     1      -7.565  19.061  67.272  1.00  0.00    -0.228 NA 
HETATM    3  C   UNL     1      -7.054  19.554  68.555  1.00  0.00    -0.317 C  
ENDROOT
BRANCH   2   4
HETATM    4  C   UNL     1      -9.042  18.931  67.261  1.00  0.00    -0.280 C  
BRANCH   4   5
HETATM    5  C   UNL     1      -9.558  17.936  68.310  1.00  0.00    -0.312 C  
BRANCH   5   6
HETATM    6  O   UNL     1     -10.899  17.504  68.061  1.00  0.00    -0.378 OA 
BRANCH   6   7
HETATM    7  C   UNL     1     -10.989  16.237  67.571  1.00  0.00    -0.207 C  
HETATM    8  C   UNL     1     -10.587  15.227  68.648  1.00  0.00    -0.236 C  
HETATM    9  O   UNL     1     -11.259  15.962  66.410  1.00  0.00    -0.102 OA 
HETATM   10  C   UNL     1     -11.525  15.224  69.854  1.00  0.00    -0.325 A  
HETATM   11  C   UNL     1     -10.334  13.814  68.040  1.00  0.00    -0.246 C  
HETATM   12  O   UNL     1     -11.534  13.273  67.475  1.00  0.00    -0.287 OA 
HETATM   13  C   UNL     1     -12.906  15.422  69.725  1.00  0.00     0.080 A  
HETATM   14  C   UNL     1      -9.231  13.789  66.967  1.00  0.00    -0.256 C  
HETATM   15  C   UNL     1      -8.863  12.311  66.863  1.00  0.00    -0.207 C  
HETATM   16  H   UNL     1     -11.380  12.412  67.104  1.00  0.00     0.000 HD 
HETATM   17  C   UNL     1     -13.737  15.364  70.846  1.00  0.00    -0.310 A  
HETATM   18  C   UNL     1     -13.205  15.086  72.104  1.00  0.00    -0.462 A  
HETATM   19  C   UNL     1      -8.930  11.798  68.293  1.00  0.00    -0.180 C  
HETATM   20  C   UNL     1      -9.793  12.798  69.067  1.00  0.00     0.285 C  
HETATM   21  C   UNL     1     -11.836  14.892  72.249  1.00  0.00    -0.372 A  
HETATM   22  C   UNL     1     -11.001  14.979  71.136  1.00  0.00    -0.112 A  
ENDBRANCH   6   7
ENDBRANCH   5   6
ENDBRANCH   4   5
ENDBRANCH   2   4
TORSDOF 4
ENDMDL
MODEL      123
REMARK 921   NORMALIZED FREE ENERGY PREDICTED BY IDOCK:   -3.84 KCAL/MOL
REMARK 922        TOTAL FREE ENERGY PREDICTED BY IDOCK:   -5.05 KCAL/MOL
REMARK 923 INTER-LIGAND FREE ENERGY PREDICTED BY IDOCK:   -4.53 KCAL/MOL
REMARK 924 INTRA-LIGAND FREE ENERGY PREDICTED BY IDOCK:   -0.52 KCAL/MOL
REMARK 927      BINDING AFFINITY PREDICTED BY RF-SCORE:    0.00 PKD
ROOT
HETATM    1  C   UNL     1      -9.143   9.849  63.942  1.00  0.00    -0.259 C  
HETATM    2  N   UNL     1      -8.406   8.623  64.245  1.00  0.00    -0.157 NA 
HETATM    3  C   UNL     1      -7.931   8.013  62.998  1.00  0.00    -0.148 C  
ENDROOT
BRANCH   2   4
HETATM    4  C   UNL     1      -7.303   8.897  65.199  1.00  0.00    -0.092 C  
BRANCH   4   5
HETATM    5  C   UNL     1      -7.060  10.398  65.407  1.00  0.00    -0.117 C  
BRANCH   5   6
HETATM    6  O   UNL     1      -6.832  10.744  66.776  1.00  0.00    -0.098 OA 
BRANCH   6   7
HETATM    7  C   UNL     1      -7.594  11.782  67.217  1.00  0.00    -0.150 C  
HETATM    8  C   UNL     1      -9.056  11.349  67.335  1.00  0.00    -0.160 C  
HETATM    9  O   UNL     1      -7.177  12.918  67.398  1.00  0.00    -0.151 OA 
HETATM   10  C   UNL     1      -9.281  10.256  68.380  1.00  0.00    -0.136 A  
HETATM   11  C   UNL     1     -10.005  12.575  67.490  1.00  0.00    -0.201 C  
HETATM   12  O   UNL     1      -9.744  13.280  68.709  1.00  0.00    -0.398 OA 
HETATM   13  C   UNL     1      -8.560  10.214  69.581  1.00  0.00    -0.170 A  
HETATM   14  C   UNL     1      -9.926  13.572  66.319  1.00  0.00    -0.302 C  
HETATM   15  C   UNL     1     -11.204  14.395  66.460  1.00  0.00    -0.340 C  
HETATM   16  H   UNL     1     -10.322  14.028  68.803  1.00  0.00     0.000 HD 
HETATM   17  C   UNL     1      -8.827   9.226  70.532  1.00  0.00    -0.285 A  
HETATM   18  C   UNL     1      -9.831   8.285  70.307  1.00  0.00    -0.186 A  
HETATM   19  C   UNL     1     -12.260  13.392  66.896  1.00  0.00    -0.343 C  
HETATM   20  C   UNL     1     -11.500  12.194  67.472  1.00  0.00    -0.410 C  
HETATM   21  C   UNL     1     -10.551   8.312  69.119  1.00  0.00    -0.179 A  
HETATM   22  C   UNL     1     -10.265   9.277  68.155  1.00  0.00    -0.246 A  
ENDBRANCH   6   7
ENDBRANCH   5   6
ENDBRANCH   4   5
ENDBRANCH   2   4
TORSDOF 4
ENDMDL
MODEL      124
REMARK 921   NORMALIZED FREE ENERGY PREDICTED BY IDOCK:   -3.84 KCAL/MOL
REMARK 922        TOTAL FREE ENERGY PREDICTED BY IDOCK:   -5.04 KCAL/MOL
REMARK 923 INTER-LIGAND FREE ENERGY PREDICTED BY IDOCK:   -4.60 KCAL/MOL
REMARK 924 INTRA-LIGAND FREE ENERGY PREDICTED BY IDOCK:   -0.44 KCAL/MOL
REMARK 927      BINDING AFFINITY PREDICTED BY RF-SCORE:    0.00 PKD
ROOT
HETATM    1  C   UNL     1     -10.143  11.354  63.314  1.00  0.00    -0.387 C  
HETATM    2  N   UNL     1     -10.882  12.465  63.912  1.00  0.00    -0.383 NA 
HETATM    3  C   UNL     1     -12.320  12.266  63.707  1.00  0.00    -0.538 C  
ENDROOT
BRANCH   2   4
HETATM    4  C   UNL     1     -10.528  12.618  65.345  1.00  0.00    -0.283 C  
BRANCH   4   5
HETATM    5  C   UNL     1     -11.116  11.504  66.222  1.00  0.00    -0.263 C  
BRANCH   5   6
HETATM    6  O   UNL     1     -10.516  11.437  67.519  1.00  0.00    -0.190 OA 
BRANCH   6   7
HETATM    7  C   UNL     1     -10.269  10.169  67.948  1.00  0.00    -0.180 C  
HETATM    8  C   UNL     1      -9.397   9.430  66.931  1.00  0.00    -0.188 C  
HETATM    9  O   UNL     1     -10.756   9.671  68.954  1.00  0.00    -0.218 OA 
HETATM   10  C   UNL     1      -8.006  10.043  66.768  1.00  0.00    -0.114 A  
HETATM   11  C   UNL     1      -9.384   7.894  67.198  1.00  0.00    -0.153 C  
HETATM   12  O   UNL     1      -8.785   7.595  68.463  1.00  0.00    -0.128 OA 
HETATM   13  C   UNL     1      -7.305  10.594  67.848  1.00  0.00    -0.089 A  
HETATM   14  C   UNL     1     -10.779   7.244  67.149  1.00  0.00    -0.413 C  
HETATM   15  C   UNL     1     -10.477   5.757  66.984  1.00  0.00    -0.342 C  
HETATM   16  H   UNL     1      -8.777   6.659  68.626  1.00  0.00     0.000 HD 
HETATM   17  C   UNL     1      -6.016  11.101  67.669  1.00  0.00    -0.049 A  
HETATM   18  C   UNL     1      -5.403  11.043  66.418  1.00  0.00    -0.114 A  
HETATM   19  C   UNL     1      -9.279   5.709  66.049  1.00  0.00    -0.164 C  
HETATM   20  C   UNL     1      -8.631   7.095  66.114  1.00  0.00    -0.151 C  
HETATM   21  C   UNL     1      -6.089  10.503  65.336  1.00  0.00    -0.122 A  
HETATM   22  C   UNL     1      -7.387  10.025  65.506  1.00  0.00    -0.137 A  
ENDBRANCH   6   7
ENDBRANCH   5   6
ENDBRANCH   4   5
ENDBRANCH   2   4
TORSDOF 4
ENDMDL
MODEL      125
REMARK 921   NORMALIZED FREE ENERGY PREDICTED BY IDOCK:   -3.83 KCAL/MOL
REMARK 922        TOTAL FREE ENERGY PREDICTED BY IDOCK:   -5.03 KCAL/MOL
REMARK 923 INTER-LIGAND FREE ENERGY PREDICTED BY IDOCK:   -4.89 KCAL/MOL
REMARK 924 INTRA-LIGAND FREE ENERGY PREDICTED BY IDOCK:   -0.14 KCAL/MOL
REMARK 927      BINDING AFFINITY PREDICTED BY RF-SCORE:    0.00 PKD
ROOT
HETATM    1  C   UNL     1      -9.279  10.490  64.303  1.00  0.00    -0.245 C  
HETATM    2  N   UNL     1      -8.754   9.208  64.773  1.00  0.00    -0.185 NA 
HETATM    3  C   UNL     1      -8.206   8.456  63.639  1.00  0.00    -0.104 C  
ENDROOT
BRANCH   2   4
HETATM    4  C   UNL     1      -7.757   9.415  65.851  1.00  0.00    -0.099 C  
BRANCH   4   5
HETATM    5  C   UNL     1      -8.224  10.430  66.903  1.00  0.00    -0.124 C  
BRANCH   5   6
HETATM    6  O   UNL     1      -7.786  11.764  66.629  1.00  0.00    -0.119 OA 
BRANCH   6   7
HETATM    7  C   UNL     1      -8.017  12.641  67.644  1.00  0.00    -0.169 C  
HETATM    8  C   UNL     1      -8.588  13.948  67.091  1.00  0.00    -0.217 C  
HETATM    9  O   UNL     1      -7.718  12.440  68.814  1.00  0.00    -0.097 OA 
HETATM   10  C   UNL     1      -9.956  13.778  66.430  1.00  0.00    -0.301 A  
HETATM   11  C   UNL     1      -8.535  15.089  68.152  1.00  0.00    -0.151 C  
HETATM   12  O   UNL     1      -9.367  14.786  69.277  1.00  0.00    -0.355 OA 
HETATM   13  C   UNL     1     -10.915  12.883  66.923  1.00  0.00    -0.294 A  
HETATM   14  C   UNL     1      -7.115  15.400  68.659  1.00  0.00    -0.116 C  
HETATM   15  C   UNL     1      -7.255  16.779  69.297  1.00  0.00    -0.181 C  
HETATM   16  H   UNL     1      -9.334  15.482  69.924  1.00  0.00     0.000 HD 
HETATM   17  C   UNL     1     -12.172  12.791  66.320  1.00  0.00    -0.289 A  
HETATM   18  C   UNL     1     -12.494  13.606  65.236  1.00  0.00    -0.517 A  
HETATM   19  C   UNL     1      -8.217  17.528  68.388  1.00  0.00    -0.278 C  
HETATM   20  C   UNL     1      -8.973  16.459  67.593  1.00  0.00    -0.198 C  
HETATM   21  C   UNL     1     -11.552  14.496  64.734  1.00  0.00    -0.414 A  
HETATM   22  C   UNL     1     -10.287  14.567  65.314  1.00  0.00    -0.435 A  
ENDBRANCH   6   7
ENDBRANCH   5   6
ENDBRANCH   4   5
ENDBRANCH   2   4
TORSDOF 4
ENDMDL
MODEL      126
REMARK 921   NORMALIZED FREE ENERGY PREDICTED BY IDOCK:   -3.83 KCAL/MOL
REMARK 922        TOTAL FREE ENERGY PREDICTED BY IDOCK:   -5.02 KCAL/MOL
REMARK 923 INTER-LIGAND FREE ENERGY PREDICTED BY IDOCK:   -4.68 KCAL/MOL
REMARK 924 INTRA-LIGAND FREE ENERGY PREDICTED BY IDOCK:   -0.35 KCAL/MOL
REMARK 927      BINDING AFFINITY PREDICTED BY RF-SCORE:    0.00 PKD
ROOT
HETATM    1  C   UNL     1      -8.273   4.239  67.603  1.00  0.00    -0.098 C  
HETATM    2  N   UNL     1      -9.662   4.300  68.059  1.00  0.00    -0.139 NA 
HETATM    3  C   UNL     1      -9.696   4.608  69.492  1.00  0.00    -0.208 C  
ENDROOT
BRANCH   2   4
HETATM    4  C   UNL     1     -10.436   5.274  67.250  1.00  0.00    -0.173 C  
BRANCH   4   5
HETATM    5  C   UNL     1     -11.027   6.409  68.097  1.00  0.00    -0.307 C  
BRANCH   5   6
HETATM    6  O   UNL     1     -10.866   7.698  67.496  1.00  0.00    -0.223 OA 
BRANCH   6   7
HETATM    7  C   UNL     1      -9.728   8.344  67.872  1.00  0.00    -0.158 C  
HETATM    8  C   UNL     1     -10.042   9.797  68.234  1.00  0.00    -0.189 C  
HETATM    9  O   UNL     1      -8.608   7.853  67.831  1.00  0.00    -0.125 OA 
HETATM   10  C   UNL     1     -10.962   9.932  69.447  1.00  0.00    -0.263 A  
HETATM   11  C   UNL     1      -8.746  10.657  68.324  1.00  0.00    -0.135 C  
HETATM   12  O   UNL     1      -7.898  10.202  69.384  1.00  0.00    -0.120 OA 
HETATM   13  C   UNL     1     -10.884   9.061  70.542  1.00  0.00    -0.296 A  
HETATM   14  C   UNL     1      -7.929  10.687  67.020  1.00  0.00    -0.121 C  
HETATM   15  C   UNL     1      -7.012  11.894  67.197  1.00  0.00    -0.142 C  
HETATM   16  H   UNL     1      -7.107  10.726  69.439  1.00  0.00     0.000 HD 
HETATM   17  C   UNL     1     -11.710   9.246  71.653  1.00  0.00    -0.462 A  
HETATM   18  C   UNL     1     -12.604  10.315  71.696  1.00  0.00    -0.534 A  
HETATM   19  C   UNL     1      -7.872  12.929  67.904  1.00  0.00    -0.151 C  
HETATM   20  C   UNL     1      -9.026  12.157  68.550  1.00  0.00    -0.082 C  
HETATM   21  C   UNL     1     -12.695  11.185  70.616  1.00  0.00    -0.350 A  
HETATM   22  C   UNL     1     -11.895  10.983  69.493  1.00  0.00    -0.404 A  
ENDBRANCH   6   7
ENDBRANCH   5   6
ENDBRANCH   4   5
ENDBRANCH   2   4
TORSDOF 4
ENDMDL
MODEL      127
REMARK 921   NORMALIZED FREE ENERGY PREDICTED BY IDOCK:   -3.81 KCAL/MOL
REMARK 922        TOTAL FREE ENERGY PREDICTED BY IDOCK:   -5.01 KCAL/MOL
REMARK 923 INTER-LIGAND FREE ENERGY PREDICTED BY IDOCK:   -5.10 KCAL/MOL
REMARK 924 INTRA-LIGAND FREE ENERGY PREDICTED BY IDOCK:    0.09 KCAL/MOL
REMARK 927      BINDING AFFINITY PREDICTED BY RF-SCORE:    0.00 PKD
ROOT
HETATM    1  C   UNL     1      -9.889  11.214  63.514  1.00  0.00    -0.353 C  
HETATM    2  N   UNL     1     -10.655  12.453  63.381  1.00  0.00    -0.411 NA 
HETATM    3  C   UNL     1     -12.089  12.154  63.452  1.00  0.00    -0.507 C  
ENDROOT
BRANCH   2   4
HETATM    4  C   UNL     1     -10.230  13.443  64.401  1.00  0.00    -0.237 C  
BRANCH   4   5
HETATM    5  C   UNL     1     -11.374  14.366  64.843  1.00  0.00    -0.380 C  
BRANCH   5   6
HETATM    6  O   UNL     1     -11.549  14.401  66.263  1.00  0.00    -0.354 OA 
BRANCH   6   7
HETATM    7  C   UNL     1     -11.856  13.193  66.811  1.00  0.00    -0.385 C  
HETATM    8  C   UNL     1     -11.038  12.970  68.084  1.00  0.00    -0.285 C  
HETATM    9  O   UNL     1     -12.606  12.373  66.301  1.00  0.00    -0.298 OA 
HETATM   10  C   UNL     1     -11.359  13.972  69.193  1.00  0.00    -0.323 A  
HETATM   11  C   UNL     1     -11.089  11.482  68.543  1.00  0.00    -0.236 C  
HETATM   12  O   UNL     1     -12.420  11.098  68.905  1.00  0.00    -0.591 OA 
HETATM   13  C   UNL     1     -12.658  14.453  69.409  1.00  0.00     0.031 A  
HETATM   14  C   UNL     1     -10.560  10.489  67.492  1.00  0.00    -0.306 C  
HETATM   15  C   UNL     1     -10.290   9.221  68.297  1.00  0.00    -0.257 C  
HETATM   16  H   UNL     1     -12.452  10.191  69.184  1.00  0.00     0.000 HD 
HETATM   17  C   UNL     1     -12.920  15.331  70.463  1.00  0.00    -0.380 A  
HETATM   18  C   UNL     1     -11.897  15.721  71.326  1.00  0.00    -0.491 A  
HETATM   19  C   UNL     1      -9.735   9.719  69.622  1.00  0.00    -0.242 C  
HETATM   20  C   UNL     1     -10.166  11.183  69.744  1.00  0.00     0.318 C  
HETATM   21  C   UNL     1     -10.604  15.256  71.122  1.00  0.00     0.176 A  
HETATM   22  C   UNL     1     -10.334  14.404  70.053  1.00  0.00     0.411 A  
ENDBRANCH   6   7
ENDBRANCH   5   6
ENDBRANCH   4   5
ENDBRANCH   2   4
TORSDOF 4
ENDMDL
MODEL      128
REMARK 921   NORMALIZED FREE ENERGY PREDICTED BY IDOCK:   -3.81 KCAL/MOL
REMARK 922        TOTAL FREE ENERGY PREDICTED BY IDOCK:   -5.00 KCAL/MOL
REMARK 923 INTER-LIGAND FREE ENERGY PREDICTED BY IDOCK:   -4.61 KCAL/MOL
REMARK 924 INTRA-LIGAND FREE ENERGY PREDICTED BY IDOCK:   -0.39 KCAL/MOL
REMARK 927      BINDING AFFINITY PREDICTED BY RF-SCORE:    0.00 PKD
ROOT
HETATM    1  C   UNL     1      -9.163   8.731  69.275  1.00  0.00    -0.149 C  
HETATM    2  N   UNL     1      -8.869   8.281  67.915  1.00  0.00    -0.137 NA 
HETATM    3  C   UNL     1      -9.974   7.453  67.421  1.00  0.00    -0.183 C  
ENDROOT
BRANCH   2   4
HETATM    4  C   UNL     1      -8.587   9.438  67.030  1.00  0.00    -0.128 C  
BRANCH   4   5
HETATM    5  C   UNL     1      -9.764  10.419  66.945  1.00  0.00    -0.181 C  
BRANCH   5   6
HETATM    6  O   UNL     1      -9.452  11.715  67.465  1.00  0.00    -0.168 OA 
BRANCH   6   7
HETATM    7  C   UNL     1     -10.423  12.238  68.263  1.00  0.00    -0.226 C  
HETATM    8  C   UNL     1     -10.616  13.723  67.953  1.00  0.00    -0.257 C  
HETATM    9  O   UNL     1     -10.985  11.625  69.160  1.00  0.00    -0.227 OA 
HETATM   10  C   UNL     1     -11.123  13.984  66.535  1.00  0.00    -0.315 A  
HETATM   11  C   UNL     1     -11.447  14.435  69.063  1.00  0.00    -0.283 C  
HETATM   12  O   UNL     1     -12.777  13.910  69.129  1.00  0.00    -0.279 OA 
HETATM   13  C   UNL     1     -12.037  13.131  65.903  1.00  0.00    -0.501 A  
HETATM   14  C   UNL     1     -10.814  14.349  70.464  1.00  0.00     0.352 C  
HETATM   15  C   UNL     1     -11.523  15.450  71.248  1.00  0.00    -0.444 C  
HETATM   16  H   UNL     1     -13.284  14.344  69.806  1.00  0.00     0.000 HD 
HETATM   17  C   UNL     1     -12.515  13.429  64.624  1.00  0.00    -0.385 A  
HETATM   18  C   UNL     1     -12.104  14.591  63.972  1.00  0.00    -0.271 A  
HETATM   19  C   UNL     1     -11.683  16.588  70.253  1.00  0.00     0.278 C  
HETATM   20  C   UNL     1     -11.548  15.962  68.862  1.00  0.00    -0.392 C  
HETATM   21  C   UNL     1     -11.195  15.444  64.585  1.00  0.00    -0.374 A  
HETATM   22  C   UNL     1     -10.694  15.133  65.848  1.00  0.00    -0.341 A  
ENDBRANCH   6   7
ENDBRANCH   5   6
ENDBRANCH   4   5
ENDBRANCH   2   4
TORSDOF 4
ENDMDL
MODEL      129
REMARK 921   NORMALIZED FREE ENERGY PREDICTED BY IDOCK:   -3.79 KCAL/MOL
REMARK 922        TOTAL FREE ENERGY PREDICTED BY IDOCK:   -4.98 KCAL/MOL
REMARK 923 INTER-LIGAND FREE ENERGY PREDICTED BY IDOCK:   -4.89 KCAL/MOL
REMARK 924 INTRA-LIGAND FREE ENERGY PREDICTED BY IDOCK:   -0.09 KCAL/MOL
REMARK 927      BINDING AFFINITY PREDICTED BY RF-SCORE:    0.00 PKD
ROOT
HETATM    1  C   UNL     1      -8.303   8.804  62.758  1.00  0.00    -0.192 C  
HETATM    2  N   UNL     1      -8.267   8.134  64.058  1.00  0.00    -0.120 NA 
HETATM    3  C   UNL     1      -6.888   7.750  64.376  1.00  0.00    -0.059 C  
ENDROOT
BRANCH   2   4
HETATM    4  C   UNL     1      -8.873   8.993  65.106  1.00  0.00    -0.182 C  
BRANCH   4   5
HETATM    5  C   UNL     1      -9.168   8.226  66.402  1.00  0.00    -0.195 C  
BRANCH   5   6
HETATM    6  O   UNL     1      -9.097   9.051  67.569  1.00  0.00    -0.131 OA 
BRANCH   6   7
HETATM    7  C   UNL     1     -10.309   9.328  68.124  1.00  0.00    -0.215 C  
HETATM    8  C   UNL     1     -10.424  10.825  68.418  1.00  0.00    -0.207 C  
HETATM    9  O   UNL     1     -11.140   8.483  68.427  1.00  0.00     0.125 OA 
HETATM   10  C   UNL     1     -10.386  11.693  67.161  1.00  0.00    -0.247 A  
HETATM   11  C   UNL     1     -11.626  11.131  69.362  1.00  0.00    -0.318 C  
HETATM   12  O   UNL     1     -12.871  10.795  68.739  1.00  0.00    -0.320 OA 
HETATM   13  C   UNL     1     -10.977  11.287  65.957  1.00  0.00    -0.237 A  
HETATM   14  C   UNL     1     -11.547  10.412  70.721  1.00  0.00    -0.450 C  
HETATM   15  C   UNL     1     -12.530  11.186  71.596  1.00  0.00    -0.273 C  
HETATM   16  H   UNL     1     -13.604  10.981  69.314  1.00  0.00     0.000 HD 
HETATM   17  C   UNL     1     -10.964  12.129  64.843  1.00  0.00    -0.355 A  
HETATM   18  C   UNL     1     -10.382  13.393  64.923  1.00  0.00    -0.382 A  
HETATM   19  C   UNL     1     -12.352  12.638  71.181  1.00  0.00    -0.245 C  
HETATM   20  C   UNL     1     -11.697  12.610  69.797  1.00  0.00    -0.354 C  
HETATM   21  C   UNL     1      -9.788  13.808  66.109  1.00  0.00    -0.310 A  
HETATM   22  C   UNL     1      -9.773  12.957  67.212  1.00  0.00    -0.220 A  
ENDBRANCH   6   7
ENDBRANCH   5   6
ENDBRANCH   4   5
ENDBRANCH   2   4
TORSDOF 4
ENDMDL
MODEL      130
REMARK 921   NORMALIZED FREE ENERGY PREDICTED BY IDOCK:   -3.78 KCAL/MOL
REMARK 922        TOTAL FREE ENERGY PREDICTED BY IDOCK:   -4.97 KCAL/MOL
REMARK 923 INTER-LIGAND FREE ENERGY PREDICTED BY IDOCK:   -4.58 KCAL/MOL
REMARK 924 INTRA-LIGAND FREE ENERGY PREDICTED BY IDOCK:   -0.39 KCAL/MOL
REMARK 927      BINDING AFFINITY PREDICTED BY RF-SCORE:    0.00 PKD
ROOT
HETATM    1  C   UNL     1     -12.035   6.553  70.879  1.00  0.00    -0.291 C  
HETATM    2  N   UNL     1     -11.652   6.835  72.262  1.00  0.00    -0.278 NA 
HETATM    3  C   UNL     1     -10.883   5.707  72.799  1.00  0.00    -0.261 C  
ENDROOT
BRANCH   2   4
HETATM    4  C   UNL     1     -10.914   8.118  72.349  1.00  0.00    -0.345 C  
BRANCH   4   5
HETATM    5  C   UNL     1     -11.392   9.149  71.317  1.00  0.00    -0.336 C  
BRANCH   5   6
HETATM    6  O   UNL     1     -10.417  10.158  71.040  1.00  0.00    -0.030 OA 
BRANCH   6   7
HETATM    7  C   UNL     1      -9.403   9.739  70.235  1.00  0.00    -0.182 C  
HETATM    8  C   UNL     1      -9.877   9.675  68.782  1.00  0.00    -0.173 C  
HETATM    9  O   UNL     1      -8.305   9.378  70.636  1.00  0.00    -0.186 OA 
HETATM   10  C   UNL     1     -10.263  11.039  68.210  1.00  0.00    -0.192 A  
HETATM   11  C   UNL     1      -8.879   8.875  67.890  1.00  0.00    -0.133 C  
HETATM   12  O   UNL     1      -7.609   9.532  67.820  1.00  0.00    -0.087 OA 
HETATM   13  C   UNL     1      -9.573  12.211  68.549  1.00  0.00    -0.137 A  
HETATM   14  C   UNL     1      -8.658   7.424  68.354  1.00  0.00    -0.124 C  
HETATM   15  C   UNL     1      -8.045   6.745  67.132  1.00  0.00    -0.117 C  
HETATM   16  H   UNL     1      -7.000   9.045  67.277  1.00  0.00     0.000 HD 
HETATM   17  C   UNL     1      -9.926  13.431  67.968  1.00  0.00    -0.239 A  
HETATM   18  C   UNL     1     -10.953  13.494  67.028  1.00  0.00    -0.297 A  
HETATM   19  C   UNL     1      -8.779   7.353  65.947  1.00  0.00    -0.161 C  
HETATM   20  C   UNL     1      -9.386   8.666  66.447  1.00  0.00    -0.271 C  
HETATM   21  C   UNL     1     -11.649  12.341  66.686  1.00  0.00    -0.438 A  
HETATM   22  C   UNL     1     -11.320  11.127  67.287  1.00  0.00    -0.302 A  
ENDBRANCH   6   7
ENDBRANCH   5   6
ENDBRANCH   4   5
ENDBRANCH   2   4
TORSDOF 4
ENDMDL
MODEL      131
REMARK 921   NORMALIZED FREE ENERGY PREDICTED BY IDOCK:   -3.76 KCAL/MOL
REMARK 922        TOTAL FREE ENERGY PREDICTED BY IDOCK:   -4.94 KCAL/MOL
REMARK 923 INTER-LIGAND FREE ENERGY PREDICTED BY IDOCK:   -5.82 KCAL/MOL
REMARK 924 INTRA-LIGAND FREE ENERGY PREDICTED BY IDOCK:    0.88 KCAL/MOL
REMARK 927      BINDING AFFINITY PREDICTED BY RF-SCORE:    0.00 PKD
ROOT
HETATM    1  C   UNL     1     -14.080  14.329  72.042  1.00  0.00    -0.526 C  
HETATM    2  N   UNL     1     -13.282  15.528  72.301  1.00  0.00    -0.413 NA 
HETATM    3  C   UNL     1     -12.888  15.560  73.713  1.00  0.00    -0.540 C  
ENDROOT
BRANCH   2   4
HETATM    4  C   UNL     1     -12.117  15.590  71.385  1.00  0.00    -0.393 C  
BRANCH   4   5
HETATM    5  C   UNL     1     -12.506  15.365  69.917  1.00  0.00    -0.240 C  
BRANCH   5   6
HETATM    6  O   UNL     1     -11.632  16.028  68.998  1.00  0.00    -0.367 OA 
BRANCH   6   7
HETATM    7  C   UNL     1     -10.320  15.990  69.359  1.00  0.00    -0.272 C  
HETATM    8  C   UNL     1      -9.445  16.515  68.219  1.00  0.00    -0.220 C  
HETATM    9  O   UNL     1      -9.904  15.515  70.407  1.00  0.00    -0.057 OA 
HETATM   10  C   UNL     1      -9.696  17.987  67.893  1.00  0.00    -0.297 A  
HETATM   11  C   UNL     1      -7.943  16.165  68.444  1.00  0.00    -0.162 C  
HETATM   12  O   UNL     1      -7.431  16.814  69.613  1.00  0.00     0.002 OA 
HETATM   13  C   UNL     1      -9.991  18.930  68.886  1.00  0.00    -0.437 A  
HETATM   14  C   UNL     1      -7.668  14.654  68.560  1.00  0.00    -0.126 C  
HETATM   15  C   UNL     1      -6.165  14.542  68.321  1.00  0.00    -0.120 C  
HETATM   16  H   UNL     1      -6.515  16.600  69.750  1.00  0.00     0.000 HD 
HETATM   17  C   UNL     1     -10.167  20.276  68.553  1.00  0.00    -0.292 A  
HETATM   18  C   UNL     1     -10.028  20.698  67.232  1.00  0.00    -0.452 A  
HETATM   19  C   UNL     1      -5.871  15.567  67.237  1.00  0.00     0.158 C  
HETATM   20  C   UNL     1      -7.043  16.553  67.252  1.00  0.00    -0.205 C  
HETATM   21  C   UNL     1      -9.741  19.774  66.236  1.00  0.00    -0.532 A  
HETATM   22  C   UNL     1      -9.595  18.426  66.561  1.00  0.00    -0.327 A  
ENDBRANCH   6   7
ENDBRANCH   5   6
ENDBRANCH   4   5
ENDBRANCH   2   4
TORSDOF 4
ENDMDL
MODEL      132
REMARK 921   NORMALIZED FREE ENERGY PREDICTED BY IDOCK:   -3.73 KCAL/MOL
REMARK 922        TOTAL FREE ENERGY PREDICTED BY IDOCK:   -4.91 KCAL/MOL
REMARK 923 INTER-LIGAND FREE ENERGY PREDICTED BY IDOCK:   -4.54 KCAL/MOL
REMARK 924 INTRA-LIGAND FREE ENERGY PREDICTED BY IDOCK:   -0.37 KCAL/MOL
REMARK 927      BINDING AFFINITY PREDICTED BY RF-SCORE:    0.00 PKD
ROOT
HETATM    1  C   UNL     1      -8.258   8.780  62.804  1.00  0.00    -0.195 C  
HETATM    2  N   UNL     1      -7.753   7.737  63.696  1.00  0.00    -0.125 NA 
HETATM    3  C   UNL     1      -6.304   7.598  63.519  1.00  0.00    -0.054 C  
ENDROOT
BRANCH   2   4
HETATM    4  C   UNL     1      -8.128   8.023  65.102  1.00  0.00    -0.143 C  
BRANCH   4   5
HETATM    5  C   UNL     1      -8.373   6.748  65.921  1.00  0.00    -0.137 C  
BRANCH   5   6
HETATM    6  O   UNL     1      -8.235   6.953  67.331  1.00  0.00    -0.117 OA 
BRANCH   6   7
HETATM    7  C   UNL     1      -9.344   6.620  68.048  1.00  0.00    -0.113 C  
HETATM    8  C   UNL     1      -9.587   7.652  69.150  1.00  0.00    -0.155 C  
HETATM    9  O   UNL     1      -9.988   5.592  67.887  1.00  0.00    -0.126 OA 
HETATM   10  C   UNL     1      -9.901   9.049  68.612  1.00  0.00    -0.177 A  
HETATM   11  C   UNL     1     -10.615   7.135  70.201  1.00  0.00    -0.230 C  
HETATM   12  O   UNL     1     -11.904   6.936  69.609  1.00  0.00    -0.603 OA 
HETATM   13  C   UNL     1     -10.656   9.246  67.448  1.00  0.00    -0.324 A  
HETATM   14  C   UNL     1     -10.188   5.829  70.896  1.00  0.00    -0.275 C  
HETATM   15  C   UNL     1     -11.074   5.776  72.138  1.00  0.00    -0.327 C  
HETATM   16  H   UNL     1     -12.530   6.620  70.249  1.00  0.00     0.000 HD 
HETATM   17  C   UNL     1     -10.961  10.539  67.015  1.00  0.00    -0.247 A  
HETATM   18  C   UNL     1     -10.539  11.646  67.749  1.00  0.00    -0.227 A  
HETATM   19  C   UNL     1     -11.163   7.219  72.609  1.00  0.00    -0.355 C  
HETATM   20  C   UNL     1     -10.787   8.086  71.404  1.00  0.00    -0.271 C  
HETATM   21  C   UNL     1      -9.786  11.466  68.902  1.00  0.00    -0.105 A  
HETATM   22  C   UNL     1      -9.453  10.178  69.320  1.00  0.00    -0.231 A  
ENDBRANCH   6   7
ENDBRANCH   5   6
ENDBRANCH   4   5
ENDBRANCH   2   4
TORSDOF 4
ENDMDL
MODEL      133
REMARK 921   NORMALIZED FREE ENERGY PREDICTED BY IDOCK:   -3.72 KCAL/MOL
REMARK 922        TOTAL FREE ENERGY PREDICTED BY IDOCK:   -4.90 KCAL/MOL
REMARK 923 INTER-LIGAND FREE ENERGY PREDICTED BY IDOCK:   -4.51 KCAL/MOL
REMARK 924 INTRA-LIGAND FREE ENERGY PREDICTED BY IDOCK:   -0.38 KCAL/MOL
REMARK 927      BINDING AFFINITY PREDICTED BY RF-SCORE:    0.00 PKD
ROOT
HETATM    1  C   UNL     1      -8.027   8.465  63.899  1.00  0.00    -0.158 C  
HETATM    2  N   UNL     1      -8.528   7.967  65.180  1.00  0.00    -0.120 NA 
HETATM    3  C   UNL     1      -7.424   7.373  65.942  1.00  0.00    -0.080 C  
ENDROOT
BRANCH   2   4
HETATM    4  C   UNL     1      -9.219   9.046  65.927  1.00  0.00    -0.230 C  
BRANCH   4   5
HETATM    5  C   UNL     1      -9.806  10.123  65.005  1.00  0.00    -0.322 C  
BRANCH   5   6
HETATM    6  O   UNL     1     -10.601  11.085  65.704  1.00  0.00    -0.252 OA 
BRANCH   6   7
HETATM    7  C   UNL     1      -9.891  12.141  66.189  1.00  0.00    -0.237 C  
HETATM    8  C   UNL     1     -10.672  12.831  67.308  1.00  0.00    -0.256 C  
HETATM    9  O   UNL     1      -8.828  12.530  65.725  1.00  0.00     0.224 OA 
HETATM   10  C   UNL     1     -10.891  11.940  68.531  1.00  0.00    -0.257 A  
HETATM   11  C   UNL     1     -10.073  14.230  67.645  1.00  0.00    -0.229 C  
HETATM   12  O   UNL     1      -8.743  14.112  68.160  1.00  0.00    -0.165 OA 
HETATM   13  C   UNL     1      -9.923  11.027  68.970  1.00  0.00    -0.184 A  
HETATM   14  C   UNL     1     -10.053  15.200  66.449  1.00  0.00    -0.286 C  
HETATM   15  C   UNL     1      -9.869  16.569  67.099  1.00  0.00    -0.255 C  
HETATM   16  H   UNL     1      -8.378  14.965  68.365  1.00  0.00     0.000 HD 
HETATM   17  C   UNL     1     -10.140  10.265  70.120  1.00  0.00    -0.099 A  
HETATM   18  C   UNL     1     -11.313  10.420  70.857  1.00  0.00    -0.307 A  
HETATM   19  C   UNL     1     -10.705  16.507  68.368  1.00  0.00    -0.339 C  
HETATM   20  C   UNL     1     -10.912  15.020  68.671  1.00  0.00    -0.261 C  
HETATM   21  C   UNL     1     -12.284  11.319  70.432  1.00  0.00    -0.453 A  
HETATM   22  C   UNL     1     -12.083  12.058  69.268  1.00  0.00    -0.249 A  
ENDBRANCH   6   7
ENDBRANCH   5   6
ENDBRANCH   4   5
ENDBRANCH   2   4
TORSDOF 4
ENDMDL
MODEL      134
REMARK 921   NORMALIZED FREE ENERGY PREDICTED BY IDOCK:   -3.70 KCAL/MOL
REMARK 922        TOTAL FREE ENERGY PREDICTED BY IDOCK:   -4.86 KCAL/MOL
REMARK 923 INTER-LIGAND FREE ENERGY PREDICTED BY IDOCK:   -4.50 KCAL/MOL
REMARK 924 INTRA-LIGAND FREE ENERGY PREDICTED BY IDOCK:   -0.37 KCAL/MOL
REMARK 927      BINDING AFFINITY PREDICTED BY RF-SCORE:    0.00 PKD
ROOT
HETATM    1  C   UNL     1     -12.874  13.177  71.750  1.00  0.00    -0.258 C  
HETATM    2  N   UNL     1     -12.811  14.586  71.361  1.00  0.00    -0.316 NA 
HETATM    3  C   UNL     1     -11.592  15.192  71.907  1.00  0.00    -0.413 C  
ENDROOT
BRANCH   2   4
HETATM    4  C   UNL     1     -12.905  14.727  69.888  1.00  0.00     0.014 C  
BRANCH   4   5
HETATM    5  C   UNL     1     -11.979  15.820  69.337  1.00  0.00    -0.305 C  
BRANCH   5   6
HETATM    6  O   UNL     1     -11.817  15.755  67.917  1.00  0.00    -0.156 OA 
BRANCH   6   7
HETATM    7  C   UNL     1     -10.696  16.379  67.460  1.00  0.00    -0.298 C  
HETATM    8  C   UNL     1      -9.449  15.724  68.056  1.00  0.00    -0.202 C  
HETATM    9  O   UNL     1     -10.700  17.378  66.753  1.00  0.00    -0.236 OA 
HETATM   10  C   UNL     1      -9.265  14.269  67.623  1.00  0.00    -0.194 A  
HETATM   11  C   UNL     1      -8.184  16.610  67.849  1.00  0.00    -0.180 C  
HETATM   12  O   UNL     1      -7.878  16.757  66.458  1.00  0.00    -0.243 OA 
HETATM   13  C   UNL     1      -9.600  13.827  66.336  1.00  0.00    -0.285 A  
HETATM   14  C   UNL     1      -8.297  18.010  68.478  1.00  0.00    -0.313 C  
HETATM   15  C   UNL     1      -6.851  18.493  68.547  1.00  0.00    -0.278 C  
HETATM   16  H   UNL     1      -7.107  17.298  66.332  1.00  0.00     0.000 HD 
HETATM   17  C   UNL     1      -9.372  12.501  65.962  1.00  0.00    -0.091 A  
HETATM   18  C   UNL     1      -8.787  11.607  66.858  1.00  0.00    -0.190 A  
HETATM   19  C   UNL     1      -6.050  17.254  68.916  1.00  0.00    -0.182 C  
HETATM   20  C   UNL     1      -6.929  16.053  68.555  1.00  0.00    -0.131 C  
HETATM   21  C   UNL     1      -8.453  12.030  68.139  1.00  0.00    -0.171 A  
HETATM   22  C   UNL     1      -8.708  13.345  68.524  1.00  0.00    -0.071 A  
ENDBRANCH   6   7
ENDBRANCH   5   6
ENDBRANCH   4   5
ENDBRANCH   2   4
TORSDOF 4
ENDMDL
MODEL      135
REMARK 921   NORMALIZED FREE ENERGY PREDICTED BY IDOCK:   -3.69 KCAL/MOL
REMARK 922        TOTAL FREE ENERGY PREDICTED BY IDOCK:   -4.86 KCAL/MOL
REMARK 923 INTER-LIGAND FREE ENERGY PREDICTED BY IDOCK:   -4.61 KCAL/MOL
REMARK 924 INTRA-LIGAND FREE ENERGY PREDICTED BY IDOCK:   -0.25 KCAL/MOL
REMARK 927      BINDING AFFINITY PREDICTED BY RF-SCORE:    0.00 PKD
ROOT
HETATM    1  C   UNL     1      -7.504   7.826  74.148  1.00  0.00    -0.148 C  
HETATM    2  N   UNL     1      -7.478   8.694  72.971  1.00  0.00    -0.362 NA 
HETATM    3  C   UNL     1      -6.206   8.520  72.261  1.00  0.00    -0.071 C  
ENDROOT
BRANCH   2   4
HETATM    4  C   UNL     1      -8.653   8.435  72.103  1.00  0.00    -0.192 C  
BRANCH   4   5
HETATM    5  C   UNL     1      -8.271   8.256  70.627  1.00  0.00    -0.112 C  
BRANCH   5   6
HETATM    6  O   UNL     1      -9.299   7.627  69.855  1.00  0.00    -0.151 OA 
BRANCH   6   7
HETATM    7  C   UNL     1     -10.367   8.431  69.600  1.00  0.00    -0.218 C  
HETATM    8  C   UNL     1      -9.894   9.778  69.052  1.00  0.00    -0.183 C  
HETATM    9  O   UNL     1     -11.527   8.144  69.864  1.00  0.00    -0.031 OA 
HETATM   10  C   UNL     1      -9.185   9.667  67.703  1.00  0.00    -0.144 A  
HETATM   11  C   UNL     1     -11.034  10.840  69.082  1.00  0.00    -0.244 C  
HETATM   12  O   UNL     1     -12.112  10.464  68.217  1.00  0.00    -0.747 OA 
HETATM   13  C   UNL     1      -9.585   8.746  66.725  1.00  0.00    -0.267 A  
HETATM   14  C   UNL     1     -11.602  11.103  70.488  1.00  0.00    -0.287 C  
HETATM   15  C   UNL     1     -12.333  12.434  70.339  1.00  0.00    -0.307 C  
HETATM   16  H   UNL     1     -12.808  11.111  68.235  1.00  0.00     0.000 HD 
HETATM   17  C   UNL     1      -8.942   8.708  65.485  1.00  0.00    -0.209 A  
HETATM   18  C   UNL     1      -7.911   9.600  65.198  1.00  0.00    -0.117 A  
HETATM   19  C   UNL     1     -11.454  13.253  69.407  1.00  0.00    -0.323 C  
HETATM   20  C   UNL     1     -10.563  12.250  68.668  1.00  0.00    -0.249 C  
HETATM   21  C   UNL     1      -7.501  10.516  66.159  1.00  0.00    -0.136 A  
HETATM   22  C   UNL     1      -8.119  10.536  67.408  1.00  0.00    -0.111 A  
ENDBRANCH   6   7
ENDBRANCH   5   6
ENDBRANCH   4   5
ENDBRANCH   2   4
TORSDOF 4
ENDMDL
MODEL      136
REMARK 921   NORMALIZED FREE ENERGY PREDICTED BY IDOCK:   -3.68 KCAL/MOL
REMARK 922        TOTAL FREE ENERGY PREDICTED BY IDOCK:   -4.85 KCAL/MOL
REMARK 923 INTER-LIGAND FREE ENERGY PREDICTED BY IDOCK:   -4.49 KCAL/MOL
REMARK 924 INTRA-LIGAND FREE ENERGY PREDICTED BY IDOCK:   -0.35 KCAL/MOL
REMARK 927      BINDING AFFINITY PREDICTED BY RF-SCORE:    0.00 PKD
ROOT
HETATM    1  C   UNL     1      -6.044   3.126  73.367  1.00  0.00    -0.008 C  
HETATM    2  N   UNL     1      -6.755   3.812  72.289  1.00  0.00    -0.025 NA 
HETATM    3  C   UNL     1      -5.798   4.239  71.263  1.00  0.00    -0.013 C  
ENDROOT
BRANCH   2   4
HETATM    4  C   UNL     1      -7.829   2.949  71.738  1.00  0.00    -0.053 C  
BRANCH   4   5
HETATM    5  C   UNL     1      -9.214   3.605  71.819  1.00  0.00    -0.119 C  
BRANCH   5   6
HETATM    6  O   UNL     1      -9.171   5.027  71.674  1.00  0.00    -0.141 OA 
BRANCH   6   7
HETATM    7  C   UNL     1     -10.397   5.618  71.656  1.00  0.00    -0.215 C  
HETATM    8  C   UNL     1     -10.335   6.935  70.881  1.00  0.00    -0.218 C  
HETATM    9  O   UNL     1     -11.376   5.198  72.258  1.00  0.00    -0.126 OA 
HETATM   10  C   UNL     1      -9.993   6.751  69.402  1.00  0.00    -0.167 A  
HETATM   11  C   UNL     1     -11.603   7.807  71.132  1.00  0.00    -0.281 C  
HETATM   12  O   UNL     1     -12.781   7.159  70.639  1.00  0.00    -0.609 OA 
HETATM   13  C   UNL     1     -10.459   5.657  68.661  1.00  0.00    -0.277 A  
HETATM   14  C   UNL     1     -11.824   8.168  72.612  1.00  0.00    -0.389 C  
HETATM   15  C   UNL     1     -12.799   9.341  72.555  1.00  0.00    -0.351 C  
HETATM   16  H   UNL     1     -13.554   7.689  70.793  1.00  0.00     0.000 HD 
HETATM   17  C   UNL     1     -10.164   5.548  67.300  1.00  0.00    -0.255 A  
HETATM   18  C   UNL     1      -9.423   6.540  66.658  1.00  0.00    -0.193 A  
HETATM   19  C   UNL     1     -12.356  10.150  71.346  1.00  0.00    -0.515 C  
HETATM   20  C   UNL     1     -11.521   9.203  70.480  1.00  0.00    -0.271 C  
HETATM   21  C   UNL     1      -8.951   7.628  67.381  1.00  0.00    -0.130 A  
HETATM   22  C   UNL     1      -9.218   7.723  68.746  1.00  0.00    -0.139 A  
ENDBRANCH   6   7
ENDBRANCH   5   6
ENDBRANCH   4   5
ENDBRANCH   2   4
TORSDOF 4
ENDMDL
MODEL      137
REMARK 921   NORMALIZED FREE ENERGY PREDICTED BY IDOCK:   -3.68 KCAL/MOL
REMARK 922        TOTAL FREE ENERGY PREDICTED BY IDOCK:   -4.85 KCAL/MOL
REMARK 923 INTER-LIGAND FREE ENERGY PREDICTED BY IDOCK:   -4.45 KCAL/MOL
REMARK 924 INTRA-LIGAND FREE ENERGY PREDICTED BY IDOCK:   -0.39 KCAL/MOL
REMARK 927      BINDING AFFINITY PREDICTED BY RF-SCORE:    0.00 PKD
ROOT
HETATM    1  C   UNL     1      -6.272   4.141  74.143  1.00  0.00    -0.040 C  
HETATM    2  N   UNL     1      -7.121   5.238  73.681  1.00  0.00    -0.081 NA 
HETATM    3  C   UNL     1      -6.661   5.694  72.365  1.00  0.00    -0.071 C  
ENDROOT
BRANCH   2   4
HETATM    4  C   UNL     1      -8.547   4.830  73.674  1.00  0.00    -0.104 C  
BRANCH   4   5
HETATM    5  C   UNL     1      -9.485   5.944  74.160  1.00  0.00    -0.150 C  
BRANCH   5   6
HETATM    6  O   UNL     1      -9.317   7.170  73.441  1.00  0.00    -0.150 OA 
BRANCH   6   7
HETATM    7  C   UNL     1     -10.451   7.610  72.829  1.00  0.00    -0.311 C  
HETATM    8  C   UNL     1     -10.141   8.039  71.394  1.00  0.00    -0.228 C  
HETATM    9  O   UNL     1     -11.534   7.731  73.385  1.00  0.00    -0.237 OA 
HETATM   10  C   UNL     1      -9.666   6.887  70.508  1.00  0.00    -0.177 A  
HETATM   11  C   UNL     1     -11.310   8.868  70.780  1.00  0.00    -0.278 C  
HETATM   12  O   UNL     1     -12.499   8.078  70.666  1.00  0.00    -0.495 OA 
HETATM   13  C   UNL     1     -10.181   5.590  70.633  1.00  0.00    -0.308 A  
HETATM   14  C   UNL     1     -11.643  10.148  71.568  1.00  0.00    -0.202 C  
HETATM   15  C   UNL     1     -12.452  10.980  70.577  1.00  0.00    -0.432 C  
HETATM   16  H   UNL     1     -13.211   8.583  70.293  1.00  0.00     0.000 HD 
HETATM   17  C   UNL     1      -9.756   4.575  69.772  1.00  0.00    -0.285 A  
HETATM   18  C   UNL     1      -8.832   4.846  68.765  1.00  0.00    -0.114 A  
HETATM   19  C   UNL     1     -11.783  10.736  69.234  1.00  0.00    -0.374 C  
HETATM   20  C   UNL     1     -10.983   9.438  69.384  1.00  0.00    -0.165 C  
HETATM   21  C   UNL     1      -8.309   6.127  68.631  1.00  0.00    -0.114 A  
HETATM   22  C   UNL     1      -8.708   7.134  69.508  1.00  0.00    -0.134 A  
ENDBRANCH   6   7
ENDBRANCH   5   6
ENDBRANCH   4   5
ENDBRANCH   2   4
TORSDOF 4
ENDMDL
MODEL      138
REMARK 921   NORMALIZED FREE ENERGY PREDICTED BY IDOCK:   -3.68 KCAL/MOL
REMARK 922        TOTAL FREE ENERGY PREDICTED BY IDOCK:   -4.84 KCAL/MOL
REMARK 923 INTER-LIGAND FREE ENERGY PREDICTED BY IDOCK:   -4.49 KCAL/MOL
REMARK 924 INTRA-LIGAND FREE ENERGY PREDICTED BY IDOCK:   -0.35 KCAL/MOL
REMARK 927      BINDING AFFINITY PREDICTED BY RF-SCORE:    0.00 PKD
ROOT
HETATM    1  C   UNL     1     -10.297  11.102  63.251  1.00  0.00    -0.308 C  
HETATM    2  N   UNL     1     -10.909  12.380  63.611  1.00  0.00    -0.444 NA 
HETATM    3  C   UNL     1     -12.370  12.245  63.601  1.00  0.00    -0.562 C  
ENDROOT
BRANCH   2   4
HETATM    4  C   UNL     1     -10.392  12.859  64.916  1.00  0.00    -0.308 C  
BRANCH   4   5
HETATM    5  C   UNL     1     -11.040  12.144  66.109  1.00  0.00    -0.312 C  
BRANCH   5   6
HETATM    6  O   UNL     1     -10.749  12.769  67.363  1.00  0.00    -0.226 OA 
BRANCH   6   7
HETATM    7  C   UNL     1     -10.610  11.894  68.397  1.00  0.00    -0.218 C  
HETATM    8  C   UNL     1      -9.573  10.825  68.045  1.00  0.00    -0.172 C  
HETATM    9  O   UNL     1     -11.288  11.912  69.415  1.00  0.00    -0.259 OA 
HETATM   10  C   UNL     1      -8.167  11.388  67.845  1.00  0.00    -0.132 A  
HETATM   11  C   UNL     1      -9.638   9.620  69.031  1.00  0.00    -0.168 C  
HETATM   12  O   UNL     1      -9.294  10.023  70.362  1.00  0.00    -0.369 OA 
HETATM   13  C   UNL     1      -7.673  12.450  68.616  1.00  0.00    -0.067 A  
HETATM   14  C   UNL     1     -11.008   8.920  69.068  1.00  0.00     0.026 C  
HETATM   15  C   UNL     1     -10.706   7.570  69.713  1.00  0.00    -0.249 C  
HETATM   16  H   UNL     1      -9.334   9.289  70.963  1.00  0.00     0.000 HD 
HETATM   17  C   UNL     1      -6.365  12.905  68.437  1.00  0.00    -0.080 A  
HETATM   18  C   UNL     1      -5.528  12.294  67.505  1.00  0.00    -0.118 A  
HETATM   19  C   UNL     1      -9.354   7.168  69.147  1.00  0.00    -0.141 C  
HETATM   20  C   UNL     1      -8.706   8.457  68.632  1.00  0.00    -0.133 C  
HETATM   21  C   UNL     1      -6.004  11.243  66.730  1.00  0.00    -0.132 A  
HETATM   22  C   UNL     1      -7.319  10.807  66.886  1.00  0.00    -0.119 A  
ENDBRANCH   6   7
ENDBRANCH   5   6
ENDBRANCH   4   5
ENDBRANCH   2   4
TORSDOF 4
ENDMDL
MODEL      139
REMARK 921   NORMALIZED FREE ENERGY PREDICTED BY IDOCK:   -3.65 KCAL/MOL
REMARK 922        TOTAL FREE ENERGY PREDICTED BY IDOCK:   -4.81 KCAL/MOL
REMARK 923 INTER-LIGAND FREE ENERGY PREDICTED BY IDOCK:   -4.42 KCAL/MOL
REMARK 924 INTRA-LIGAND FREE ENERGY PREDICTED BY IDOCK:   -0.39 KCAL/MOL
REMARK 927      BINDING AFFINITY PREDICTED BY RF-SCORE:    0.00 PKD
ROOT
HETATM    1  C   UNL     1      -9.220   2.882  69.316  1.00  0.00    -0.144 C  
HETATM    2  N   UNL     1      -9.235   4.313  69.012  1.00  0.00    -0.132 NA 
HETATM    3  C   UNL     1      -9.555   4.510  67.594  1.00  0.00    -0.165 C  
ENDROOT
BRANCH   2   4
HETATM    4  C   UNL     1     -10.174   5.029  69.910  1.00  0.00    -0.270 C  
BRANCH   4   5
HETATM    5  C   UNL     1     -10.816   6.252  69.242  1.00  0.00    -0.342 C  
BRANCH   5   6
HETATM    6  O   UNL     1     -10.992   7.353  70.140  1.00  0.00    -0.253 OA 
BRANCH   6   7
HETATM    7  C   UNL     1      -9.831   7.971  70.490  1.00  0.00    -0.182 C  
HETATM    8  C   UNL     1      -9.291   8.782  69.311  1.00  0.00    -0.149 C  
HETATM    9  O   UNL     1      -9.261   7.816  71.561  1.00  0.00    -0.134 OA 
HETATM   10  C   UNL     1     -10.210   9.931  68.896  1.00  0.00    -0.209 A  
HETATM   11  C   UNL     1      -7.810   9.210  69.543  1.00  0.00    -0.082 C  
HETATM   12  O   UNL     1      -7.697  10.093  70.664  1.00  0.00    -0.428 OA 
HETATM   13  C   UNL     1     -10.942  10.674  69.831  1.00  0.00    -0.337 A  
HETATM   14  C   UNL     1      -6.848   8.027  69.751  1.00  0.00    -0.044 C  
HETATM   15  C   UNL     1      -5.470   8.636  69.504  1.00  0.00    -0.030 C  
HETATM   16  H   UNL     1      -6.794  10.354  70.806  1.00  0.00     0.000 HD 
HETATM   17  C   UNL     1     -11.734  11.748  69.417  1.00  0.00    -0.405 A  
HETATM   18  C   UNL     1     -11.787  12.106  68.071  1.00  0.00    -0.351 A  
HETATM   19  C   UNL     1      -5.680   9.610  68.356  1.00  0.00    -0.040 C  
HETATM   20  C   UNL     1      -7.181   9.911  68.320  1.00  0.00    -0.078 C  
HETATM   21  C   UNL     1     -11.070  11.375  67.131  1.00  0.00    -0.366 A  
HETATM   22  C   UNL     1     -10.303  10.285  67.538  1.00  0.00    -0.276 A  
ENDBRANCH   6   7
ENDBRANCH   5   6
ENDBRANCH   4   5
ENDBRANCH   2   4
TORSDOF 4
ENDMDL
MODEL      140
REMARK 921   NORMALIZED FREE ENERGY PREDICTED BY IDOCK:   -3.64 KCAL/MOL
REMARK 922        TOTAL FREE ENERGY PREDICTED BY IDOCK:   -4.80 KCAL/MOL
REMARK 923 INTER-LIGAND FREE ENERGY PREDICTED BY IDOCK:   -4.51 KCAL/MOL
REMARK 924 INTRA-LIGAND FREE ENERGY PREDICTED BY IDOCK:   -0.29 KCAL/MOL
REMARK 927      BINDING AFFINITY PREDICTED BY RF-SCORE:    0.00 PKD
ROOT
HETATM    1  C   UNL     1     -12.779  13.926  65.269  1.00  0.00    -0.449 C  
HETATM    2  N   UNL     1     -12.561  12.488  65.106  1.00  0.00    -0.650 NA 
HETATM    3  C   UNL     1     -12.631  12.139  63.683  1.00  0.00    -0.504 C  
ENDROOT
BRANCH   2   4
HETATM    4  C   UNL     1     -11.279  12.079  65.728  1.00  0.00    -0.334 C  
BRANCH   4   5
HETATM    5  C   UNL     1     -11.465  11.482  67.130  1.00  0.00    -0.237 C  
BRANCH   5   6
HETATM    6  O   UNL     1     -10.957  10.149  67.244  1.00  0.00    -0.266 OA 
BRANCH   6   7
HETATM    7  C   UNL     1     -10.629   9.790  68.515  1.00  0.00    -0.221 C  
HETATM    8  C   UNL     1      -9.277   9.074  68.527  1.00  0.00    -0.136 C  
HETATM    9  O   UNL     1     -11.358   9.939  69.486  1.00  0.00    -0.209 OA 
HETATM   10  C   UNL     1      -8.117   9.964  68.082  1.00  0.00    -0.104 A  
HETATM   11  C   UNL     1      -9.030   8.342  69.881  1.00  0.00    -0.142 C  
HETATM   12  O   UNL     1      -8.947   9.275  70.964  1.00  0.00    -0.225 OA 
HETATM   13  C   UNL     1      -8.059  11.327  68.402  1.00  0.00    -0.143 A  
HETATM   14  C   UNL     1     -10.099   7.288  70.221  1.00  0.00    -0.196 C  
HETATM   15  C   UNL     1      -9.432   6.431  71.293  1.00  0.00    -0.175 C  
HETATM   16  H   UNL     1      -8.797   8.829  71.789  1.00  0.00     0.000 HD 
HETATM   17  C   UNL     1      -6.958  12.097  68.019  1.00  0.00    -0.090 A  
HETATM   18  C   UNL     1      -5.894  11.512  67.334  1.00  0.00    -0.081 A  
HETATM   19  C   UNL     1      -7.980   6.329  70.854  1.00  0.00    -0.112 C  
HETATM   20  C   UNL     1      -7.742   7.492  69.886  1.00  0.00    -0.098 C  
HETATM   21  C   UNL     1      -5.939  10.163  67.006  1.00  0.00    -0.051 A  
HETATM   22  C   UNL     1      -7.050   9.400  67.360  1.00  0.00    -0.086 A  
ENDBRANCH   6   7
ENDBRANCH   5   6
ENDBRANCH   4   5
ENDBRANCH   2   4
TORSDOF 4
ENDMDL
MODEL      141
REMARK 921   NORMALIZED FREE ENERGY PREDICTED BY IDOCK:   -3.64 KCAL/MOL
REMARK 922        TOTAL FREE ENERGY PREDICTED BY IDOCK:   -4.80 KCAL/MOL
REMARK 923 INTER-LIGAND FREE ENERGY PREDICTED BY IDOCK:   -4.36 KCAL/MOL
REMARK 924 INTRA-LIGAND FREE ENERGY PREDICTED BY IDOCK:   -0.44 KCAL/MOL
REMARK 927      BINDING AFFINITY PREDICTED BY RF-SCORE:    0.00 PKD
ROOT
HETATM    1  C   UNL     1     -11.095   7.835  72.896  1.00  0.00    -0.398 C  
HETATM    2  N   UNL     1     -10.750   6.953  71.782  1.00  0.00    -0.220 NA 
HETATM    3  C   UNL     1     -10.503   5.598  72.287  1.00  0.00    -0.213 C  
ENDROOT
BRANCH   2   4
HETATM    4  C   UNL     1     -11.806   6.986  70.741  1.00  0.00    -0.355 C  
BRANCH   4   5
HETATM    5  C   UNL     1     -11.319   6.454  69.386  1.00  0.00    -0.377 C  
BRANCH   5   6
HETATM    6  O   UNL     1     -10.061   7.006  68.986  1.00  0.00    -0.170 OA 
BRANCH   6   7
HETATM    7  C   UNL     1     -10.166   8.032  68.098  1.00  0.00    -0.207 C  
HETATM    8  C   UNL     1      -9.535   9.299  68.680  1.00  0.00    -0.148 C  
HETATM    9  O   UNL     1     -10.764   7.966  67.033  1.00  0.00    -0.339 OA 
HETATM   10  C   UNL     1      -8.031   9.170  68.920  1.00  0.00    -0.099 A  
HETATM   11  C   UNL     1      -9.940  10.565  67.865  1.00  0.00    -0.169 C  
HETATM   12  O   UNL     1      -9.436  10.500  66.527  1.00  0.00    -0.160 OA 
HETATM   13  C   UNL     1      -7.199   8.446  68.056  1.00  0.00    -0.091 A  
HETATM   14  C   UNL     1     -11.459  10.806  67.808  1.00  0.00    -0.283 C  
HETATM   15  C   UNL     1     -11.575  12.267  67.382  1.00  0.00    -0.425 C  
HETATM   16  H   UNL     1      -9.683  11.271  66.030  1.00  0.00     0.000 HD 
HETATM   17  C   UNL     1      -5.821   8.392  68.283  1.00  0.00    -0.042 A  
HETATM   18  C   UNL     1      -5.256   9.076  69.358  1.00  0.00    -0.035 A  
HETATM   19  C   UNL     1     -10.442  12.971  68.111  1.00  0.00    -0.252 C  
HETATM   20  C   UNL     1      -9.439  11.880  68.498  1.00  0.00    -0.151 C  
HETATM   21  C   UNL     1      -6.070   9.795  70.225  1.00  0.00    -0.068 A  
HETATM   22  C   UNL     1      -7.448   9.825  70.019  1.00  0.00    -0.158 A  
ENDBRANCH   6   7
ENDBRANCH   5   6
ENDBRANCH   4   5
ENDBRANCH   2   4
TORSDOF 4
ENDMDL
MODEL      142
REMARK 921   NORMALIZED FREE ENERGY PREDICTED BY IDOCK:   -3.64 KCAL/MOL
REMARK 922        TOTAL FREE ENERGY PREDICTED BY IDOCK:   -4.80 KCAL/MOL
REMARK 923 INTER-LIGAND FREE ENERGY PREDICTED BY IDOCK:   -4.63 KCAL/MOL
REMARK 924 INTRA-LIGAND FREE ENERGY PREDICTED BY IDOCK:   -0.17 KCAL/MOL
REMARK 927      BINDING AFFINITY PREDICTED BY RF-SCORE:    0.00 PKD
ROOT
HETATM    1  C   UNL     1     -10.658  11.086  66.235  1.00  0.00    -0.237 C  
HETATM    2  N   UNL     1     -10.553  11.599  67.600  1.00  0.00    -0.196 NA 
HETATM    3  C   UNL     1     -11.454  10.846  68.479  1.00  0.00    -0.310 C  
ENDROOT
BRANCH   2   4
HETATM    4  C   UNL     1      -9.145  11.564  68.066  1.00  0.00    -0.174 C  
BRANCH   4   5
HETATM    5  C   UNL     1      -8.930  10.586  69.229  1.00  0.00    -0.134 C  
BRANCH   5   6
HETATM    6  O   UNL     1      -8.813   9.225  68.803  1.00  0.00    -0.130 OA 
BRANCH   6   7
HETATM    7  C   UNL     1      -8.192   8.416  69.705  1.00  0.00    -0.117 C  
HETATM    8  C   UNL     1      -8.834   8.575  71.084  1.00  0.00    -0.223 C  
HETATM    9  O   UNL     1      -7.205   7.737  69.459  1.00  0.00    -0.075 OA 
HETATM   10  C   UNL     1     -10.294   8.125  71.127  1.00  0.00    -0.237 A  
HETATM   11  C   UNL     1      -7.947   7.951  72.203  1.00  0.00    -0.119 C  
HETATM   12  O   UNL     1      -7.820   6.535  72.032  1.00  0.00    -0.098 OA 
HETATM   13  C   UNL     1     -10.757   7.027  70.390  1.00  0.00    -0.259 A  
HETATM   14  C   UNL     1      -6.537   8.564  72.291  1.00  0.00    -0.091 C  
HETATM   15  C   UNL     1      -6.049   8.145  73.675  1.00  0.00    -0.096 C  
HETATM   16  H   UNL     1      -7.278   6.155  72.713  1.00  0.00     0.000 HD 
HETATM   17  C   UNL     1     -12.088   6.617  70.493  1.00  0.00    -0.302 A  
HETATM   18  C   UNL     1     -12.966   7.281  71.348  1.00  0.00    -0.420 A  
HETATM   19  C   UNL     1      -7.279   8.246  74.563  1.00  0.00    -0.239 C  
HETATM   20  C   UNL     1      -8.488   8.211  73.624  1.00  0.00    -0.308 C  
HETATM   21  C   UNL     1     -12.522   8.374  72.082  1.00  0.00    -0.422 A  
HETATM   22  C   UNL     1     -11.203   8.805  71.958  1.00  0.00    -0.443 A  
ENDBRANCH   6   7
ENDBRANCH   5   6
ENDBRANCH   4   5
ENDBRANCH   2   4
TORSDOF 4
ENDMDL
MODEL      143
REMARK 921   NORMALIZED FREE ENERGY PREDICTED BY IDOCK:   -3.64 KCAL/MOL
REMARK 922        TOTAL FREE ENERGY PREDICTED BY IDOCK:   -4.79 KCAL/MOL
REMARK 923 INTER-LIGAND FREE ENERGY PREDICTED BY IDOCK:   -4.52 KCAL/MOL
REMARK 924 INTRA-LIGAND FREE ENERGY PREDICTED BY IDOCK:   -0.27 KCAL/MOL
REMARK 927      BINDING AFFINITY PREDICTED BY RF-SCORE:    0.00 PKD
ROOT
HETATM    1  C   UNL     1      -5.970   9.584  68.535  1.00  0.00    -0.043 C  
HETATM    2  N   UNL     1      -5.796   9.808  67.100  1.00  0.00    -0.051 NA 
HETATM    3  C   UNL     1      -6.745   8.974  66.354  1.00  0.00    -0.075 C  
ENDROOT
BRANCH   2   4
HETATM    4  C   UNL     1      -5.929  11.249  66.775  1.00  0.00    -0.132 C  
BRANCH   4   5
HETATM    5  C   UNL     1      -6.801  12.006  67.786  1.00  0.00    -0.100 C  
BRANCH   5   6
HETATM    6  O   UNL     1      -7.123  13.335  67.365  1.00  0.00    -0.159 OA 
BRANCH   6   7
HETATM    7  C   UNL     1      -8.460  13.592  67.322  1.00  0.00    -0.193 C  
HETATM    8  C   UNL     1      -8.792  14.795  68.206  1.00  0.00    -0.179 C  
HETATM    9  O   UNL     1      -9.279  12.897  66.737  1.00  0.00    -0.227 OA 
HETATM   10  C   UNL     1      -8.151  16.096  67.723  1.00  0.00    -0.157 A  
HETATM   11  C   UNL     1     -10.325  14.905  68.468  1.00  0.00    -0.237 C  
HETATM   12  O   UNL     1     -11.040  15.149  67.252  1.00  0.00    -0.321 OA 
HETATM   13  C   UNL     1      -8.003  16.393  66.362  1.00  0.00    -0.329 A  
HETATM   14  C   UNL     1     -10.928  13.666  69.154  1.00  0.00    -0.235 C  
HETATM   15  C   UNL     1     -12.263  14.169  69.696  1.00  0.00    -0.376 C  
HETATM   16  H   UNL     1     -11.975  15.216  67.412  1.00  0.00     0.000 HD 
HETATM   17  C   UNL     1      -7.455  17.614  65.960  1.00  0.00    -0.282 A  
HETATM   18  C   UNL     1      -7.070  18.560  66.909  1.00  0.00    -0.220 A  
HETATM   19  C   UNL     1     -11.974  15.581  70.180  1.00  0.00    -0.389 C  
HETATM   20  C   UNL     1     -10.692  16.023  69.467  1.00  0.00    -0.298 C  
HETATM   21  C   UNL     1      -7.207  18.277  68.263  1.00  0.00    -0.266 A  
HETATM   22  C   UNL     1      -7.724  17.048  68.667  1.00  0.00    -0.251 A  
ENDBRANCH   6   7
ENDBRANCH   5   6
ENDBRANCH   4   5
ENDBRANCH   2   4
TORSDOF 4
ENDMDL
MODEL      144
REMARK 921   NORMALIZED FREE ENERGY PREDICTED BY IDOCK:   -3.62 KCAL/MOL
REMARK 922        TOTAL FREE ENERGY PREDICTED BY IDOCK:   -4.77 KCAL/MOL
REMARK 923 INTER-LIGAND FREE ENERGY PREDICTED BY IDOCK:   -4.55 KCAL/MOL
REMARK 924 INTRA-LIGAND FREE ENERGY PREDICTED BY IDOCK:   -0.22 KCAL/MOL
REMARK 927      BINDING AFFINITY PREDICTED BY RF-SCORE:    0.00 PKD
ROOT
HETATM    1  C   UNL     1     -14.361  15.229  72.251  1.00  0.00    -0.494 C  
HETATM    2  N   UNL     1     -12.986  15.465  71.811  1.00  0.00    -0.396 NA 
HETATM    3  C   UNL     1     -12.254  16.190  72.855  1.00  0.00    -0.541 C  
ENDROOT
BRANCH   2   4
HETATM    4  C   UNL     1     -12.329  14.189  71.439  1.00  0.00    -0.344 C  
BRANCH   4   5
HETATM    5  C   UNL     1     -11.942  14.133  69.955  1.00  0.00    -0.338 C  
BRANCH   5   6
HETATM    6  O   UNL     1     -11.142  12.992  69.627  1.00  0.00    -0.080 OA 
BRANCH   6   7
HETATM    7  C   UNL     1     -10.183  13.241  68.693  1.00  0.00    -0.172 C  
HETATM    8  C   UNL     1      -9.066  12.201  68.798  1.00  0.00     0.103 C  
HETATM    9  O   UNL     1     -10.178  14.211  67.948  1.00  0.00    -0.229 OA 
HETATM   10  C   UNL     1      -9.531  10.780  68.481  1.00  0.00    -0.181 A  
HETATM   11  C   UNL     1      -7.799  12.643  68.005  1.00  0.00    -0.149 C  
HETATM   12  O   UNL     1      -8.071  12.731  66.602  1.00  0.00    -0.403 OA 
HETATM   13  C   UNL     1     -10.488  10.512  67.494  1.00  0.00    -0.284 A  
HETATM   14  C   UNL     1      -7.208  13.984  68.476  1.00  0.00    -0.109 C  
HETATM   15  C   UNL     1      -5.794  13.976  67.903  1.00  0.00    -0.129 C  
HETATM   16  H   UNL     1      -7.299  13.001  66.119  1.00  0.00     0.000 HD 
HETATM   17  C   UNL     1     -10.852   9.195  67.201  1.00  0.00    -0.094 A  
HETATM   18  C   UNL     1     -10.249   8.132  67.871  1.00  0.00    -0.274 A  
HETATM   19  C   UNL     1      -5.330  12.535  68.043  1.00  0.00    -0.078 C  
HETATM   20  C   UNL     1      -6.599  11.691  68.197  1.00  0.00    -0.061 C  
HETATM   21  C   UNL     1      -9.301   8.382  68.855  1.00  0.00    -0.147 A  
HETATM   22  C   UNL     1      -8.959   9.696  69.171  1.00  0.00    -0.154 A  
ENDBRANCH   6   7
ENDBRANCH   5   6
ENDBRANCH   4   5
ENDBRANCH   2   4
TORSDOF 4
ENDMDL
MODEL      145
REMARK 921   NORMALIZED FREE ENERGY PREDICTED BY IDOCK:   -3.60 KCAL/MOL
REMARK 922        TOTAL FREE ENERGY PREDICTED BY IDOCK:   -4.74 KCAL/MOL
REMARK 923 INTER-LIGAND FREE ENERGY PREDICTED BY IDOCK:   -4.32 KCAL/MOL
REMARK 924 INTRA-LIGAND FREE ENERGY PREDICTED BY IDOCK:   -0.42 KCAL/MOL
REMARK 927      BINDING AFFINITY PREDICTED BY RF-SCORE:    0.00 PKD
ROOT
HETATM    1  C   UNL     1      -8.728   4.061  63.639  1.00  0.00    -0.107 C  
HETATM    2  N   UNL     1      -9.210   4.953  64.693  1.00  0.00    -0.084 NA 
HETATM    3  C   UNL     1      -9.940   4.175  65.699  1.00  0.00    -0.197 C  
ENDROOT
BRANCH   2   4
HETATM    4  C   UNL     1      -8.088   5.726  65.278  1.00  0.00    -0.130 C  
BRANCH   4   5
HETATM    5  C   UNL     1      -8.518   7.116  65.768  1.00  0.00    -0.146 C  
BRANCH   5   6
HETATM    6  O   UNL     1      -8.438   7.259  67.189  1.00  0.00    -0.116 OA 
BRANCH   6   7
HETATM    7  C   UNL     1      -9.594   7.688  67.766  1.00  0.00    -0.144 C  
HETATM    8  C   UNL     1      -9.301   8.311  69.132  1.00  0.00    -0.151 C  
HETATM    9  O   UNL     1     -10.709   7.511  67.295  1.00  0.00    -0.307 OA 
HETATM   10  C   UNL     1      -8.438   9.570  69.050  1.00  0.00    -0.128 A  
HETATM   11  C   UNL     1     -10.603   8.490  69.970  1.00  0.00    -0.227 C  
HETATM   12  O   UNL     1     -11.497   9.415  69.343  1.00  0.00    -0.441 OA 
HETATM   13  C   UNL     1      -8.564  10.492  68.002  1.00  0.00    -0.121 A  
HETATM   14  C   UNL     1     -11.359   7.175  70.230  1.00  0.00    -0.305 C  
HETATM   15  C   UNL     1     -12.287   7.517  71.393  1.00  0.00    -0.374 C  
HETATM   16  H   UNL     1     -12.291   9.524  69.853  1.00  0.00     0.000 HD 
HETATM   17  C   UNL     1      -7.791  11.656  67.988  1.00  0.00    -0.128 A  
HETATM   18  C   UNL     1      -6.902  11.924  69.028  1.00  0.00    -0.105 A  
HETATM   19  C   UNL     1     -11.463   8.432  72.286  1.00  0.00    -0.454 C  
HETATM   20  C   UNL     1     -10.337   8.986  71.407  1.00  0.00    -0.396 C  
HETATM   21  C   UNL     1      -6.764  11.018  70.071  1.00  0.00    -0.097 A  
HETATM   22  C   UNL     1      -7.511   9.841  70.072  1.00  0.00    -0.158 A  
ENDBRANCH   6   7
ENDBRANCH   5   6
ENDBRANCH   4   5
ENDBRANCH   2   4
TORSDOF 4
ENDMDL
MODEL      146
REMARK 921   NORMALIZED FREE ENERGY PREDICTED BY IDOCK:   -3.59 KCAL/MOL
REMARK 922        TOTAL FREE ENERGY PREDICTED BY IDOCK:   -4.74 KCAL/MOL
REMARK 923 INTER-LIGAND FREE ENERGY PREDICTED BY IDOCK:   -4.50 KCAL/MOL
REMARK 924 INTRA-LIGAND FREE ENERGY PREDICTED BY IDOCK:   -0.24 KCAL/MOL
REMARK 927      BINDING AFFINITY PREDICTED BY RF-SCORE:    0.00 PKD
ROOT
HETATM    1  C   UNL     1      -7.810   7.401  74.546  1.00  0.00    -0.162 C  
HETATM    2  N   UNL     1      -7.632   8.486  73.581  1.00  0.00    -0.373 NA 
HETATM    3  C   UNL     1      -6.203   8.670  73.307  1.00  0.00    -0.077 C  
ENDROOT
BRANCH   2   4
HETATM    4  C   UNL     1      -8.417   8.225  72.350  1.00  0.00    -0.190 C  
BRANCH   4   5
HETATM    5  C   UNL     1      -7.863   8.966  71.126  1.00  0.00    -0.140 C  
BRANCH   5   6
HETATM    6  O   UNL     1      -8.332   8.428  69.885  1.00  0.00    -0.119 OA 
BRANCH   6   7
HETATM    7  C   UNL     1      -9.279   9.192  69.275  1.00  0.00    -0.146 C  
HETATM    8  C   UNL     1      -9.237   8.974  67.762  1.00  0.00    -0.152 C  
HETATM    9  O   UNL     1      -9.991  10.003  69.853  1.00  0.00    -0.237 OA 
HETATM   10  C   UNL     1      -9.590   7.545  67.347  1.00  0.00    -0.187 A  
HETATM   11  C   UNL     1     -10.045  10.070  67.004  1.00  0.00    -0.219 C  
HETATM   12  O   UNL     1     -11.437  10.007  67.333  1.00  0.00    -0.431 OA 
HETATM   13  C   UNL     1     -10.563   6.793  68.020  1.00  0.00    -0.283 A  
HETATM   14  C   UNL     1      -9.543  11.502  67.264  1.00  0.00    -0.183 C  
HETATM   15  C   UNL     1     -10.150  12.310  66.120  1.00  0.00    -0.265 C  
HETATM   16  H   UNL     1     -11.929  10.676  66.871  1.00  0.00     0.000 HD 
HETATM   17  C   UNL     1     -10.891   5.509  67.580  1.00  0.00    -0.085 A  
HETATM   18  C   UNL     1     -10.272   4.969  66.454  1.00  0.00    -0.307 A  
HETATM   19  C   UNL     1     -10.070  11.388  64.914  1.00  0.00    -0.323 C  
HETATM   20  C   UNL     1      -9.915   9.969  65.469  1.00  0.00    -0.367 C  
HETATM   21  C   UNL     1      -9.303   5.702  65.779  1.00  0.00    -0.078 A  
HETATM   22  C   UNL     1      -8.951   6.971  66.234  1.00  0.00    -0.175 A  
ENDBRANCH   6   7
ENDBRANCH   5   6
ENDBRANCH   4   5
ENDBRANCH   2   4
TORSDOF 4
ENDMDL
MODEL      147
REMARK 921   NORMALIZED FREE ENERGY PREDICTED BY IDOCK:   -3.57 KCAL/MOL
REMARK 922        TOTAL FREE ENERGY PREDICTED BY IDOCK:   -4.71 KCAL/MOL
REMARK 923 INTER-LIGAND FREE ENERGY PREDICTED BY IDOCK:   -4.40 KCAL/MOL
REMARK 924 INTRA-LIGAND FREE ENERGY PREDICTED BY IDOCK:   -0.31 KCAL/MOL
REMARK 927      BINDING AFFINITY PREDICTED BY RF-SCORE:    0.00 PKD
ROOT
HETATM    1  C   UNL     1     -13.553   9.300  71.595  1.00  0.00    -0.381 C  
HETATM    2  N   UNL     1     -12.154   9.354  72.017  1.00  0.00    -0.345 NA 
HETATM    3  C   UNL     1     -11.777   8.078  72.634  1.00  0.00    -0.358 C  
ENDROOT
BRANCH   2   4
HETATM    4  C   UNL     1     -11.277   9.714  70.876  1.00  0.00    -0.352 C  
BRANCH   4   5
HETATM    5  C   UNL     1     -10.643   8.487  70.206  1.00  0.00    -0.226 C  
BRANCH   5   6
HETATM    6  O   UNL     1      -9.217   8.572  70.116  1.00  0.00    -0.151 OA 
BRANCH   6   7
HETATM    7  C   UNL     1      -8.641   7.513  69.483  1.00  0.00    -0.133 C  
HETATM    8  C   UNL     1      -9.271   7.319  68.103  1.00  0.00    -0.132 C  
HETATM    9  O   UNL     1      -7.809   6.774  69.990  1.00  0.00    -0.106 OA 
HETATM   10  C   UNL     1      -9.028   8.493  67.155  1.00  0.00    -0.145 A  
HETATM   11  C   UNL     1      -8.903   5.931  67.497  1.00  0.00    -0.106 C  
HETATM   12  O   UNL     1      -7.494   5.828  67.262  1.00  0.00    -0.079 OA 
HETATM   13  C   UNL     1      -7.824   9.210  67.152  1.00  0.00    -0.102 A  
HETATM   14  C   UNL     1      -9.345   4.738  68.364  1.00  0.00    -0.177 C  
HETATM   15  C   UNL     1      -9.296   3.555  67.400  1.00  0.00    -0.246 C  
HETATM   16  H   UNL     1      -7.269   4.981  66.893  1.00  0.00     0.000 HD 
HETATM   17  C   UNL     1      -7.621  10.247  66.238  1.00  0.00    -0.117 A  
HETATM   18  C   UNL     1      -8.605  10.565  65.303  1.00  0.00    -0.185 A  
HETATM   19  C   UNL     1      -9.795   4.115  66.078  1.00  0.00    -0.206 C  
HETATM   20  C   UNL     1      -9.629   5.635  66.168  1.00  0.00    -0.142 C  
HETATM   21  C   UNL     1      -9.805   9.865  65.297  1.00  0.00    -0.373 A  
HETATM   22  C   UNL     1     -10.022   8.851  66.228  1.00  0.00    -0.337 A  
ENDBRANCH   6   7
ENDBRANCH   5   6
ENDBRANCH   4   5
ENDBRANCH   2   4
TORSDOF 4
ENDMDL
MODEL      148
REMARK 921   NORMALIZED FREE ENERGY PREDICTED BY IDOCK:   -3.56 KCAL/MOL
REMARK 922        TOTAL FREE ENERGY PREDICTED BY IDOCK:   -4.70 KCAL/MOL
REMARK 923 INTER-LIGAND FREE ENERGY PREDICTED BY IDOCK:   -4.36 KCAL/MOL
REMARK 924 INTRA-LIGAND FREE ENERGY PREDICTED BY IDOCK:   -0.34 KCAL/MOL
REMARK 927      BINDING AFFINITY PREDICTED BY RF-SCORE:    0.00 PKD
ROOT
HETATM    1  C   UNL     1     -12.060  13.689  65.314  1.00  0.00    -0.406 C  
HETATM    2  N   UNL     1     -10.756  13.793  65.969  1.00  0.00    -0.281 NA 
HETATM    3  C   UNL     1     -10.265  15.172  65.871  1.00  0.00    -0.324 C  
ENDROOT
BRANCH   2   4
HETATM    4  C   UNL     1     -10.835  13.318  67.372  1.00  0.00    -0.267 C  
BRANCH   4   5
HETATM    5  C   UNL     1     -12.105  12.501  67.650  1.00  0.00    -0.056 C  
BRANCH   5   6
HETATM    6  O   UNL     1     -11.831  11.211  68.206  1.00  0.00    -0.522 OA 
BRANCH   6   7
HETATM    7  C   UNL     1     -10.908  10.494  67.508  1.00  0.00    -0.301 C  
HETATM    8  C   UNL     1      -9.712  10.165  68.403  1.00  0.00    -0.157 C  
HETATM    9  O   UNL     1     -10.989  10.238  66.314  1.00  0.00     0.010 OA 
HETATM   10  C   UNL     1     -10.069   9.259  69.581  1.00  0.00    -0.208 A  
HETATM   11  C   UNL     1      -8.495   9.664  67.568  1.00  0.00    -0.125 C  
HETATM   12  O   UNL     1      -8.795   8.430  66.907  1.00  0.00    -0.135 OA 
HETATM   13  C   UNL     1     -11.018   8.234  69.472  1.00  0.00    -0.051 A  
HETATM   14  C   UNL     1      -8.003  10.677  66.518  1.00  0.00    -0.138 C  
HETATM   15  C   UNL     1      -6.601  10.184  66.170  1.00  0.00    -0.098 C  
HETATM   16  H   UNL     1      -8.053   8.125  66.397  1.00  0.00     0.000 HD 
HETATM   17  C   UNL     1     -11.282   7.397  70.559  1.00  0.00    -0.296 A  
HETATM   18  C   UNL     1     -10.588   7.557  71.757  1.00  0.00    -0.237 A  
HETATM   19  C   UNL     1      -6.025   9.701  67.492  1.00  0.00    -0.051 C  
HETATM   20  C   UNL     1      -7.222   9.452  68.414  1.00  0.00    -0.076 C  
HETATM   21  C   UNL     1      -9.648   8.573  71.882  1.00  0.00    -0.353 A  
HETATM   22  C   UNL     1      -9.405   9.429  70.809  1.00  0.00    -0.292 A  
ENDBRANCH   6   7
ENDBRANCH   5   6
ENDBRANCH   4   5
ENDBRANCH   2   4
TORSDOF 4
ENDMDL
MODEL      149
REMARK 921   NORMALIZED FREE ENERGY PREDICTED BY IDOCK:   -3.53 KCAL/MOL
REMARK 922        TOTAL FREE ENERGY PREDICTED BY IDOCK:   -4.66 KCAL/MOL
REMARK 923 INTER-LIGAND FREE ENERGY PREDICTED BY IDOCK:   -4.11 KCAL/MOL
REMARK 924 INTRA-LIGAND FREE ENERGY PREDICTED BY IDOCK:   -0.55 KCAL/MOL
REMARK 927      BINDING AFFINITY PREDICTED BY RF-SCORE:    0.00 PKD
ROOT
HETATM    1  C   UNL     1     -13.402   8.468  71.939  1.00  0.00    -0.372 C  
HETATM    2  N   UNL     1     -12.277   8.071  71.093  1.00  0.00    -0.282 NA 
HETATM    3  C   UNL     1     -11.117   8.919  71.387  1.00  0.00    -0.306 C  
ENDROOT
BRANCH   2   4
HETATM    4  C   UNL     1     -11.981   6.627  71.260  1.00  0.00    -0.355 C  
BRANCH   4   5
HETATM    5  C   UNL     1     -10.573   6.251  70.779  1.00  0.00    -0.243 C  
BRANCH   5   6
HETATM    6  O   UNL     1     -10.579   5.508  69.556  1.00  0.00    -0.290 OA 
BRANCH   6   7
HETATM    7  C   UNL     1     -10.583   6.285  68.438  1.00  0.00    -0.260 C  
HETATM    8  C   UNL     1      -9.358   7.202  68.430  1.00  0.00    -0.135 C  
HETATM    9  O   UNL     1     -11.487   6.308  67.615  1.00  0.00    -0.103 OA 
HETATM   10  C   UNL     1      -8.034   6.442  68.348  1.00  0.00    -0.106 A  
HETATM   11  C   UNL     1      -9.501   8.338  67.374  1.00  0.00    -0.151 C  
HETATM   12  O   UNL     1      -9.554   7.805  66.046  1.00  0.00    -0.415 OA 
HETATM   13  C   UNL     1      -7.894   5.271  67.590  1.00  0.00    -0.096 A  
HETATM   14  C   UNL     1     -10.732   9.237  67.592  1.00  0.00    -0.276 C  
HETATM   15  C   UNL     1     -10.420  10.482  66.765  1.00  0.00    -0.302 C  
HETATM   16  H   UNL     1      -9.642   8.498  65.401  1.00  0.00     0.000 HD 
HETATM   17  C   UNL     1      -6.655   4.632  67.501  1.00  0.00    -0.047 A  
HETATM   18  C   UNL     1      -5.539   5.163  68.145  1.00  0.00    -0.016 A  
HETATM   19  C   UNL     1      -8.928  10.705  66.955  1.00  0.00    -0.145 C  
HETATM   20  C   UNL     1      -8.352   9.367  67.427  1.00  0.00    -0.125 C  
HETATM   21  C   UNL     1      -5.664   6.321  68.904  1.00  0.00    -0.019 A  
HETATM   22  C   UNL     1      -6.906   6.944  69.020  1.00  0.00    -0.069 A  
ENDBRANCH   6   7
ENDBRANCH   5   6
ENDBRANCH   4   5
ENDBRANCH   2   4
TORSDOF 4
ENDMDL
MODEL      150
REMARK 921   NORMALIZED FREE ENERGY PREDICTED BY IDOCK:   -3.53 KCAL/MOL
REMARK 922        TOTAL FREE ENERGY PREDICTED BY IDOCK:   -4.65 KCAL/MOL
REMARK 923 INTER-LIGAND FREE ENERGY PREDICTED BY IDOCK:   -4.10 KCAL/MOL
REMARK 924 INTRA-LIGAND FREE ENERGY PREDICTED BY IDOCK:   -0.55 KCAL/MOL
REMARK 927      BINDING AFFINITY PREDICTED BY RF-SCORE:    0.00 PKD
ROOT
HETATM    1  C   UNL     1     -10.173  13.352  64.268  1.00  0.00    -0.110 C  
HETATM    2  N   UNL     1     -11.347  13.698  65.069  1.00  0.00    -0.319 NA 
HETATM    3  C   UNL     1     -12.171  14.667  64.339  1.00  0.00    -0.452 C  
ENDROOT
BRANCH   2   4
HETATM    4  C   UNL     1     -12.103  12.478  65.443  1.00  0.00    -0.435 C  
BRANCH   4   5
HETATM    5  C   UNL     1     -11.406  11.663  66.541  1.00  0.00    -0.263 C  
BRANCH   5   6
HETATM    6  O   UNL     1     -11.368  12.338  67.802  1.00  0.00    -0.260 OA 
BRANCH   6   7
HETATM    7  C   UNL     1     -10.138  12.346  68.386  1.00  0.00    -0.217 C  
HETATM    8  C   UNL     1      -9.321  13.534  67.874  1.00  0.00    -0.215 C  
HETATM    9  O   UNL     1      -9.723  11.474  69.136  1.00  0.00    -0.033 OA 
HETATM   10  C   UNL     1      -9.920  14.888  68.253  1.00  0.00    -0.222 A  
HETATM   11  C   UNL     1      -7.812  13.387  68.235  1.00  0.00    -0.143 C  
HETATM   12  O   UNL     1      -7.616  13.405  69.653  1.00  0.00    -0.138 OA 
HETATM   13  C   UNL     1     -10.557  15.103  69.482  1.00  0.00    -0.277 A  
HETATM   14  C   UNL     1      -7.159  12.114  67.665  1.00  0.00    -0.124 C  
HETATM   15  C   UNL     1      -5.663  12.409  67.748  1.00  0.00    -0.105 C  
HETATM   16  H   UNL     1      -6.696  13.315  69.873  1.00  0.00     0.000 HD 
HETATM   17  C   UNL     1     -11.049  16.368  69.812  1.00  0.00    -0.305 A  
HETATM   18  C   UNL     1     -10.891  17.437  68.931  1.00  0.00    -0.009 A  
HETATM   19  C   UNL     1      -5.542  13.883  67.394  1.00  0.00     0.300 C  
HETATM   20  C   UNL     1      -6.929  14.492  67.618  1.00  0.00    -0.204 C  
HETATM   21  C   UNL     1     -10.265  17.238  67.706  1.00  0.00    -0.332 A  
HETATM   22  C   UNL     1      -9.801  15.970  67.362  1.00  0.00    -0.236 A  
ENDBRANCH   6   7
ENDBRANCH   5   6
ENDBRANCH   4   5
ENDBRANCH   2   4
TORSDOF 4
ENDMDL
MODEL      151
REMARK 921   NORMALIZED FREE ENERGY PREDICTED BY IDOCK:   -3.52 KCAL/MOL
REMARK 922        TOTAL FREE ENERGY PREDICTED BY IDOCK:   -4.64 KCAL/MOL
REMARK 923 INTER-LIGAND FREE ENERGY PREDICTED BY IDOCK:   -5.87 KCAL/MOL
REMARK 924 INTRA-LIGAND FREE ENERGY PREDICTED BY IDOCK:    1.23 KCAL/MOL
REMARK 927      BINDING AFFINITY PREDICTED BY RF-SCORE:    0.00 PKD
ROOT
HETATM    1  C   UNL     1      -5.714  18.488  64.590  1.00  0.00    -0.126 C  
HETATM    2  N   UNL     1      -5.994  17.678  65.776  1.00  0.00    -0.139 NA 
HETATM    3  C   UNL     1      -5.136  18.115  66.883  1.00  0.00    -0.122 C  
ENDROOT
BRANCH   2   4
HETATM    4  C   UNL     1      -7.436  17.734  66.119  1.00  0.00    -0.287 C  
BRANCH   4   5
HETATM    5  C   UNL     1      -7.972  16.395  66.643  1.00  0.00    -0.288 C  
BRANCH   5   6
HETATM    6  O   UNL     1      -8.950  15.806  65.781  1.00  0.00    -0.282 OA 
BRANCH   6   7
HETATM    7  C   UNL     1     -10.095  15.434  66.417  1.00  0.00    -0.279 C  
HETATM    8  C   UNL     1     -10.116  16.001  67.837  1.00  0.00    -0.241 C  
HETATM    9  O   UNL     1     -10.933  14.677  65.946  1.00  0.00    -0.316 OA 
HETATM   10  C   UNL     1     -10.150  17.529  67.877  1.00  0.00    -0.330 A  
HETATM   11  C   UNL     1     -11.214  15.321  68.708  1.00  0.00    -0.287 C  
HETATM   12  O   UNL     1     -12.523  15.596  68.196  1.00  0.00    -0.154 OA 
HETATM   13  C   UNL     1     -10.863  18.283  66.936  1.00  0.00    -0.152 A  
HETATM   14  C   UNL     1     -11.048  13.796  68.838  1.00  0.00    -0.300 C  
HETATM   15  C   UNL     1     -11.913  13.441  70.044  1.00  0.00    -0.407 C  
HETATM   16  H   UNL     1     -13.193  15.181  68.727  1.00  0.00     0.000 HD 
HETATM   17  C   UNL     1     -10.910  19.676  67.034  1.00  0.00    -0.518 A  
HETATM   18  C   UNL     1     -10.267  20.330  68.084  1.00  0.00    -0.399 A  
HETATM   19  C   UNL     1     -11.708  14.591  71.017  1.00  0.00    -0.295 C  
HETATM   20  C   UNL     1     -11.179  15.764  70.186  1.00  0.00    -0.357 C  
HETATM   21  C   UNL     1      -9.552  19.596  69.023  1.00  0.00    -0.378 A  
HETATM   22  C   UNL     1      -9.478  18.209  68.909  1.00  0.00    -0.216 A  
ENDBRANCH   6   7
ENDBRANCH   5   6
ENDBRANCH   4   5
ENDBRANCH   2   4
TORSDOF 4
ENDMDL
MODEL      152
REMARK 921   NORMALIZED FREE ENERGY PREDICTED BY IDOCK:   -3.52 KCAL/MOL
REMARK 922        TOTAL FREE ENERGY PREDICTED BY IDOCK:   -4.64 KCAL/MOL
REMARK 923 INTER-LIGAND FREE ENERGY PREDICTED BY IDOCK:   -4.37 KCAL/MOL
REMARK 924 INTRA-LIGAND FREE ENERGY PREDICTED BY IDOCK:   -0.27 KCAL/MOL
REMARK 927      BINDING AFFINITY PREDICTED BY RF-SCORE:    0.00 PKD
ROOT
HETATM    1  C   UNL     1      -8.318   6.233  68.882  1.00  0.00    -0.120 C  
HETATM    2  N   UNL     1      -9.654   6.712  68.528  1.00  0.00    -0.126 NA 
HETATM    3  C   UNL     1     -10.395   7.047  69.748  1.00  0.00    -0.212 C  
ENDROOT
BRANCH   2   4
HETATM    4  C   UNL     1      -9.569   7.853  67.585  1.00  0.00    -0.150 C  
BRANCH   4   5
HETATM    5  C   UNL     1     -10.745   8.829  67.726  1.00  0.00    -0.125 C  
BRANCH   5   6
HETATM    6  O   UNL     1     -10.367  10.082  68.304  1.00  0.00    -0.175 OA 
BRANCH   6   7
HETATM    7  C   UNL     1     -10.683  11.161  67.536  1.00  0.00    -0.236 C  
HETATM    8  C   UNL     1      -9.477  12.094  67.417  1.00  0.00    -0.179 C  
HETATM    9  O   UNL     1     -11.799  11.390  67.090  1.00  0.00    -0.566 OA 
HETATM   10  C   UNL     1      -8.290  11.459  66.692  1.00  0.00    -0.172 A  
HETATM   11  C   UNL     1      -9.886  13.489  66.857  1.00  0.00    -0.257 C  
HETATM   12  O   UNL     1     -10.385  13.383  65.519  1.00  0.00    -0.283 OA 
HETATM   13  C   UNL     1      -8.460  10.581  65.612  1.00  0.00    -0.179 A  
HETATM   14  C   UNL     1     -10.934  14.220  67.716  1.00  0.00    -0.275 C  
HETATM   15  C   UNL     1     -10.834  15.670  67.250  1.00  0.00    -0.298 C  
HETATM   16  H   UNL     1     -10.636  14.233  65.177  1.00  0.00     0.000 HD 
HETATM   17  C   UNL     1      -7.349  10.059  64.945  1.00  0.00    -0.140 A  
HETATM   18  C   UNL     1      -6.060  10.422  65.331  1.00  0.00    -0.132 A  
HETATM   19  C   UNL     1      -9.349  15.896  67.015  1.00  0.00    -0.230 C  
HETATM   20  C   UNL     1      -8.726  14.507  66.851  1.00  0.00    -0.237 C  
HETATM   21  C   UNL     1      -5.876  11.288  66.402  1.00  0.00    -0.136 A  
HETATM   22  C   UNL     1      -6.982  11.786  67.089  1.00  0.00    -0.145 A  
ENDBRANCH   6   7
ENDBRANCH   5   6
ENDBRANCH   4   5
ENDBRANCH   2   4
TORSDOF 4
ENDMDL
MODEL      153
REMARK 921   NORMALIZED FREE ENERGY PREDICTED BY IDOCK:   -3.50 KCAL/MOL
REMARK 922        TOTAL FREE ENERGY PREDICTED BY IDOCK:   -4.62 KCAL/MOL
REMARK 923 INTER-LIGAND FREE ENERGY PREDICTED BY IDOCK:   -4.37 KCAL/MOL
REMARK 924 INTRA-LIGAND FREE ENERGY PREDICTED BY IDOCK:   -0.26 KCAL/MOL
REMARK 927      BINDING AFFINITY PREDICTED BY RF-SCORE:    0.00 PKD
ROOT
HETATM    1  C   UNL     1      -5.713   5.782  72.530  1.00  0.00    -0.031 C  
HETATM    2  N   UNL     1      -5.911   5.385  71.137  1.00  0.00    -0.024 NA 
HETATM    3  C   UNL     1      -7.301   4.960  70.940  1.00  0.00    -0.064 C  
ENDROOT
BRANCH   2   4
HETATM    4  C   UNL     1      -5.517   6.481  70.219  1.00  0.00    -0.018 C  
BRANCH   4   5
HETATM    5  C   UNL     1      -6.705   7.356  69.796  1.00  0.00    -0.044 C  
BRANCH   5   6
HETATM    6  O   UNL     1      -7.079   8.312  70.792  1.00  0.00    -0.040 OA 
BRANCH   6   7
HETATM    7  C   UNL     1      -7.685   9.423  70.291  1.00  0.00    -0.144 C  
HETATM    8  C   UNL     1      -8.929   9.029  69.492  1.00  0.00    -0.147 C  
HETATM    9  O   UNL     1      -7.239  10.558  70.389  1.00  0.00    -0.248 OA 
HETATM   10  C   UNL     1     -10.012   8.371  70.346  1.00  0.00    -0.199 A  
HETATM   11  C   UNL     1      -9.445  10.212  68.618  1.00  0.00    -0.164 C  
HETATM   12  O   UNL     1      -9.878  11.306  69.433  1.00  0.00    -0.420 OA 
HETATM   13  C   UNL     1     -10.266   8.771  71.665  1.00  0.00    -0.394 A  
HETATM   14  C   UNL     1      -8.409  10.733  67.605  1.00  0.00    -0.119 C  
HETATM   15  C   UNL     1      -9.248  11.525  66.607  1.00  0.00    -0.194 C  
HETATM   16  H   UNL     1     -10.192  12.027  68.900  1.00  0.00     0.000 HD 
HETATM   17  C   UNL     1     -11.298   8.178  72.397  1.00  0.00    -0.456 A  
HETATM   18  C   UNL     1     -12.101   7.197  71.816  1.00  0.00    -0.363 A  
HETATM   19  C   UNL     1     -10.528  10.719  66.456  1.00  0.00    -0.299 C  
HETATM   20  C   UNL     1     -10.614   9.818  67.691  1.00  0.00    -0.333 C  
HETATM   21  C   UNL     1     -11.858   6.788  70.511  1.00  0.00    -0.418 A  
HETATM   22  C   UNL     1     -10.810   7.356  69.789  1.00  0.00    -0.246 A  
ENDBRANCH   6   7
ENDBRANCH   5   6
ENDBRANCH   4   5
ENDBRANCH   2   4
TORSDOF 4
ENDMDL
MODEL      154
REMARK 921   NORMALIZED FREE ENERGY PREDICTED BY IDOCK:   -3.48 KCAL/MOL
REMARK 922        TOTAL FREE ENERGY PREDICTED BY IDOCK:   -4.59 KCAL/MOL
REMARK 923 INTER-LIGAND FREE ENERGY PREDICTED BY IDOCK:   -4.18 KCAL/MOL
REMARK 924 INTRA-LIGAND FREE ENERGY PREDICTED BY IDOCK:   -0.41 KCAL/MOL
REMARK 927      BINDING AFFINITY PREDICTED BY RF-SCORE:    0.00 PKD
ROOT
HETATM    1  C   UNL     1     -11.850  13.678  66.955  1.00  0.00    -0.411 C  
HETATM    2  N   UNL     1     -11.085  12.681  67.703  1.00  0.00    -0.250 NA 
HETATM    3  C   UNL     1      -9.839  13.281  68.191  1.00  0.00    -0.231 C  
ENDROOT
BRANCH   2   4
HETATM    4  C   UNL     1     -11.905  12.105  68.797  1.00  0.00    -0.303 C  
BRANCH   4   5
HETATM    5  C   UNL     1     -11.686  10.596  68.970  1.00  0.00    -0.234 C  
BRANCH   5   6
HETATM    6  O   UNL     1     -11.175   9.965  67.792  1.00  0.00    -0.225 OA 
BRANCH   6   7
HETATM    7  C   UNL     1     -10.637   8.734  68.015  1.00  0.00    -0.159 C  
HETATM    8  C   UNL     1      -9.793   8.305  66.814  1.00  0.00    -0.333 C  
HETATM    9  O   UNL     1     -10.877   8.041  68.994  1.00  0.00    -0.136 OA 
HETATM   10  C   UNL     1      -8.578   9.202  66.576  1.00  0.00    -0.136 A  
HETATM   11  C   UNL     1      -9.454   6.784  66.868  1.00  0.00    -0.156 C  
HETATM   12  O   UNL     1      -8.639   6.477  68.003  1.00  0.00    -0.118 OA 
HETATM   13  C   UNL     1      -7.849   9.764  67.633  1.00  0.00    -0.095 A  
HETATM   14  C   UNL     1     -10.695   5.873  66.892  1.00  0.00    -0.395 C  
HETATM   15  C   UNL     1     -10.145   4.506  66.495  1.00  0.00    -0.257 C  
HETATM   16  H   UNL     1      -8.433   5.550  68.037  1.00  0.00     0.000 HD 
HETATM   17  C   UNL     1      -6.716  10.539  67.376  1.00  0.00    -0.071 A  
HETATM   18  C   UNL     1      -6.285  10.745  66.066  1.00  0.00    -0.134 A  
HETATM   19  C   UNL     1      -9.102   4.806  65.430  1.00  0.00    -0.154 C  
HETATM   20  C   UNL     1      -8.723   6.279  65.607  1.00  0.00    -0.122 C  
HETATM   21  C   UNL     1      -7.000  10.198  65.008  1.00  0.00    -0.135 A  
HETATM   22  C   UNL     1      -8.148   9.449  65.260  1.00  0.00    -0.124 A  
ENDBRANCH   6   7
ENDBRANCH   5   6
ENDBRANCH   4   5
ENDBRANCH   2   4
TORSDOF 4
ENDMDL
MODEL      155
REMARK 921   NORMALIZED FREE ENERGY PREDICTED BY IDOCK:   -3.46 KCAL/MOL
REMARK 922        TOTAL FREE ENERGY PREDICTED BY IDOCK:   -4.58 KCAL/MOL
REMARK 923 INTER-LIGAND FREE ENERGY PREDICTED BY IDOCK:   -4.25 KCAL/MOL
REMARK 924 INTRA-LIGAND FREE ENERGY PREDICTED BY IDOCK:   -0.33 KCAL/MOL
REMARK 927      BINDING AFFINITY PREDICTED BY RF-SCORE:    0.00 PKD
ROOT
HETATM    1  C   UNL     1     -10.729  16.080  66.145  1.00  0.00    -0.244 C  
HETATM    2  N   UNL     1     -10.630  15.725  67.561  1.00  0.00    -0.303 NA 
HETATM    3  C   UNL     1     -10.445  16.941  68.360  1.00  0.00    -0.355 C  
ENDROOT
BRANCH   2   4
HETATM    4  C   UNL     1     -11.813  14.939  67.988  1.00  0.00    -0.268 C  
BRANCH   4   5
HETATM    5  C   UNL     1     -11.805  13.508  67.434  1.00  0.00    -0.384 C  
BRANCH   5   6
HETATM    6  O   UNL     1     -10.494  12.939  67.370  1.00  0.00    -0.231 OA 
BRANCH   6   7
HETATM    7  C   UNL     1     -10.413  11.825  66.592  1.00  0.00    -0.224 C  
HETATM    8  C   UNL     1      -8.968  11.599  66.145  1.00  0.00    -0.180 C  
HETATM    9  O   UNL     1     -11.376  11.163  66.229  1.00  0.00    -0.198 OA 
HETATM   10  C   UNL     1      -8.015  11.309  67.305  1.00  0.00    -0.141 A  
HETATM   11  C   UNL     1      -8.884  10.562  64.985  1.00  0.00    -0.191 C  
HETATM   12  O   UNL     1      -9.330   9.270  65.413  1.00  0.00    -0.248 OA 
HETATM   13  C   UNL     1      -8.407  10.558  68.422  1.00  0.00    -0.126 A  
HETATM   14  C   UNL     1      -9.681  10.967  63.732  1.00  0.00    -0.354 C  
HETATM   15  C   UNL     1      -9.101  10.080  62.634  1.00  0.00    -0.304 C  
HETATM   16  H   UNL     1      -9.279   8.638  64.705  1.00  0.00     0.000 HD 
HETATM   17  C   UNL     1      -7.493  10.275  69.439  1.00  0.00    -0.128 A  
HETATM   18  C   UNL     1      -6.174  10.716  69.344  1.00  0.00    -0.051 A  
HETATM   19  C   UNL     1      -7.613  10.015  62.937  1.00  0.00    -0.135 C  
HETATM   20  C   UNL     1      -7.460  10.406  64.410  1.00  0.00    -0.010 C  
HETATM   21  C   UNL     1      -5.772  11.465  68.245  1.00  0.00    -0.045 A  
HETATM   22  C   UNL     1      -6.690  11.776  67.244  1.00  0.00    -0.133 A  
ENDBRANCH   6   7
ENDBRANCH   5   6
ENDBRANCH   4   5
ENDBRANCH   2   4
TORSDOF 4
ENDMDL
MODEL      156
REMARK 921   NORMALIZED FREE ENERGY PREDICTED BY IDOCK:   -3.46 KCAL/MOL
REMARK 922        TOTAL FREE ENERGY PREDICTED BY IDOCK:   -4.58 KCAL/MOL
REMARK 923 INTER-LIGAND FREE ENERGY PREDICTED BY IDOCK:   -4.25 KCAL/MOL
REMARK 924 INTRA-LIGAND FREE ENERGY PREDICTED BY IDOCK:   -0.32 KCAL/MOL
REMARK 927      BINDING AFFINITY PREDICTED BY RF-SCORE:    0.00 PKD
ROOT
HETATM    1  C   UNL     1     -14.206  14.965  71.729  1.00  0.00    -0.544 C  
HETATM    2  N   UNL     1     -12.907  15.616  71.564  1.00  0.00    -0.452 NA 
HETATM    3  C   UNL     1     -12.417  16.073  72.869  1.00  0.00    -0.497 C  
ENDROOT
BRANCH   2   4
HETATM    4  C   UNL     1     -11.950  14.708  70.885  1.00  0.00    -0.326 C  
BRANCH   4   5
HETATM    5  C   UNL     1     -12.598  13.909  69.746  1.00  0.00    -0.062 C  
BRANCH   5   6
HETATM    6  O   UNL     1     -11.691  13.618  68.678  1.00  0.00    -0.308 OA 
BRANCH   6   7
HETATM    7  C   UNL     1     -10.876  12.555  68.920  1.00  0.00    -0.196 C  
HETATM    8  C   UNL     1      -9.690  12.571  67.954  1.00  0.00    -0.205 C  
HETATM    9  O   UNL     1     -11.115  11.670  69.730  1.00  0.00    -0.177 OA 
HETATM   10  C   UNL     1      -8.779  13.785  68.135  1.00  0.00    -0.183 A  
HETATM   11  C   UNL     1      -8.935  11.208  67.954  1.00  0.00    -0.143 C  
HETATM   12  O   UNL     1      -8.347  10.943  69.233  1.00  0.00    -0.318 OA 
HETATM   13  C   UNL     1      -8.513  14.336  69.395  1.00  0.00     0.358 A  
HETATM   14  C   UNL     1      -9.817  10.009  67.561  1.00  0.00    -0.211 C  
HETATM   15  C   UNL     1      -8.808   8.922  67.199  1.00  0.00    -0.133 C  
HETATM   16  H   UNL     1      -7.887  10.112  69.233  1.00  0.00     0.000 HD 
HETATM   17  C   UNL     1      -7.636  15.416  69.524  1.00  0.00    -0.212 A  
HETATM   18  C   UNL     1      -6.998  15.943  68.403  1.00  0.00    -0.116 A  
HETATM   19  C   UNL     1      -7.688   9.661  66.485  1.00  0.00    -0.098 C  
HETATM   20  C   UNL     1      -7.817  11.132  66.893  1.00  0.00    -0.152 C  
HETATM   21  C   UNL     1      -7.255  15.410  67.145  1.00  0.00    -0.179 A  
HETATM   22  C   UNL     1      -8.153  14.352  67.010  1.00  0.00    -0.095 A  
ENDBRANCH   6   7
ENDBRANCH   5   6
ENDBRANCH   4   5
ENDBRANCH   2   4
TORSDOF 4
ENDMDL
MODEL      157
REMARK 921   NORMALIZED FREE ENERGY PREDICTED BY IDOCK:   -3.43 KCAL/MOL
REMARK 922        TOTAL FREE ENERGY PREDICTED BY IDOCK:   -4.53 KCAL/MOL
REMARK 923 INTER-LIGAND FREE ENERGY PREDICTED BY IDOCK:   -4.25 KCAL/MOL
REMARK 924 INTRA-LIGAND FREE ENERGY PREDICTED BY IDOCK:   -0.28 KCAL/MOL
REMARK 927      BINDING AFFINITY PREDICTED BY RF-SCORE:    0.00 PKD
ROOT
HETATM    1  C   UNL     1     -12.741  10.423  71.369  1.00  0.00    -0.446 C  
HETATM    2  N   UNL     1     -12.693   9.089  71.966  1.00  0.00    -0.369 NA 
HETATM    3  C   UNL     1     -14.023   8.474  71.903  1.00  0.00    -0.437 C  
ENDROOT
BRANCH   2   4
HETATM    4  C   UNL     1     -11.653   8.259  71.311  1.00  0.00    -0.281 C  
BRANCH   4   5
HETATM    5  C   UNL     1     -10.830   9.044  70.280  1.00  0.00    -0.238 C  
BRANCH   5   6
HETATM    6  O   UNL     1     -11.278   8.846  68.936  1.00  0.00     0.105 OA 
BRANCH   6   7
HETATM    7  C   UNL     1     -10.942   9.855  68.087  1.00  0.00    -0.207 C  
HETATM    8  C   UNL     1      -9.420   9.976  67.991  1.00  0.00    -0.150 C  
HETATM    9  O   UNL     1     -11.746  10.611  67.559  1.00  0.00    -0.445 OA 
HETATM   10  C   UNL     1      -8.753   8.743  67.381  1.00  0.00    -0.132 A  
HETATM   11  C   UNL     1      -8.995  11.320  67.324  1.00  0.00    -0.149 C  
HETATM   12  O   UNL     1      -9.443  11.387  65.966  1.00  0.00    -0.210 OA 
HETATM   13  C   UNL     1      -9.348   8.009  66.347  1.00  0.00    -0.259 A  
HETATM   14  C   UNL     1      -9.497  12.569  68.070  1.00  0.00    -0.209 C  
HETATM   15  C   UNL     1      -8.616  13.691  67.528  1.00  0.00    -0.197 C  
HETATM   16  H   UNL     1      -9.184  12.206  65.560  1.00  0.00     0.000 HD 
HETATM   17  C   UNL     1      -8.684   6.917  65.783  1.00  0.00    -0.120 A  
HETATM   18  C   UNL     1      -7.413   6.558  66.228  1.00  0.00    -0.081 A  
HETATM   19  C   UNL     1      -7.241  13.060  67.374  1.00  0.00    -0.123 C  
HETATM   20  C   UNL     1      -7.468  11.546  67.332  1.00  0.00    -0.127 C  
HETATM   21  C   UNL     1      -6.812   7.274  67.256  1.00  0.00    -0.077 A  
HETATM   22  C   UNL     1      -7.485   8.346  67.841  1.00  0.00    -0.098 A  
ENDBRANCH   6   7
ENDBRANCH   5   6
ENDBRANCH   4   5
ENDBRANCH   2   4
TORSDOF 4
ENDMDL
MODEL      158
REMARK 921   NORMALIZED FREE ENERGY PREDICTED BY IDOCK:   -3.42 KCAL/MOL
REMARK 922        TOTAL FREE ENERGY PREDICTED BY IDOCK:   -4.53 KCAL/MOL
REMARK 923 INTER-LIGAND FREE ENERGY PREDICTED BY IDOCK:   -4.23 KCAL/MOL
REMARK 924 INTRA-LIGAND FREE ENERGY PREDICTED BY IDOCK:   -0.29 KCAL/MOL
REMARK 927      BINDING AFFINITY PREDICTED BY RF-SCORE:    0.00 PKD
ROOT
HETATM    1  C   UNL     1      -6.745  11.357  66.733  1.00  0.00    -0.137 C  
HETATM    2  N   UNL     1      -6.649  11.505  68.185  1.00  0.00    -0.056 NA 
HETATM    3  C   UNL     1      -6.169  12.852  68.511  1.00  0.00    -0.077 C  
ENDROOT
BRANCH   2   4
HETATM    4  C   UNL     1      -7.948  11.194  68.830  1.00  0.00    -0.144 C  
BRANCH   4   5
HETATM    5  C   UNL     1      -8.840  10.296  67.962  1.00  0.00    -0.122 C  
BRANCH   5   6
HETATM    6  O   UNL     1      -8.885   8.941  68.420  1.00  0.00    -0.133 OA 
BRANCH   6   7
HETATM    7  C   UNL     1      -9.519   8.091  67.566  1.00  0.00    -0.146 C  
HETATM    8  C   UNL     1      -9.429   6.656  68.088  1.00  0.00    -0.115 C  
HETATM    9  O   UNL     1     -10.004   8.423  66.493  1.00  0.00    -0.258 OA 
HETATM   10  C   UNL     1     -10.151   6.450  69.419  1.00  0.00    -0.205 A  
HETATM   11  C   UNL     1      -9.821   5.622  66.990  1.00  0.00    -0.154 C  
HETATM   12  O   UNL     1     -11.191   5.774  66.603  1.00  0.00    -0.617 OA 
HETATM   13  C   UNL     1     -11.349   7.110  69.726  1.00  0.00    -0.158 A  
HETATM   14  C   UNL     1      -8.943   5.695  65.727  1.00  0.00    -0.153 C  
HETATM   15  C   UNL     1      -9.199   4.361  65.032  1.00  0.00    -0.157 C  
HETATM   16  H   UNL     1     -11.430   5.144  65.933  1.00  0.00     0.000 HD 
HETATM   17  C   UNL     1     -12.005   6.859  70.934  1.00  0.00    -0.430 A  
HETATM   18  C   UNL     1     -11.487   5.932  71.837  1.00  0.00    -0.287 A  
HETATM   19  C   UNL     1      -9.302   3.351  66.165  1.00  0.00    -0.151 C  
HETATM   20  C   UNL     1      -9.610   4.158  67.430  1.00  0.00    -0.222 C  
HETATM   21  C   UNL     1     -10.298   5.273  71.548  1.00  0.00    -0.287 A  
HETATM   22  C   UNL     1      -9.626   5.545  70.358  1.00  0.00    -0.224 A  
ENDBRANCH   6   7
ENDBRANCH   5   6
ENDBRANCH   4   5
ENDBRANCH   2   4
TORSDOF 4
ENDMDL
MODEL      159
REMARK 921   NORMALIZED FREE ENERGY PREDICTED BY IDOCK:   -3.42 KCAL/MOL
REMARK 922        TOTAL FREE ENERGY PREDICTED BY IDOCK:   -4.52 KCAL/MOL
REMARK 923 INTER-LIGAND FREE ENERGY PREDICTED BY IDOCK:   -4.19 KCAL/MOL
REMARK 924 INTRA-LIGAND FREE ENERGY PREDICTED BY IDOCK:   -0.33 KCAL/MOL
REMARK 927      BINDING AFFINITY PREDICTED BY RF-SCORE:    0.00 PKD
ROOT
HETATM    1  C   UNL     1     -10.442  14.417  64.538  1.00  0.00    -0.082 C  
HETATM    2  N   UNL     1     -11.665  15.211  64.413  1.00  0.00    -0.353 NA 
HETATM    3  C   UNL     1     -12.764  14.532  65.108  1.00  0.00    -0.170 C  
ENDROOT
BRANCH   2   4
HETATM    4  C   UNL     1     -11.445  16.591  64.910  1.00  0.00     0.108 C  
BRANCH   4   5
HETATM    5  C   UNL     1     -10.120  16.744  65.669  1.00  0.00    -0.189 C  
BRANCH   5   6
HETATM    6  O   UNL     1     -10.269  17.406  66.929  1.00  0.00    -0.304 OA 
BRANCH   6   7
HETATM    7  C   UNL     1     -10.605  16.574  67.953  1.00  0.00    -0.329 C  
HETATM    8  C   UNL     1      -9.765  15.297  67.892  1.00  0.00    -0.211 C  
HETATM    9  O   UNL     1     -11.515  16.783  68.744  1.00  0.00    -0.172 OA 
HETATM   10  C   UNL     1      -8.270  15.547  68.095  1.00  0.00    -0.144 A  
HETATM   11  C   UNL     1     -10.350  14.183  68.811  1.00  0.00    -0.229 C  
HETATM   12  O   UNL     1     -10.304  14.573  70.188  1.00  0.00    -0.405 OA 
HETATM   13  C   UNL     1      -7.791  16.521  68.981  1.00  0.00    -0.226 A  
HETATM   14  C   UNL     1     -11.795  13.785  68.461  1.00  0.00    -0.406 C  
HETATM   15  C   UNL     1     -11.974  12.436  69.152  1.00  0.00    -0.291 C  
HETATM   16  H   UNL     1     -10.661  13.894  70.748  1.00  0.00     0.000 HD 
HETATM   17  C   UNL     1      -6.418  16.687  69.175  1.00  0.00    -0.200 A  
HETATM   18  C   UNL     1      -5.508  15.869  68.506  1.00  0.00    -0.101 A  
HETATM   19  C   UNL     1     -10.636  11.734  68.979  1.00  0.00    -0.172 C  
HETATM   20  C   UNL     1      -9.613  12.834  68.675  1.00  0.00    -0.028 C  
HETATM   21  C   UNL     1      -5.968  14.902  67.620  1.00  0.00    -0.075 A  
HETATM   22  C   UNL     1      -7.337  14.756  67.401  1.00  0.00    -0.214 A  
ENDBRANCH   6   7
ENDBRANCH   5   6
ENDBRANCH   4   5
ENDBRANCH   2   4
TORSDOF 4
ENDMDL
MODEL      160
REMARK 921   NORMALIZED FREE ENERGY PREDICTED BY IDOCK:   -3.40 KCAL/MOL
REMARK 922        TOTAL FREE ENERGY PREDICTED BY IDOCK:   -4.50 KCAL/MOL
REMARK 923 INTER-LIGAND FREE ENERGY PREDICTED BY IDOCK:   -4.05 KCAL/MOL
REMARK 924 INTRA-LIGAND FREE ENERGY PREDICTED BY IDOCK:   -0.46 KCAL/MOL
REMARK 927      BINDING AFFINITY PREDICTED BY RF-SCORE:    0.00 PKD
ROOT
HETATM    1  C   UNL     1     -10.560   3.833  64.226  1.00  0.00    -0.228 C  
HETATM    2  N   UNL     1      -9.959   3.887  65.559  1.00  0.00    -0.157 NA 
HETATM    3  C   UNL     1      -8.741   3.070  65.582  1.00  0.00    -0.128 C  
ENDROOT
BRANCH   2   4
HETATM    4  C   UNL     1      -9.708   5.292  65.963  1.00  0.00    -0.139 C  
BRANCH   4   5
HETATM    5  C   UNL     1     -10.316   5.633  67.330  1.00  0.00    -0.241 C  
BRANCH   5   6
HETATM    6  O   UNL     1      -9.339   5.718  68.372  1.00  0.00    -0.119 OA 
BRANCH   6   7
HETATM    7  C   UNL     1      -9.490   4.780  69.347  1.00  0.00    -0.161 C  
HETATM    8  C   UNL     1      -9.272   5.412  70.723  1.00  0.00    -0.183 C  
HETATM    9  O   UNL     1      -9.678   3.589  69.139  1.00  0.00    -0.139 OA 
HETATM   10  C   UNL     1     -10.311   6.478  71.071  1.00  0.00    -0.240 A  
HETATM   11  C   UNL     1      -9.085   4.328  71.827  1.00  0.00    -0.123 C  
HETATM   12  O   UNL     1     -10.270   3.539  71.982  1.00  0.00    -0.152 OA 
HETATM   13  C   UNL     1     -11.654   6.362  70.687  1.00  0.00    -0.412 A  
HETATM   14  C   UNL     1      -7.896   3.383  71.574  1.00  0.00    -0.057 C  
HETATM   15  C   UNL     1      -7.645   2.746  72.939  1.00  0.00    -0.050 C  
HETATM   16  H   UNL     1     -10.156   2.878  72.655  1.00  0.00     0.000 HD 
HETATM   17  C   UNL     1     -12.584   7.334  71.065  1.00  0.00    -0.304 A  
HETATM   18  C   UNL     1     -12.191   8.418  71.848  1.00  0.00    -0.395 A  
HETATM   19  C   UNL     1      -7.882   3.869  73.936  1.00  0.00    -0.080 C  
HETATM   20  C   UNL     1      -8.724   4.919  73.206  1.00  0.00    -0.104 C  
HETATM   21  C   UNL     1     -10.862   8.548  72.233  1.00  0.00    -0.418 A  
HETATM   22  C   UNL     1      -9.927   7.596  71.831  1.00  0.00    -0.217 A  
ENDBRANCH   6   7
ENDBRANCH   5   6
ENDBRANCH   4   5
ENDBRANCH   2   4
TORSDOF 4
ENDMDL
MODEL      161
REMARK 921   NORMALIZED FREE ENERGY PREDICTED BY IDOCK:   -3.40 KCAL/MOL
REMARK 922        TOTAL FREE ENERGY PREDICTED BY IDOCK:   -4.50 KCAL/MOL
REMARK 923 INTER-LIGAND FREE ENERGY PREDICTED BY IDOCK:   -4.22 KCAL/MOL
REMARK 924 INTRA-LIGAND FREE ENERGY PREDICTED BY IDOCK:   -0.28 KCAL/MOL
REMARK 927      BINDING AFFINITY PREDICTED BY RF-SCORE:    0.00 PKD
ROOT
HETATM    1  C   UNL     1     -10.777  16.711  66.837  1.00  0.00    -0.153 C  
HETATM    2  N   UNL     1      -9.388  16.884  66.411  1.00  0.00    -0.266 NA 
HETATM    3  C   UNL     1      -8.760  17.948  67.201  1.00  0.00    -0.243 C  
ENDROOT
BRANCH   2   4
HETATM    4  C   UNL     1      -8.650  15.600  66.499  1.00  0.00    -0.300 C  
BRANCH   4   5
HETATM    5  C   UNL     1      -9.568  14.409  66.809  1.00  0.00    -0.268 C  
BRANCH   5   6
HETATM    6  O   UNL     1      -8.861  13.169  66.911  1.00  0.00    -0.217 OA 
BRANCH   6   7
HETATM    7  C   UNL     1      -9.355  12.185  66.112  1.00  0.00    -0.195 C  
HETATM    8  C   UNL     1      -8.679  10.852  66.439  1.00  0.00    -0.174 C  
HETATM    9  O   UNL     1     -10.153  12.368  65.202  1.00  0.00    -0.277 OA 
HETATM   10  C   UNL     1      -8.970  10.358  67.856  1.00  0.00    -0.128 A  
HETATM   11  C   UNL     1      -8.946   9.789  65.331  1.00  0.00    -0.190 C  
HETATM   12  O   UNL     1     -10.339   9.469  65.248  1.00  0.00    -0.175 OA 
HETATM   13  C   UNL     1     -10.215  10.548  68.470  1.00  0.00    -0.190 A  
HETATM   14  C   UNL     1      -8.454  10.210  63.934  1.00  0.00    -0.181 C  
HETATM   15  C   UNL     1      -8.406   8.897  63.158  1.00  0.00    -0.185 C  
HETATM   16  H   UNL     1     -10.503   8.821  64.572  1.00  0.00     0.000 HD 
HETATM   17  C   UNL     1     -10.458  10.040  69.748  1.00  0.00    -0.291 A  
HETATM   18  C   UNL     1      -9.472   9.317  70.418  1.00  0.00    -0.292 A  
HETATM   19  C   UNL     1      -7.908   7.873  64.166  1.00  0.00    -0.136 C  
HETATM   20  C   UNL     1      -8.170   8.473  65.551  1.00  0.00    -0.138 C  
HETATM   21  C   UNL     1      -8.231   9.124  69.823  1.00  0.00    -0.128 A  
HETATM   22  C   UNL     1      -7.976   9.657  68.561  1.00  0.00    -0.089 A  
ENDBRANCH   6   7
ENDBRANCH   5   6
ENDBRANCH   4   5
ENDBRANCH   2   4
TORSDOF 4
ENDMDL
MODEL      162
REMARK 921   NORMALIZED FREE ENERGY PREDICTED BY IDOCK:   -3.38 KCAL/MOL
REMARK 922        TOTAL FREE ENERGY PREDICTED BY IDOCK:   -4.48 KCAL/MOL
REMARK 923 INTER-LIGAND FREE ENERGY PREDICTED BY IDOCK:   -4.10 KCAL/MOL
REMARK 924 INTRA-LIGAND FREE ENERGY PREDICTED BY IDOCK:   -0.38 KCAL/MOL
REMARK 927      BINDING AFFINITY PREDICTED BY RF-SCORE:    0.00 PKD
ROOT
HETATM    1  C   UNL     1     -11.221   7.155  72.062  1.00  0.00    -0.251 C  
HETATM    2  N   UNL     1     -10.111   7.159  73.016  1.00  0.00    -0.205 NA 
HETATM    3  C   UNL     1      -9.886   5.798  73.515  1.00  0.00    -0.166 C  
ENDROOT
BRANCH   2   4
HETATM    4  C   UNL     1      -8.896   7.747  72.402  1.00  0.00    -0.142 C  
BRANCH   4   5
HETATM    5  C   UNL     1      -9.177   9.075  71.685  1.00  0.00    -0.153 C  
BRANCH   5   6
HETATM    6  O   UNL     1      -8.099   9.496  70.843  1.00  0.00    -0.297 OA 
BRANCH   6   7
HETATM    7  C   UNL     1      -7.990   8.783  69.688  1.00  0.00    -0.096 C  
HETATM    8  C   UNL     1      -9.315   8.809  68.926  1.00  0.00    -0.145 C  
HETATM    9  O   UNL     1      -7.001   8.139  69.364  1.00  0.00    -0.049 OA 
HETATM   10  C   UNL     1      -9.717  10.209  68.459  1.00  0.00    -0.161 A  
HETATM   11  C   UNL     1      -9.348   7.734  67.798  1.00  0.00    -0.143 C  
HETATM   12  O   UNL     1      -8.358   8.003  66.799  1.00  0.00    -0.112 OA 
HETATM   13  C   UNL     1      -8.773  11.148  68.024  1.00  0.00    -0.141 A  
HETATM   14  C   UNL     1      -9.153   6.294  68.308  1.00  0.00    -0.113 C  
HETATM   15  C   UNL     1      -9.660   5.432  67.155  1.00  0.00    -0.144 C  
HETATM   16  H   UNL     1      -8.377   7.347  66.112  1.00  0.00     0.000 HD 
HETATM   17  C   UNL     1      -9.183  12.400  67.559  1.00  0.00    -0.183 A  
HETATM   18  C   UNL     1     -10.539  12.721  67.502  1.00  0.00    -0.240 A  
HETATM   19  C   UNL     1     -10.866   6.185  66.615  1.00  0.00    -0.279 C  
HETATM   20  C   UNL     1     -10.717   7.631  67.095  1.00  0.00    -0.361 C  
HETATM   21  C   UNL     1     -11.486  11.801  67.935  1.00  0.00    -0.387 A  
HETATM   22  C   UNL     1     -11.077  10.563  68.428  1.00  0.00    -0.335 A  
ENDBRANCH   6   7
ENDBRANCH   5   6
ENDBRANCH   4   5
ENDBRANCH   2   4
TORSDOF 4
ENDMDL
MODEL      163
REMARK 921   NORMALIZED FREE ENERGY PREDICTED BY IDOCK:   -3.38 KCAL/MOL
REMARK 922        TOTAL FREE ENERGY PREDICTED BY IDOCK:   -4.48 KCAL/MOL
REMARK 923 INTER-LIGAND FREE ENERGY PREDICTED BY IDOCK:   -4.06 KCAL/MOL
REMARK 924 INTRA-LIGAND FREE ENERGY PREDICTED BY IDOCK:   -0.42 KCAL/MOL
REMARK 927      BINDING AFFINITY PREDICTED BY RF-SCORE:    0.00 PKD
ROOT
HETATM    1  C   UNL     1     -10.313   5.827  69.476  1.00  0.00    -0.263 C  
HETATM    2  N   UNL     1      -9.639   6.816  68.635  1.00  0.00    -0.132 NA 
HETATM    3  C   UNL     1     -10.471   7.116  67.465  1.00  0.00    -0.260 C  
ENDROOT
BRANCH   2   4
HETATM    4  C   UNL     1      -9.304   8.030  69.420  1.00  0.00    -0.155 C  
BRANCH   4   5
HETATM    5  C   UNL     1     -10.548   8.737  69.976  1.00  0.00    -0.223 C  
BRANCH   5   6
HETATM    6  O   UNL     1     -10.305  10.102  70.329  1.00  0.00    -0.267 OA 
BRANCH   6   7
HETATM    7  C   UNL     1     -11.107  10.991  69.680  1.00  0.00    -0.256 C  
HETATM    8  C   UNL     1     -10.295  12.210  69.241  1.00  0.00     0.204 C  
HETATM    9  O   UNL     1     -12.318  10.867  69.557  1.00  0.00    -0.321 OA 
HETATM   10  C   UNL     1      -9.209  11.877  68.218  1.00  0.00    -0.187 A  
HETATM   11  C   UNL     1     -11.220  13.391  68.820  1.00  0.00    -0.275 C  
HETATM   12  O   UNL     1     -11.999  13.051  67.668  1.00  0.00    -0.353 OA 
HETATM   13  C   UNL     1      -9.396  10.909  67.222  1.00  0.00    -0.168 A  
HETATM   14  C   UNL     1     -12.170  13.864  69.935  1.00  0.00    -0.393 C  
HETATM   15  C   UNL     1     -12.616  15.246  69.466  1.00  0.00    -0.021 C  
HETATM   16  H   UNL     1     -12.564  13.771  67.411  1.00  0.00     0.000 HD 
HETATM   17  C   UNL     1      -8.398  10.667  66.275  1.00  0.00    -0.155 A  
HETATM   18  C   UNL     1      -7.213  11.402  66.297  1.00  0.00     0.075 A  
HETATM   19  C   UNL     1     -11.375  15.857  68.835  1.00  0.00    -0.377 C  
HETATM   20  C   UNL     1     -10.444  14.687  68.502  1.00  0.00    -0.247 C  
HETATM   21  C   UNL     1      -7.012  12.362  67.281  1.00  0.00    -0.129 A  
HETATM   22  C   UNL     1      -7.993  12.583  68.246  1.00  0.00    -0.153 A  
ENDBRANCH   6   7
ENDBRANCH   5   6
ENDBRANCH   4   5
ENDBRANCH   2   4
TORSDOF 4
ENDMDL
MODEL      164
REMARK 921   NORMALIZED FREE ENERGY PREDICTED BY IDOCK:   -3.38 KCAL/MOL
REMARK 922        TOTAL FREE ENERGY PREDICTED BY IDOCK:   -4.47 KCAL/MOL
REMARK 923 INTER-LIGAND FREE ENERGY PREDICTED BY IDOCK:   -4.08 KCAL/MOL
REMARK 924 INTRA-LIGAND FREE ENERGY PREDICTED BY IDOCK:   -0.39 KCAL/MOL
REMARK 927      BINDING AFFINITY PREDICTED BY RF-SCORE:    0.00 PKD
ROOT
HETATM    1  C   UNL     1      -9.505   3.384  69.417  1.00  0.00    -0.151 C  
HETATM    2  N   UNL     1      -8.430   4.343  69.160  1.00  0.00    -0.078 NA 
HETATM    3  C   UNL     1      -7.138   3.732  69.488  1.00  0.00    -0.045 C  
ENDROOT
BRANCH   2   4
HETATM    4  C   UNL     1      -8.488   4.831  67.760  1.00  0.00    -0.103 C  
BRANCH   4   5
HETATM    5  C   UNL     1      -7.794   6.188  67.577  1.00  0.00    -0.102 C  
BRANCH   5   6
HETATM    6  O   UNL     1      -8.619   7.155  66.919  1.00  0.00    -0.119 OA 
BRANCH   6   7
HETATM    7  C   UNL     1      -9.739   7.491  67.616  1.00  0.00    -0.147 C  
HETATM    8  C   UNL     1      -9.361   7.981  69.015  1.00  0.00    -0.147 C  
HETATM    9  O   UNL     1     -10.881   7.329  67.209  1.00  0.00    -0.306 OA 
HETATM   10  C   UNL     1      -8.535   9.267  69.002  1.00  0.00    -0.132 A  
HETATM   11  C   UNL     1     -10.602   8.037  69.956  1.00  0.00    -0.242 C  
HETATM   12  O   UNL     1     -11.560   8.994  69.490  1.00  0.00    -0.395 OA 
HETATM   13  C   UNL     1      -8.756  10.285  68.065  1.00  0.00    -0.122 A  
HETATM   14  C   UNL     1     -11.308   6.681  70.133  1.00  0.00    -0.440 C  
HETATM   15  C   UNL     1     -12.157   6.877  71.386  1.00  0.00    -0.408 C  
HETATM   16  H   UNL     1     -12.318   9.028  70.064  1.00  0.00     0.000 HD 
HETATM   17  C   UNL     1      -8.013  11.467  68.115  1.00  0.00    -0.133 A  
HETATM   18  C   UNL     1      -7.057  11.656  69.113  1.00  0.00    -0.090 A  
HETATM   19  C   UNL     1     -11.291   7.721  72.308  1.00  0.00    -0.374 C  
HETATM   20  C   UNL     1     -10.245   8.394  71.414  1.00  0.00    -0.284 C  
HETATM   21  C   UNL     1      -6.824  10.653  70.046  1.00  0.00    -0.150 A  
HETATM   22  C   UNL     1      -7.543   9.461  69.979  1.00  0.00    -0.113 A  
ENDBRANCH   6   7
ENDBRANCH   5   6
ENDBRANCH   4   5
ENDBRANCH   2   4
TORSDOF 4
ENDMDL
MODEL      165
REMARK 921   NORMALIZED FREE ENERGY PREDICTED BY IDOCK:   -3.38 KCAL/MOL
REMARK 922        TOTAL FREE ENERGY PREDICTED BY IDOCK:   -4.47 KCAL/MOL
REMARK 923 INTER-LIGAND FREE ENERGY PREDICTED BY IDOCK:   -4.46 KCAL/MOL
REMARK 924 INTRA-LIGAND FREE ENERGY PREDICTED BY IDOCK:   -0.01 KCAL/MOL
REMARK 927      BINDING AFFINITY PREDICTED BY RF-SCORE:    0.00 PKD
ROOT
HETATM    1  C   UNL     1     -10.634   9.908  67.814  1.00  0.00    -0.261 C  
HETATM    2  N   UNL     1      -9.203  10.053  68.077  1.00  0.00    -0.134 NA 
HETATM    3  C   UNL     1      -8.654   8.771  68.532  1.00  0.00    -0.134 C  
ENDROOT
BRANCH   2   4
HETATM    4  C   UNL     1      -8.501  10.578  66.880  1.00  0.00    -0.125 C  
BRANCH   4   5
HETATM    5  C   UNL     1      -7.739  11.879  67.163  1.00  0.00    -0.163 C  
BRANCH   5   6
HETATM    6  O   UNL     1      -7.822  12.291  68.531  1.00  0.00    -0.131 OA 
BRANCH   6   7
HETATM    7  C   UNL     1      -7.598  13.620  68.722  1.00  0.00    -0.079 C  
HETATM    8  C   UNL     1      -8.060  14.412  67.497  1.00  0.00    -0.204 C  
HETATM    9  O   UNL     1      -7.024  14.092  69.693  1.00  0.00    -0.102 OA 
HETATM   10  C   UNL     1      -9.566  14.322  67.252  1.00  0.00    -0.232 A  
HETATM   11  C   UNL     1      -7.509  15.870  67.519  1.00  0.00    -0.168 C  
HETATM   12  O   UNL     1      -8.030  16.603  68.633  1.00  0.00    -0.212 OA 
HETATM   13  C   UNL     1     -10.491  14.279  68.303  1.00  0.00    -0.247 A  
HETATM   14  C   UNL     1      -5.972  15.952  67.552  1.00  0.00    -0.162 C  
HETATM   15  C   UNL     1      -5.679  17.387  67.121  1.00  0.00    -0.169 C  
HETATM   16  H   UNL     1      -7.694  17.491  68.647  1.00  0.00     0.000 HD 
HETATM   17  C   UNL     1     -11.862  14.245  68.038  1.00  0.00    -0.379 A  
HETATM   18  C   UNL     1     -12.326  14.278  66.724  1.00  0.00    -0.280 A  
HETATM   19  C   UNL     1      -6.708  17.682  66.042  1.00  0.00    -0.296 C  
HETATM   20  C   UNL     1      -7.835  16.662  66.236  1.00  0.00    -0.309 C  
HETATM   21  C   UNL     1     -11.421  14.316  65.671  1.00  0.00    -0.329 A  
HETATM   22  C   UNL     1     -10.052  14.319  65.932  1.00  0.00    -0.344 A  
ENDBRANCH   6   7
ENDBRANCH   5   6
ENDBRANCH   4   5
ENDBRANCH   2   4
TORSDOF 4
ENDMDL
MODEL      166
REMARK 921   NORMALIZED FREE ENERGY PREDICTED BY IDOCK:   -3.34 KCAL/MOL
REMARK 922        TOTAL FREE ENERGY PREDICTED BY IDOCK:   -4.42 KCAL/MOL
REMARK 923 INTER-LIGAND FREE ENERGY PREDICTED BY IDOCK:   -4.55 KCAL/MOL
REMARK 924 INTRA-LIGAND FREE ENERGY PREDICTED BY IDOCK:    0.12 KCAL/MOL
REMARK 927      BINDING AFFINITY PREDICTED BY RF-SCORE:    0.00 PKD
ROOT
HETATM    1  C   UNL     1      -9.441   2.168  70.562  1.00  0.00    -0.102 C  
HETATM    2  N   UNL     1      -8.240   2.878  71.002  1.00  0.00    -0.056 NA 
HETATM    3  C   UNL     1      -7.509   3.380  69.834  1.00  0.00    -0.044 C  
ENDROOT
BRANCH   2   4
HETATM    4  C   UNL     1      -8.590   3.956  71.959  1.00  0.00    -0.099 C  
BRANCH   4   5
HETATM    5  C   UNL     1      -7.970   5.308  71.581  1.00  0.00    -0.115 C  
BRANCH   5   6
HETATM    6  O   UNL     1      -8.595   6.415  72.238  1.00  0.00    -0.118 OA 
BRANCH   6   7
HETATM    7  C   UNL     1      -9.844   6.697  71.777  1.00  0.00    -0.161 C  
HETATM    8  C   UNL     1      -9.917   8.155  71.317  1.00  0.00    -0.225 C  
HETATM    9  O   UNL     1     -10.788   5.921  71.817  1.00  0.00    -0.243 OA 
HETATM   10  C   UNL     1      -9.006   8.461  70.129  1.00  0.00    -0.142 A  
HETATM   11  C   UNL     1     -11.392   8.617  71.118  1.00  0.00    -0.275 C  
HETATM   12  O   UNL     1     -12.027   7.881  70.067  1.00  0.00    -0.350 OA 
HETATM   13  C   UNL     1      -8.785   7.534  69.101  1.00  0.00    -0.136 A  
HETATM   14  C   UNL     1     -12.255   8.504  72.388  1.00  0.00    -0.432 C  
HETATM   15  C   UNL     1     -13.455   9.399  72.090  1.00  0.00    -0.543 C  
HETATM   16  H   UNL     1     -12.927   8.163  69.946  1.00  0.00     0.000 HD 
HETATM   17  C   UNL     1      -7.984   7.869  68.008  1.00  0.00    -0.128 A  
HETATM   18  C   UNL     1      -7.413   9.137  67.914  1.00  0.00    -0.084 A  
HETATM   19  C   UNL     1     -12.873  10.584  71.336  1.00  0.00    -0.551 C  
HETATM   20  C   UNL     1     -11.519  10.120  70.790  1.00  0.00    -0.442 C  
HETATM   21  C   UNL     1      -7.619  10.065  68.928  1.00  0.00    -0.086 A  
HETATM   22  C   UNL     1      -8.393   9.723  70.035  1.00  0.00    -0.211 A  
ENDBRANCH   6   7
ENDBRANCH   5   6
ENDBRANCH   4   5
ENDBRANCH   2   4
TORSDOF 4
ENDMDL
MODEL      167
REMARK 921   NORMALIZED FREE ENERGY PREDICTED BY IDOCK:   -3.33 KCAL/MOL
REMARK 922        TOTAL FREE ENERGY PREDICTED BY IDOCK:   -4.42 KCAL/MOL
REMARK 923 INTER-LIGAND FREE ENERGY PREDICTED BY IDOCK:   -4.03 KCAL/MOL
REMARK 924 INTRA-LIGAND FREE ENERGY PREDICTED BY IDOCK:   -0.38 KCAL/MOL
REMARK 927      BINDING AFFINITY PREDICTED BY RF-SCORE:    0.00 PKD
ROOT
HETATM    1  C   UNL     1      -5.426  17.730  67.037  1.00  0.00    -0.142 C  
HETATM    2  N   UNL     1      -6.038  16.401  67.011  1.00  0.00    -0.291 NA 
HETATM    3  C   UNL     1      -5.520  15.600  68.125  1.00  0.00    -0.117 C  
ENDROOT
BRANCH   2   4
HETATM    4  C   UNL     1      -7.517  16.505  67.027  1.00  0.00    -0.204 C  
BRANCH   4   5
HETATM    5  C   UNL     1      -8.199  15.382  66.233  1.00  0.00     0.252 C  
BRANCH   5   6
HETATM    6  O   UNL     1      -9.616  15.548  66.132  1.00  0.00    -0.278 OA 
BRANCH   6   7
HETATM    7  C   UNL     1     -10.308  14.376  66.089  1.00  0.00    -0.298 C  
HETATM    8  C   UNL     1     -10.211  13.659  67.437  1.00  0.00    -0.241 C  
HETATM    9  O   UNL     1     -10.844  13.925  65.086  1.00  0.00    -0.320 OA 
HETATM   10  C   UNL     1     -10.865  14.433  68.582  1.00  0.00    -0.260 A  
HETATM   11  C   UNL     1     -10.676  12.176  67.330  1.00  0.00    -0.234 C  
HETATM   12  O   UNL     1     -12.063  12.093  66.982  1.00  0.00    -0.591 OA 
HETATM   13  C   UNL     1     -12.035  15.183  68.401  1.00  0.00    -0.216 A  
HETATM   14  C   UNL     1      -9.866  11.343  66.321  1.00  0.00    -0.250 C  
HETATM   15  C   UNL     1     -10.179   9.901  66.710  1.00  0.00    -0.301 C  
HETATM   16  H   UNL     1     -12.346  11.189  66.917  1.00  0.00     0.000 HD 
HETATM   17  C   UNL     1     -12.629  15.838  69.483  1.00  0.00     0.195 A  
HETATM   18  C   UNL     1     -12.078  15.732  70.759  1.00  0.00    -0.448 A  
HETATM   19  C   UNL     1     -10.236   9.917  68.230  1.00  0.00    -0.204 C  
HETATM   20  C   UNL     1     -10.465  11.377  68.633  1.00  0.00    -0.224 C  
HETATM   21  C   UNL     1     -10.916  14.995  70.953  1.00  0.00    -0.165 A  
HETATM   22  C   UNL     1     -10.304  14.367  69.870  1.00  0.00     0.300 A  
ENDBRANCH   6   7
ENDBRANCH   5   6
ENDBRANCH   4   5
ENDBRANCH   2   4
TORSDOF 4
ENDMDL
MODEL      168
REMARK 921   NORMALIZED FREE ENERGY PREDICTED BY IDOCK:   -3.32 KCAL/MOL
REMARK 922        TOTAL FREE ENERGY PREDICTED BY IDOCK:   -4.41 KCAL/MOL
REMARK 923 INTER-LIGAND FREE ENERGY PREDICTED BY IDOCK:   -4.16 KCAL/MOL
REMARK 924 INTRA-LIGAND FREE ENERGY PREDICTED BY IDOCK:   -0.24 KCAL/MOL
REMARK 927      BINDING AFFINITY PREDICTED BY RF-SCORE:    0.00 PKD
ROOT
HETATM    1  C   UNL     1      -9.110  12.715  67.006  1.00  0.00    -0.215 C  
HETATM    2  N   UNL     1     -10.350  13.163  67.639  1.00  0.00    -0.220 NA 
HETATM    3  C   UNL     1     -10.651  14.534  67.214  1.00  0.00    -0.280 C  
ENDROOT
BRANCH   2   4
HETATM    4  C   UNL     1     -11.458  12.221  67.344  1.00  0.00    -0.352 C  
BRANCH   4   5
HETATM    5  C   UNL     1     -10.967  10.788  67.097  1.00  0.00    -0.260 C  
BRANCH   5   6
HETATM    6  O   UNL     1     -10.606  10.103  68.300  1.00  0.00    -0.198 OA 
BRANCH   6   7
HETATM    7  C   UNL     1      -9.953   8.928  68.091  1.00  0.00    -0.176 C  
HETATM    8  C   UNL     1      -9.262   8.474  69.379  1.00  0.00    -0.153 C  
HETATM    9  O   UNL     1      -9.858   8.373  67.005  1.00  0.00    -0.186 OA 
HETATM   10  C   UNL     1     -10.240   8.157  70.510  1.00  0.00    -0.207 A  
HETATM   11  C   UNL     1      -8.226   7.342  69.103  1.00  0.00    -0.121 C  
HETATM   12  O   UNL     1      -8.870   6.162  68.610  1.00  0.00    -0.115 OA 
HETATM   13  C   UNL     1     -11.485   7.561  70.274  1.00  0.00    -0.173 A  
HETATM   14  C   UNL     1      -7.115   7.744  68.116  1.00  0.00    -0.085 C  
HETATM   15  C   UNL     1      -6.028   6.699  68.352  1.00  0.00    -0.021 C  
HETATM   16  H   UNL     1      -8.239   5.472  68.442  1.00  0.00     0.000 HD 
HETATM   17  C   UNL     1     -12.331   7.243  71.339  1.00  0.00    -0.403 A  
HETATM   18  C   UNL     1     -11.935   7.495  72.652  1.00  0.00    -0.155 A  
HETATM   19  C   UNL     1      -6.043   6.462  69.854  1.00  0.00    -0.030 C  
HETATM   20  C   UNL     1      -7.407   6.951  70.351  1.00  0.00    -0.081 C  
HETATM   21  C   UNL     1     -10.705   8.090  72.902  1.00  0.00    -0.403 A  
HETATM   22  C   UNL     1      -9.873   8.436  71.839  1.00  0.00    -0.328 A  
ENDBRANCH   6   7
ENDBRANCH   5   6
ENDBRANCH   4   5
ENDBRANCH   2   4
TORSDOF 4
ENDMDL
MODEL      169
REMARK 921   NORMALIZED FREE ENERGY PREDICTED BY IDOCK:   -3.32 KCAL/MOL
REMARK 922        TOTAL FREE ENERGY PREDICTED BY IDOCK:   -4.41 KCAL/MOL
REMARK 923 INTER-LIGAND FREE ENERGY PREDICTED BY IDOCK:   -4.08 KCAL/MOL
REMARK 924 INTRA-LIGAND FREE ENERGY PREDICTED BY IDOCK:   -0.33 KCAL/MOL
REMARK 927      BINDING AFFINITY PREDICTED BY RF-SCORE:    0.00 PKD
ROOT
HETATM    1  C   UNL     1     -12.521  14.153  65.195  1.00  0.00    -0.439 C  
HETATM    2  N   UNL     1     -12.034  12.785  65.369  1.00  0.00    -0.411 NA 
HETATM    3  C   UNL     1     -11.926  12.132  64.060  1.00  0.00    -0.440 C  
ENDROOT
BRANCH   2   4
HETATM    4  C   UNL     1     -10.752  12.776  66.115  1.00  0.00    -0.275 C  
BRANCH   4   5
HETATM    5  C   UNL     1     -10.439  11.410  66.740  1.00  0.00    -0.244 C  
BRANCH   5   6
HETATM    6  O   UNL     1      -9.067  11.268  67.121  1.00  0.00    -0.154 OA 
BRANCH   6   7
HETATM    7  C   UNL     1      -8.854  10.321  68.076  1.00  0.00    -0.122 C  
HETATM    8  C   UNL     1      -9.125   8.928  67.505  1.00  0.00    -0.146 C  
HETATM    9  O   UNL     1      -8.580  10.566  69.243  1.00  0.00    -0.161 OA 
HETATM   10  C   UNL     1      -8.168   8.540  66.378  1.00  0.00    -0.108 A  
HETATM   11  C   UNL     1      -9.240   7.860  68.634  1.00  0.00    -0.142 C  
HETATM   12  O   UNL     1      -8.002   7.720  69.340  1.00  0.00    -0.119 OA 
HETATM   13  C   UNL     1      -6.818   8.917  66.385  1.00  0.00    -0.075 A  
HETATM   14  C   UNL     1     -10.356   8.152  69.653  1.00  0.00    -0.221 C  
HETATM   15  C   UNL     1     -10.568   6.810  70.349  1.00  0.00    -0.262 C  
HETATM   16  H   UNL     1      -8.072   7.069  70.028  1.00  0.00     0.000 HD 
HETATM   17  C   UNL     1      -5.963   8.501  65.361  1.00  0.00    -0.048 A  
HETATM   18  C   UNL     1      -6.438   7.687  64.334  1.00  0.00    -0.048 A  
HETATM   19  C   UNL     1     -10.419   5.776  69.244  1.00  0.00    -0.358 C  
HETATM   20  C   UNL     1      -9.650   6.467  68.113  1.00  0.00    -0.115 C  
HETATM   21  C   UNL     1      -7.775   7.309  64.312  1.00  0.00    -0.124 A  
HETATM   22  C   UNL     1      -8.637   7.748  65.315  1.00  0.00    -0.065 A  
ENDBRANCH   6   7
ENDBRANCH   5   6
ENDBRANCH   4   5
ENDBRANCH   2   4
TORSDOF 4
ENDMDL
MODEL      170
REMARK 921   NORMALIZED FREE ENERGY PREDICTED BY IDOCK:   -3.30 KCAL/MOL
REMARK 922        TOTAL FREE ENERGY PREDICTED BY IDOCK:   -4.37 KCAL/MOL
REMARK 923 INTER-LIGAND FREE ENERGY PREDICTED BY IDOCK:   -4.08 KCAL/MOL
REMARK 924 INTRA-LIGAND FREE ENERGY PREDICTED BY IDOCK:   -0.29 KCAL/MOL
REMARK 927      BINDING AFFINITY PREDICTED BY RF-SCORE:    0.00 PKD
ROOT
HETATM    1  C   UNL     1     -10.713   7.208  70.367  1.00  0.00    -0.235 C  
HETATM    2  N   UNL     1     -10.923   8.616  70.704  1.00  0.00    -0.235 NA 
HETATM    3  C   UNL     1      -9.769   9.118  71.457  1.00  0.00    -0.243 C  
ENDROOT
BRANCH   2   4
HETATM    4  C   UNL     1     -11.195   9.412  69.483  1.00  0.00    -0.033 C  
BRANCH   4   5
HETATM    5  C   UNL     1     -10.290  10.647  69.367  1.00  0.00    -0.208 C  
BRANCH   5   6
HETATM    6  O   UNL     1     -11.006  11.836  69.020  1.00  0.00    -0.221 OA 
BRANCH   6   7
HETATM    7  C   UNL     1     -10.207  12.913  68.788  1.00  0.00    -0.091 C  
HETATM    8  C   UNL     1     -11.057  14.178  68.649  1.00  0.00    -0.283 C  
HETATM    9  O   UNL     1      -8.997  12.854  68.620  1.00  0.00    -0.093 OA 
HETATM   10  C   UNL     1     -11.809  14.545  69.929  1.00  0.00    -0.373 A  
HETATM   11  C   UNL     1     -10.235  15.354  68.040  1.00  0.00    -0.235 C  
HETATM   12  O   UNL     1      -9.164  15.739  68.907  1.00  0.00    -0.197 OA 
HETATM   13  C   UNL     1     -11.254  14.349  71.201  1.00  0.00     0.362 A  
HETATM   14  C   UNL     1      -9.655  15.050  66.647  1.00  0.00    -0.281 C  
HETATM   15  C   UNL     1      -9.311  16.429  66.091  1.00  0.00    -0.360 C  
HETATM   16  H   UNL     1      -8.662  16.456  68.536  1.00  0.00     0.000 HD 
HETATM   17  C   UNL     1     -11.953  14.741  72.345  1.00  0.00    -0.306 A  
HETATM   18  C   UNL     1     -13.201  15.353  72.233  1.00  0.00    -0.515 A  
HETATM   19  C   UNL     1     -10.441  17.328  66.568  1.00  0.00    -0.260 C  
HETATM   20  C   UNL     1     -11.089  16.608  67.754  1.00  0.00    -0.157 C  
HETATM   21  C   UNL     1     -13.765  15.550  70.978  1.00  0.00    -0.312 A  
HETATM   22  C   UNL     1     -13.084  15.131  69.837  1.00  0.00     0.198 A  
ENDBRANCH   6   7
ENDBRANCH   5   6
ENDBRANCH   4   5
ENDBRANCH   2   4
TORSDOF 4
ENDMDL
MODEL      171
REMARK 921   NORMALIZED FREE ENERGY PREDICTED BY IDOCK:   -3.29 KCAL/MOL
REMARK 922        TOTAL FREE ENERGY PREDICTED BY IDOCK:   -4.36 KCAL/MOL
REMARK 923 INTER-LIGAND FREE ENERGY PREDICTED BY IDOCK:   -4.18 KCAL/MOL
REMARK 924 INTRA-LIGAND FREE ENERGY PREDICTED BY IDOCK:   -0.18 KCAL/MOL
REMARK 927      BINDING AFFINITY PREDICTED BY RF-SCORE:    0.00 PKD
ROOT
HETATM    1  C   UNL     1      -6.252  10.345  66.218  1.00  0.00    -0.092 C  
HETATM    2  N   UNL     1      -7.615  10.214  65.705  1.00  0.00    -0.137 NA 
HETATM    3  C   UNL     1      -7.575   9.979  64.258  1.00  0.00    -0.141 C  
ENDROOT
BRANCH   2   4
HETATM    4  C   UNL     1      -8.348   9.150  66.433  1.00  0.00    -0.122 C  
BRANCH   4   5
HETATM    5  C   UNL     1      -8.382   9.384  67.949  1.00  0.00    -0.115 C  
BRANCH   5   6
HETATM    6  O   UNL     1      -7.558   8.468  68.677  1.00  0.00    -0.094 OA 
BRANCH   6   7
HETATM    7  C   UNL     1      -8.163   7.934  69.774  1.00  0.00    -0.121 C  
HETATM    8  C   UNL     1      -9.578   7.472  69.422  1.00  0.00    -0.155 C  
HETATM    9  O   UNL     1      -7.672   7.918  70.894  1.00  0.00    -0.079 OA 
HETATM   10  C   UNL     1      -9.607   6.340  68.395  1.00  0.00    -0.121 A  
HETATM   11  C   UNL     1     -10.420   7.187  70.702  1.00  0.00    -0.210 C  
HETATM   12  O   UNL     1      -9.868   6.099  71.452  1.00  0.00    -0.173 OA 
HETATM   13  C   UNL     1      -8.640   5.326  68.377  1.00  0.00    -0.095 A  
HETATM   14  C   UNL     1     -10.565   8.404  71.634  1.00  0.00    -0.327 C  
HETATM   15  C   UNL     1     -11.747   8.035  72.526  1.00  0.00    -0.446 C  
HETATM   16  H   UNL     1     -10.381   5.926  72.232  1.00  0.00     0.000 HD 
HETATM   17  C   UNL     1      -8.728   4.282  67.453  1.00  0.00    -0.113 A  
HETATM   18  C   UNL     1      -9.792   4.224  66.555  1.00  0.00    -0.238 A  
HETATM   19  C   UNL     1     -12.718   7.318  71.602  1.00  0.00    -0.410 C  
HETATM   20  C   UNL     1     -11.896   6.852  70.397  1.00  0.00    -0.351 C  
HETATM   21  C   UNL     1     -10.756   5.224  66.558  1.00  0.00    -0.290 A  
HETATM   22  C   UNL     1     -10.654   6.283  67.458  1.00  0.00    -0.348 A  
ENDBRANCH   6   7
ENDBRANCH   5   6
ENDBRANCH   4   5
ENDBRANCH   2   4
TORSDOF 4
ENDMDL
MODEL      172
REMARK 921   NORMALIZED FREE ENERGY PREDICTED BY IDOCK:   -3.28 KCAL/MOL
REMARK 922        TOTAL FREE ENERGY PREDICTED BY IDOCK:   -4.35 KCAL/MOL
REMARK 923 INTER-LIGAND FREE ENERGY PREDICTED BY IDOCK:   -3.98 KCAL/MOL
REMARK 924 INTRA-LIGAND FREE ENERGY PREDICTED BY IDOCK:   -0.37 KCAL/MOL
REMARK 927      BINDING AFFINITY PREDICTED BY RF-SCORE:    0.00 PKD
ROOT
HETATM    1  C   UNL     1      -7.122   6.885  73.589  1.00  0.00    -0.074 C  
HETATM    2  N   UNL     1      -6.678   5.743  72.790  1.00  0.00    -0.071 NA 
HETATM    3  C   UNL     1      -7.115   4.497  73.429  1.00  0.00    -0.071 C  
ENDROOT
BRANCH   2   4
HETATM    4  C   UNL     1      -7.158   5.864  71.392  1.00  0.00    -0.077 C  
BRANCH   4   5
HETATM    5  C   UNL     1      -8.670   6.107  71.304  1.00  0.00    -0.132 C  
BRANCH   5   6
HETATM    6  O   UNL     1      -9.321   5.254  70.357  1.00  0.00    -0.148 OA 
BRANCH   6   7
HETATM    7  C   UNL     1     -10.146   5.912  69.497  1.00  0.00    -0.203 C  
HETATM    8  C   UNL     1      -9.373   6.331  68.244  1.00  0.00    -0.112 C  
HETATM    9  O   UNL     1     -11.308   6.205  69.741  1.00  0.00    -0.411 OA 
HETATM   10  C   UNL     1      -8.857   5.147  67.428  1.00  0.00    -0.105 A  
HETATM   11  C   UNL     1     -10.168   7.378  67.407  1.00  0.00    -0.246 C  
HETATM   12  O   UNL     1     -11.386   6.819  66.902  1.00  0.00    -0.731 OA 
HETATM   13  C   UNL     1      -9.589   3.959  67.294  1.00  0.00    -0.222 A  
HETATM   14  C   UNL     1     -10.501   8.667  68.179  1.00  0.00    -0.241 C  
HETATM   15  C   UNL     1     -10.848   9.667  67.079  1.00  0.00    -0.148 C  
HETATM   16  H   UNL     1     -11.871   7.457  66.392  1.00  0.00     0.000 HD 
HETATM   17  C   UNL     1      -9.105   2.917  66.500  1.00  0.00    -0.153 A  
HETATM   18  C   UNL     1      -7.900   3.055  65.813  1.00  0.00    -0.085 A  
HETATM   19  C   UNL     1      -9.871   9.356  65.956  1.00  0.00    -0.366 C  
HETATM   20  C   UNL     1      -9.368   7.932  66.209  1.00  0.00    -0.225 C  
HETATM   21  C   UNL     1      -7.162   4.225  65.939  1.00  0.00    -0.072 A  
HETATM   22  C   UNL     1      -7.627   5.254  66.756  1.00  0.00    -0.088 A  
ENDBRANCH   6   7
ENDBRANCH   5   6
ENDBRANCH   4   5
ENDBRANCH   2   4
TORSDOF 4
ENDMDL
MODEL      173
REMARK 921   NORMALIZED FREE ENERGY PREDICTED BY IDOCK:   -3.18 KCAL/MOL
REMARK 922        TOTAL FREE ENERGY PREDICTED BY IDOCK:   -4.23 KCAL/MOL
REMARK 923 INTER-LIGAND FREE ENERGY PREDICTED BY IDOCK:   -3.88 KCAL/MOL
REMARK 924 INTRA-LIGAND FREE ENERGY PREDICTED BY IDOCK:   -0.35 KCAL/MOL
REMARK 927      BINDING AFFINITY PREDICTED BY RF-SCORE:    0.00 PKD
ROOT
HETATM    1  C   UNL     1      -5.769  12.730  69.016  1.00  0.00    -0.072 C  
HETATM    2  N   UNL     1      -5.173  12.968  67.702  1.00  0.00    -0.234 NA 
HETATM    3  C   UNL     1      -5.847  12.137  66.699  1.00  0.00     0.301 C  
ENDROOT
BRANCH   2   4
HETATM    4  C   UNL     1      -5.212  14.411  67.362  1.00  0.00     0.423 C  
BRANCH   4   5
HETATM    5  C   UNL     1      -6.434  15.126  67.953  1.00  0.00    -0.159 C  
BRANCH   5   6
HETATM    6  O   UNL     1      -7.267  15.729  66.957  1.00  0.00    -0.214 OA 
BRANCH   6   7
HETATM    7  C   UNL     1      -8.040  16.747  67.427  1.00  0.00    -0.170 C  
HETATM    8  C   UNL     1      -9.198  17.014  66.464  1.00  0.00    -0.296 C  
HETATM    9  O   UNL     1      -7.783  17.407  68.424  1.00  0.00    -0.236 OA 
HETATM   10  C   UNL     1     -10.168  15.838  66.343  1.00  0.00    -0.304 A  
HETATM   11  C   UNL     1      -9.892  18.376  66.769  1.00  0.00    -0.342 C  
HETATM   12  O   UNL     1     -10.501  18.367  68.064  1.00  0.00    -0.383 OA 
HETATM   13  C   UNL     1     -10.492  15.025  67.437  1.00  0.00    -0.257 A  
HETATM   14  C   UNL     1      -8.946  19.588  66.680  1.00  0.00    -0.399 C  
HETATM   15  C   UNL     1      -9.895  20.777  66.564  1.00  0.00    -0.019 C  
HETATM   16  H   UNL     1     -10.924  19.197  68.251  1.00  0.00     0.000 HD 
HETATM   17  C   UNL     1     -11.419  13.989  67.297  1.00  0.00    -0.372 A  
HETATM   18  C   UNL     1     -12.050  13.768  66.073  1.00  0.00    -0.470 A  
HETATM   19  C   UNL     1     -11.028  20.281  65.680  1.00  0.00     0.122 C  
HETATM   20  C   UNL     1     -10.976  18.751  65.737  1.00  0.00     0.044 C  
HETATM   21  C   UNL     1     -11.735  14.564  64.979  1.00  0.00    -0.392 A  
HETATM   22  C   UNL     1     -10.787  15.578  65.108  1.00  0.00    -0.452 A  
ENDBRANCH   6   7
ENDBRANCH   5   6
ENDBRANCH   4   5
ENDBRANCH   2   4
TORSDOF 4
ENDMDL
MODEL      174
REMARK 921   NORMALIZED FREE ENERGY PREDICTED BY IDOCK:   -3.17 KCAL/MOL
REMARK 922        TOTAL FREE ENERGY PREDICTED BY IDOCK:   -4.22 KCAL/MOL
REMARK 923 INTER-LIGAND FREE ENERGY PREDICTED BY IDOCK:   -3.87 KCAL/MOL
REMARK 924 INTRA-LIGAND FREE ENERGY PREDICTED BY IDOCK:   -0.35 KCAL/MOL
REMARK 927      BINDING AFFINITY PREDICTED BY RF-SCORE:    0.00 PKD
ROOT
HETATM    1  C   UNL     1     -10.946  12.241  67.935  1.00  0.00    -0.224 C  
HETATM    2  N   UNL     1     -10.513  11.357  66.853  1.00  0.00    -0.230 NA 
HETATM    3  C   UNL     1     -10.380  12.127  65.612  1.00  0.00    -0.257 C  
ENDROOT
BRANCH   2   4
HETATM    4  C   UNL     1      -9.260  10.653  67.221  1.00  0.00    -0.143 C  
BRANCH   4   5
HETATM    5  C   UNL     1      -9.462   9.143  67.408  1.00  0.00    -0.143 C  
BRANCH   5   6
HETATM    6  O   UNL     1      -8.316   8.489  67.962  1.00  0.00    -0.124 OA 
BRANCH   6   7
HETATM    7  C   UNL     1      -8.408   8.254  69.300  1.00  0.00    -0.122 C  
HETATM    8  C   UNL     1      -9.368   7.093  69.565  1.00  0.00    -0.148 C  
HETATM    9  O   UNL     1      -7.872   8.939  70.160  1.00  0.00    -0.080 OA 
HETATM   10  C   UNL     1      -8.882   5.763  68.989  1.00  0.00    -0.111 A  
HETATM   11  C   UNL     1      -9.774   7.020  71.068  1.00  0.00    -0.173 C  
HETATM   12  O   UNL     1      -8.641   6.740  71.897  1.00  0.00    -0.120 OA 
HETATM   13  C   UNL     1      -7.527   5.409  68.973  1.00  0.00    -0.074 A  
HETATM   14  C   UNL     1     -10.460   8.296  71.588  1.00  0.00    -0.303 C  
HETATM   15  C   UNL     1     -11.145   7.839  72.874  1.00  0.00    -0.457 C  
HETATM   16  H   UNL     1      -8.888   6.696  72.813  1.00  0.00     0.000 HD 
HETATM   17  C   UNL     1      -7.127   4.164  68.482  1.00  0.00    -0.055 A  
HETATM   18  C   UNL     1      -8.075   3.250  68.023  1.00  0.00    -0.083 A  
HETATM   19  C   UNL     1     -11.657   6.443  72.560  1.00  0.00    -0.259 C  
HETATM   20  C   UNL     1     -10.849   5.950  71.356  1.00  0.00    -0.332 C  
HETATM   21  C   UNL     1      -9.422   3.589  68.029  1.00  0.00    -0.217 A  
HETATM   22  C   UNL     1      -9.821   4.842  68.490  1.00  0.00    -0.208 A  
ENDBRANCH   6   7
ENDBRANCH   5   6
ENDBRANCH   4   5
ENDBRANCH   2   4
TORSDOF 4
ENDMDL
MODEL      175
REMARK 921   NORMALIZED FREE ENERGY PREDICTED BY IDOCK:   -3.17 KCAL/MOL
REMARK 922        TOTAL FREE ENERGY PREDICTED BY IDOCK:   -4.21 KCAL/MOL
REMARK 923 INTER-LIGAND FREE ENERGY PREDICTED BY IDOCK:   -3.76 KCAL/MOL
REMARK 924 INTRA-LIGAND FREE ENERGY PREDICTED BY IDOCK:   -0.45 KCAL/MOL
REMARK 927      BINDING AFFINITY PREDICTED BY RF-SCORE:    0.00 PKD
ROOT
HETATM    1  C   UNL     1      -7.544  13.569  68.548  1.00  0.00    -0.129 C  
HETATM    2  N   UNL     1      -6.570  13.886  67.504  1.00  0.00    -0.270 NA 
HETATM    3  C   UNL     1      -6.219  15.309  67.575  1.00  0.00    -0.072 C  
ENDROOT
BRANCH   2   4
HETATM    4  C   UNL     1      -5.383  13.003  67.610  1.00  0.00    -0.081 C  
BRANCH   4   5
HETATM    5  C   UNL     1      -5.570  11.668  66.876  1.00  0.00    -0.136 C  
BRANCH   5   6
HETATM    6  O   UNL     1      -6.593  11.717  65.877  1.00  0.00     0.290 OA 
BRANCH   6   7
HETATM    7  C   UNL     1      -7.150  10.506  65.597  1.00  0.00    -0.119 C  
HETATM    8  C   UNL     1      -8.357  10.260  66.503  1.00  0.00    -0.126 C  
HETATM    9  O   UNL     1      -6.687   9.700  64.802  1.00  0.00    -0.091 OA 
HETATM   10  C   UNL     1      -9.497  11.252  66.275  1.00  0.00    -0.227 A  
HETATM   11  C   UNL     1      -8.802   8.767  66.469  1.00  0.00    -0.131 C  
HETATM   12  O   UNL     1      -9.256   8.393  65.163  1.00  0.00    -0.413 OA 
HETATM   13  C   UNL     1      -9.813  11.744  65.001  1.00  0.00    -0.257 A  
HETATM   14  C   UNL     1      -7.704   7.781  66.908  1.00  0.00    -0.103 C  
HETATM   15  C   UNL     1      -8.474   6.501  67.222  1.00  0.00    -0.112 C  
HETATM   16  H   UNL     1      -9.527   7.483  65.142  1.00  0.00     0.000 HD 
HETATM   17  C   UNL     1     -10.893  12.613  64.827  1.00  0.00    -0.332 A  
HETATM   18  C   UNL     1     -11.683  12.982  65.914  1.00  0.00    -0.442 A  
HETATM   19  C   UNL     1      -9.760   6.977  67.878  1.00  0.00    -0.141 C  
HETATM   20  C   UNL     1      -9.929   8.445  67.473  1.00  0.00    -0.259 C  
HETATM   21  C   UNL     1     -11.380  12.506  67.183  1.00  0.00    -0.381 A  
HETATM   22  C   UNL     1     -10.284  11.664  67.365  1.00  0.00    -0.226 A  
ENDBRANCH   6   7
ENDBRANCH   5   6
ENDBRANCH   4   5
ENDBRANCH   2   4
TORSDOF 4
ENDMDL
MODEL      176
REMARK 921   NORMALIZED FREE ENERGY PREDICTED BY IDOCK:   -3.16 KCAL/MOL
REMARK 922        TOTAL FREE ENERGY PREDICTED BY IDOCK:   -4.20 KCAL/MOL
REMARK 923 INTER-LIGAND FREE ENERGY PREDICTED BY IDOCK:   -3.95 KCAL/MOL
REMARK 924 INTRA-LIGAND FREE ENERGY PREDICTED BY IDOCK:   -0.26 KCAL/MOL
REMARK 927      BINDING AFFINITY PREDICTED BY RF-SCORE:    0.00 PKD
ROOT
HETATM    1  C   UNL     1      -5.200   2.953  66.386  1.00  0.00    -0.012 C  
HETATM    2  N   UNL     1      -5.672   3.926  65.402  1.00  0.00    -0.021 NA 
HETATM    3  C   UNL     1      -6.830   3.380  64.686  1.00  0.00    -0.048 C  
ENDROOT
BRANCH   2   4
HETATM    4  C   UNL     1      -5.968   5.226  66.052  1.00  0.00    -0.022 C  
BRANCH   4   5
HETATM    5  C   UNL     1      -6.613   6.236  65.092  1.00  0.00    -0.039 C  
BRANCH   5   6
HETATM    6  O   UNL     1      -7.312   7.285  65.768  1.00  0.00    -0.071 OA 
BRANCH   6   7
HETATM    7  C   UNL     1      -8.547   6.926  66.216  1.00  0.00    -0.136 C  
HETATM    8  C   UNL     1      -9.014   7.894  67.304  1.00  0.00    -0.137 C  
HETATM    9  O   UNL     1      -9.145   5.919  65.861  1.00  0.00    -0.159 OA 
HETATM   10  C   UNL     1      -9.205   9.324  66.800  1.00  0.00    -0.185 A  
HETATM   11  C   UNL     1     -10.240   7.329  68.083  1.00  0.00    -0.187 C  
HETATM   12  O   UNL     1     -11.376   7.185  67.224  1.00  0.00    -0.584 OA 
HETATM   13  C   UNL     1      -9.699   9.602  65.519  1.00  0.00    -0.372 A  
HETATM   14  C   UNL     1      -9.970   5.978  68.771  1.00  0.00    -0.186 C  
HETATM   15  C   UNL     1     -11.096   5.863  69.794  1.00  0.00    -0.422 C  
HETATM   16  H   UNL     1     -12.124   6.840  67.699  1.00  0.00     0.000 HD 
HETATM   17  C   UNL     1      -9.906  10.922  65.112  1.00  0.00    -0.329 A  
HETATM   18  C   UNL     1      -9.644  11.978  65.985  1.00  0.00    -0.247 A  
HETATM   19  C   UNL     1     -11.279   7.276  70.325  1.00  0.00    -0.287 C  
HETATM   20  C   UNL     1     -10.658   8.209  69.280  1.00  0.00    -0.191 C  
HETATM   21  C   UNL     1      -9.149  11.717  67.257  1.00  0.00    -0.171 A  
HETATM   22  C   UNL     1      -8.914  10.402  67.654  1.00  0.00    -0.139 A  
ENDBRANCH   6   7
ENDBRANCH   5   6
ENDBRANCH   4   5
ENDBRANCH   2   4
TORSDOF 4
ENDMDL
MODEL      177
REMARK 921   NORMALIZED FREE ENERGY PREDICTED BY IDOCK:   -3.16 KCAL/MOL
REMARK 922        TOTAL FREE ENERGY PREDICTED BY IDOCK:   -4.20 KCAL/MOL
REMARK 923 INTER-LIGAND FREE ENERGY PREDICTED BY IDOCK:   -3.83 KCAL/MOL
REMARK 924 INTRA-LIGAND FREE ENERGY PREDICTED BY IDOCK:   -0.37 KCAL/MOL
REMARK 927      BINDING AFFINITY PREDICTED BY RF-SCORE:    0.00 PKD
ROOT
HETATM    1  C   UNL     1     -10.287  17.794  67.667  1.00  0.00    -0.373 C  
HETATM    2  N   UNL     1      -9.093  17.189  67.077  1.00  0.00    -0.225 NA 
HETATM    3  C   UNL     1      -8.111  16.913  68.131  1.00  0.00    -0.201 C  
ENDROOT
BRANCH   2   4
HETATM    4  C   UNL     1      -9.450  15.976  66.301  1.00  0.00    -0.315 C  
BRANCH   4   5
HETATM    5  C   UNL     1      -8.672  14.733  66.754  1.00  0.00    -0.224 C  
BRANCH   5   6
HETATM    6  O   UNL     1      -9.482  13.555  66.811  1.00  0.00    -0.254 OA 
BRANCH   6   7
HETATM    7  C   UNL     1      -9.232  12.766  67.891  1.00  0.00    -0.205 C  
HETATM    8  C   UNL     1      -9.377  11.291  67.510  1.00  0.00    -0.166 C  
HETATM    9  O   UNL     1      -9.020  13.186  69.020  1.00  0.00     0.231 OA 
HETATM   10  C   UNL     1      -8.352  10.832  66.473  1.00  0.00    -0.146 A  
HETATM   11  C   UNL     1      -9.451  10.380  68.772  1.00  0.00    -0.175 C  
HETATM   12  O   UNL     1      -8.232  10.435  69.521  1.00  0.00    -0.213 OA 
HETATM   13  C   UNL     1      -7.036  11.313  66.462  1.00  0.00    -0.097 A  
HETATM   14  C   UNL     1     -10.622  10.716  69.713  1.00  0.00    -0.233 C  
HETATM   15  C   UNL     1     -10.756   9.468  70.581  1.00  0.00    -0.375 C  
HETATM   16  H   UNL     1      -8.277   9.880  70.291  1.00  0.00     0.000 HD 
HETATM   17  C   UNL     1      -6.116  10.833  65.527  1.00  0.00    -0.062 A  
HETATM   18  C   UNL     1      -6.490   9.852  64.609  1.00  0.00    -0.119 A  
HETATM   19  C   UNL     1     -10.490   8.309  69.632  1.00  0.00    -0.221 C  
HETATM   20  C   UNL     1      -9.735   8.900  68.438  1.00  0.00    -0.175 C  
HETATM   21  C   UNL     1      -7.793   9.369  64.605  1.00  0.00    -0.120 A  
HETATM   22  C   UNL     1      -8.721   9.869  65.516  1.00  0.00    -0.170 A  
ENDBRANCH   6   7
ENDBRANCH   5   6
ENDBRANCH   4   5
ENDBRANCH   2   4
TORSDOF 4
ENDMDL
MODEL      178
REMARK 921   NORMALIZED FREE ENERGY PREDICTED BY IDOCK:   -3.10 KCAL/MOL
REMARK 922        TOTAL FREE ENERGY PREDICTED BY IDOCK:   -4.13 KCAL/MOL
REMARK 923 INTER-LIGAND FREE ENERGY PREDICTED BY IDOCK:   -3.82 KCAL/MOL
REMARK 924 INTRA-LIGAND FREE ENERGY PREDICTED BY IDOCK:   -0.31 KCAL/MOL
REMARK 927      BINDING AFFINITY PREDICTED BY RF-SCORE:    0.00 PKD
ROOT
HETATM    1  C   UNL     1     -12.391  14.040  65.912  1.00  0.00    -0.486 C  
HETATM    2  N   UNL     1     -11.893  12.754  65.423  1.00  0.00    -0.390 NA 
HETATM    3  C   UNL     1     -11.708  12.818  63.970  1.00  0.00    -0.426 C  
ENDROOT
BRANCH   2   4
HETATM    4  C   UNL     1     -10.652  12.368  66.138  1.00  0.00    -0.254 C  
BRANCH   4   5
HETATM    5  C   UNL     1      -9.746  11.456  65.300  1.00  0.00    -0.241 C  
BRANCH   5   6
HETATM    6  O   UNL     1      -9.599  10.146  65.857  1.00  0.00    -0.187 OA 
BRANCH   6   7
HETATM    7  C   UNL     1      -8.346   9.881  66.320  1.00  0.00    -0.125 C  
HETATM    8  C   UNL     1      -8.412   9.404  67.772  1.00  0.00    -0.116 C  
HETATM    9  O   UNL     1      -7.318  10.089  65.691  1.00  0.00    -0.113 OA 
HETATM   10  C   UNL     1      -9.157   8.079  67.940  1.00  0.00    -0.134 A  
HETATM   11  C   UNL     1      -7.007   9.429  68.447  1.00  0.00    -0.067 C  
HETATM   12  O   UNL     1      -6.113   8.510  67.811  1.00  0.00    -0.046 OA 
HETATM   13  C   UNL     1      -9.074   7.053  66.990  1.00  0.00    -0.150 A  
HETATM   14  C   UNL     1      -6.352  10.822  68.462  1.00  0.00    -0.050 C  
HETATM   15  C   UNL     1      -5.262  10.695  69.523  1.00  0.00    -0.038 C  
HETATM   16  H   UNL     1      -5.256   8.525  68.222  1.00  0.00     0.000 HD 
HETATM   17  C   UNL     1      -9.731   5.838  67.203  1.00  0.00    -0.147 A  
HETATM   18  C   UNL     1     -10.457   5.626  68.373  1.00  0.00    -0.263 A  
HETATM   19  C   UNL     1      -5.882   9.830  70.609  1.00  0.00    -0.072 C  
HETATM   20  C   UNL     1      -7.049   9.088  69.951  1.00  0.00    -0.053 C  
HETATM   21  C   UNL     1     -10.552   6.636  69.322  1.00  0.00    -0.276 A  
HETATM   22  C   UNL     1      -9.923   7.860  69.098  1.00  0.00    -0.184 A  
ENDBRANCH   6   7
ENDBRANCH   5   6
ENDBRANCH   4   5
ENDBRANCH   2   4
TORSDOF 4
ENDMDL
MODEL      179
REMARK 921   NORMALIZED FREE ENERGY PREDICTED BY IDOCK:   -3.09 KCAL/MOL
REMARK 922        TOTAL FREE ENERGY PREDICTED BY IDOCK:   -4.11 KCAL/MOL
REMARK 923 INTER-LIGAND FREE ENERGY PREDICTED BY IDOCK:   -3.70 KCAL/MOL
REMARK 924 INTRA-LIGAND FREE ENERGY PREDICTED BY IDOCK:   -0.41 KCAL/MOL
REMARK 927      BINDING AFFINITY PREDICTED BY RF-SCORE:    0.00 PKD
ROOT
HETATM    1  C   UNL     1     -10.292   5.476  66.235  1.00  0.00    -0.163 C  
HETATM    2  N   UNL     1      -9.440   5.381  67.420  1.00  0.00    -0.116 NA 
HETATM    3  C   UNL     1      -9.704   4.118  68.116  1.00  0.00    -0.088 C  
ENDROOT
BRANCH   2   4
HETATM    4  C   UNL     1      -8.011   5.539  67.051  1.00  0.00    -0.102 C  
BRANCH   4   5
HETATM    5  C   UNL     1      -7.812   6.435  65.821  1.00  0.00    -0.104 C  
BRANCH   5   6
HETATM    6  O   UNL     1      -6.724   7.353  65.968  1.00  0.00    -0.051 OA 
BRANCH   6   7
HETATM    7  C   UNL     1      -6.998   8.609  65.518  1.00  0.00    -0.078 C  
HETATM    8  C   UNL     1      -8.348   9.080  66.062  1.00  0.00    -0.126 C  
HETATM    9  O   UNL     1      -6.305   9.223  64.719  1.00  0.00    -0.072 OA 
HETATM   10  C   UNL     1      -8.371   9.220  67.584  1.00  0.00    -0.116 A  
HETATM   11  C   UNL     1      -8.860  10.342  65.304  1.00  0.00    -0.180 C  
HETATM   12  O   UNL     1      -7.986  11.457  65.507  1.00  0.00    -0.353 OA 
HETATM   13  C   UNL     1      -7.259   9.671  68.307  1.00  0.00    -0.079 A  
HETATM   14  C   UNL     1      -9.038  10.126  63.790  1.00  0.00    -0.293 C  
HETATM   15  C   UNL     1      -9.938  11.283  63.365  1.00  0.00    -0.433 C  
HETATM   16  H   UNL     1      -8.299  12.226  65.044  1.00  0.00     0.000 HD 
HETATM   17  C   UNL     1      -7.334   9.831  69.693  1.00  0.00    -0.103 A  
HETATM   18  C   UNL     1      -8.524   9.566  70.369  1.00  0.00    -0.238 A  
HETATM   19  C   UNL     1     -10.925  11.443  64.510  1.00  0.00    -0.346 C  
HETATM   20  C   UNL     1     -10.282  10.769  65.726  1.00  0.00    -0.319 C  
HETATM   21  C   UNL     1      -9.634   9.114  69.665  1.00  0.00    -0.182 A  
HETATM   22  C   UNL     1      -9.552   8.923  68.287  1.00  0.00    -0.159 A  
ENDBRANCH   6   7
ENDBRANCH   5   6
ENDBRANCH   4   5
ENDBRANCH   2   4
TORSDOF 4
ENDMDL
MODEL      180
REMARK 921   NORMALIZED FREE ENERGY PREDICTED BY IDOCK:   -3.06 KCAL/MOL
REMARK 922        TOTAL FREE ENERGY PREDICTED BY IDOCK:   -4.08 KCAL/MOL
REMARK 923 INTER-LIGAND FREE ENERGY PREDICTED BY IDOCK:   -3.76 KCAL/MOL
REMARK 924 INTRA-LIGAND FREE ENERGY PREDICTED BY IDOCK:   -0.32 KCAL/MOL
REMARK 927      BINDING AFFINITY PREDICTED BY RF-SCORE:    0.00 PKD
ROOT
HETATM    1  C   UNL     1      -6.209  12.934  70.559  1.00  0.00     0.164 C  
HETATM    2  N   UNL     1      -5.468  11.751  70.124  1.00  0.00    -0.101 NA 
HETATM    3  C   UNL     1      -5.784  10.621  71.005  1.00  0.00    -0.031 C  
ENDROOT
BRANCH   2   4
HETATM    4  C   UNL     1      -5.745  11.454  68.698  1.00  0.00    -0.042 C  
BRANCH   4   5
HETATM    5  C   UNL     1      -6.858  10.413  68.515  1.00  0.00    -0.061 C  
BRANCH   5   6
HETATM    6  O   UNL     1      -7.907  10.860  67.650  1.00  0.00    -0.109 OA 
BRANCH   6   7
HETATM    7  C   UNL     1      -8.577   9.851  67.028  1.00  0.00    -0.128 C  
HETATM    8  C   UNL     1      -9.122   8.865  68.063  1.00  0.00    -0.143 C  
HETATM    9  O   UNL     1      -8.644   9.711  65.815  1.00  0.00    -0.128 OA 
HETATM   10  C   UNL     1     -10.165   9.482  68.995  1.00  0.00    -0.211 A  
HETATM   11  C   UNL     1      -9.579   7.532  67.397  1.00  0.00    -0.149 C  
HETATM   12  O   UNL     1     -10.675   7.751  66.503  1.00  0.00    -0.406 OA 
HETATM   13  C   UNL     1     -11.092  10.435  68.549  1.00  0.00    -0.318 A  
HETATM   14  C   UNL     1      -8.459   6.804  66.633  1.00  0.00    -0.120 C  
HETATM   15  C   UNL     1      -8.994   5.384  66.475  1.00  0.00    -0.120 C  
HETATM   16  H   UNL     1     -10.954   6.938  66.096  1.00  0.00     0.000 HD 
HETATM   17  C   UNL     1     -12.061  10.940  69.419  1.00  0.00    -0.362 A  
HETATM   18  C   UNL     1     -12.132  10.485  70.735  1.00  0.00    -0.470 A  
HETATM   19  C   UNL     1      -9.710   5.096  67.785  1.00  0.00    -0.182 C  
HETATM   20  C   UNL     1     -10.007   6.458  68.419  1.00  0.00    -0.151 C  
HETATM   21  C   UNL     1     -11.218   9.544  71.192  1.00  0.00    -0.446 A  
HETATM   22  C   UNL     1     -10.230   9.062  70.335  1.00  0.00    -0.250 A  
ENDBRANCH   6   7
ENDBRANCH   5   6
ENDBRANCH   4   5
ENDBRANCH   2   4
TORSDOF 4
ENDMDL
MODEL      181
REMARK 921   NORMALIZED FREE ENERGY PREDICTED BY IDOCK:   -3.06 KCAL/MOL
REMARK 922        TOTAL FREE ENERGY PREDICTED BY IDOCK:   -4.08 KCAL/MOL
REMARK 923 INTER-LIGAND FREE ENERGY PREDICTED BY IDOCK:   -3.71 KCAL/MOL
REMARK 924 INTRA-LIGAND FREE ENERGY PREDICTED BY IDOCK:   -0.36 KCAL/MOL
REMARK 927      BINDING AFFINITY PREDICTED BY RF-SCORE:    0.00 PKD
ROOT
HETATM    1  C   UNL     1     -13.775  13.767  72.340  1.00  0.00    -0.591 C  
HETATM    2  N   UNL     1     -13.198  14.109  71.040  1.00  0.00    -0.312 NA 
HETATM    3  C   UNL     1     -12.437  15.357  71.154  1.00  0.00    -0.402 C  
ENDROOT
BRANCH   2   4
HETATM    4  C   UNL     1     -12.376  12.988  70.521  1.00  0.00    -0.287 C  
BRANCH   4   5
HETATM    5  C   UNL     1     -11.568  13.374  69.275  1.00  0.00    -0.310 C  
BRANCH   5   6
HETATM    6  O   UNL     1     -10.243  12.835  69.277  1.00  0.00     0.162 OA 
BRANCH   6   7
HETATM    7  C   UNL     1      -9.923  12.151  68.144  1.00  0.00    -0.201 C  
HETATM    8  C   UNL     1      -8.842  11.112  68.444  1.00  0.00    -0.157 C  
HETATM    9  O   UNL     1     -10.372  12.403  67.034  1.00  0.00    -0.219 OA 
HETATM   10  C   UNL     1      -9.301  10.024  69.416  1.00  0.00    -0.237 A  
HETATM   11  C   UNL     1      -8.200  10.560  67.135  1.00  0.00    -0.123 C  
HETATM   12  O   UNL     1      -9.163   9.853  66.347  1.00  0.00    -0.149 OA 
HETATM   13  C   UNL     1     -10.609   9.521  69.407  1.00  0.00    -0.235 A  
HETATM   14  C   UNL     1      -7.548  11.645  66.259  1.00  0.00     0.172 C  
HETATM   15  C   UNL     1      -6.636  10.854  65.326  1.00  0.00     0.195 C  
HETATM   16  H   UNL     1      -8.772   9.517  65.548  1.00  0.00     0.000 HD 
HETATM   17  C   UNL     1     -10.977   8.494  70.278  1.00  0.00    -0.245 A  
HETATM   18  C   UNL     1     -10.041   7.941  71.151  1.00  0.00    -0.210 A  
HETATM   19  C   UNL     1      -6.066   9.744  66.195  1.00  0.00    -0.065 C  
HETATM   20  C   UNL     1      -7.010   9.613  67.394  1.00  0.00    -0.084 C  
HETATM   21  C   UNL     1      -8.741   8.432  71.174  1.00  0.00    -0.194 A  
HETATM   22  C   UNL     1      -8.380   9.478  70.328  1.00  0.00    -0.221 A  
ENDBRANCH   6   7
ENDBRANCH   5   6
ENDBRANCH   4   5
ENDBRANCH   2   4
TORSDOF 4
ENDMDL
MODEL      182
REMARK 921   NORMALIZED FREE ENERGY PREDICTED BY IDOCK:   -3.06 KCAL/MOL
REMARK 922        TOTAL FREE ENERGY PREDICTED BY IDOCK:   -4.08 KCAL/MOL
REMARK 923 INTER-LIGAND FREE ENERGY PREDICTED BY IDOCK:   -4.36 KCAL/MOL
REMARK 924 INTRA-LIGAND FREE ENERGY PREDICTED BY IDOCK:    0.28 KCAL/MOL
REMARK 927      BINDING AFFINITY PREDICTED BY RF-SCORE:    0.00 PKD
ROOT
HETATM    1  C   UNL     1     -13.970   9.078  72.522  1.00  0.00    -0.401 C  
HETATM    2  N   UNL     1     -12.850   8.151  72.362  1.00  0.00    -0.221 NA 
HETATM    3  C   UNL     1     -13.124   7.236  71.249  1.00  0.00    -0.307 C  
ENDROOT
BRANCH   2   4
HETATM    4  C   UNL     1     -11.577   8.893  72.186  1.00  0.00    -0.330 C  
BRANCH   4   5
HETATM    5  C   UNL     1     -11.561   9.750  70.913  1.00  0.00    -0.361 C  
BRANCH   5   6
HETATM    6  O   UNL     1     -10.391   9.547  70.116  1.00  0.00    -0.218 OA 
BRANCH   6   7
HETATM    7  C   UNL     1      -9.424   8.812  70.731  1.00  0.00    -0.206 C  
HETATM    8  C   UNL     1      -9.643   7.323  70.460  1.00  0.00    -0.168 C  
HETATM    9  O   UNL     1      -8.566   9.278  71.469  1.00  0.00    -0.320 OA 
HETATM   10  C   UNL     1      -9.508   6.950  68.984  1.00  0.00    -0.137 A  
HETATM   11  C   UNL     1      -8.790   6.437  71.417  1.00  0.00    -0.138 C  
HETATM   12  O   UNL     1      -7.390   6.636  71.194  1.00  0.00    -0.077 OA 
HETATM   13  C   UNL     1      -8.571   7.565  68.143  1.00  0.00    -0.123 A  
HETATM   14  C   UNL     1      -9.088   6.669  72.909  1.00  0.00    -0.139 C  
HETATM   15  C   UNL     1      -8.505   5.434  73.590  1.00  0.00    -0.111 C  
HETATM   16  H   UNL     1      -6.869   6.096  71.777  1.00  0.00     0.000 HD 
HETATM   17  C   UNL     1      -8.445   7.163  66.812  1.00  0.00    -0.121 A  
HETATM   18  C   UNL     1      -9.234   6.129  66.310  1.00  0.00    -0.163 A  
HETATM   19  C   UNL     1      -8.816   4.289  72.638  1.00  0.00    -0.113 C  
HETATM   20  C   UNL     1      -9.084   4.929  71.273  1.00  0.00    -0.179 C  
HETATM   21  C   UNL     1     -10.170   5.513  67.130  1.00  0.00    -0.260 A  
HETATM   22  C   UNL     1     -10.320   5.933  68.451  1.00  0.00    -0.261 A  
ENDBRANCH   6   7
ENDBRANCH   5   6
ENDBRANCH   4   5
ENDBRANCH   2   4
TORSDOF 4
ENDMDL
MODEL      183
REMARK 921   NORMALIZED FREE ENERGY PREDICTED BY IDOCK:   -3.06 KCAL/MOL
REMARK 922        TOTAL FREE ENERGY PREDICTED BY IDOCK:   -4.08 KCAL/MOL
REMARK 923 INTER-LIGAND FREE ENERGY PREDICTED BY IDOCK:   -3.75 KCAL/MOL
REMARK 924 INTRA-LIGAND FREE ENERGY PREDICTED BY IDOCK:   -0.33 KCAL/MOL
REMARK 927      BINDING AFFINITY PREDICTED BY RF-SCORE:    0.00 PKD
ROOT
HETATM    1  C   UNL     1     -14.360  15.361  71.691  1.00  0.00    -0.505 C  
HETATM    2  N   UNL     1     -13.007  15.202  72.222  1.00  0.00    -0.328 NA 
HETATM    3  C   UNL     1     -12.946  15.745  73.583  1.00  0.00    -0.549 C  
ENDROOT
BRANCH   2   4
HETATM    4  C   UNL     1     -12.583  13.782  72.157  1.00  0.00    -0.110 C  
BRANCH   4   5
HETATM    5  C   UNL     1     -12.375  13.291  70.718  1.00  0.00    -0.344 C  
BRANCH   5   6
HETATM    6  O   UNL     1     -11.348  14.007  70.024  1.00  0.00    -0.209 OA 
BRANCH   6   7
HETATM    7  C   UNL     1     -11.221  13.658  68.714  1.00  0.00    -0.279 C  
HETATM    8  C   UNL     1     -10.361  14.686  67.977  1.00  0.00    -0.235 C  
HETATM    9  O   UNL     1     -11.793  12.711  68.192  1.00  0.00    -0.329 OA 
HETATM   10  C   UNL     1      -8.921  14.746  68.486  1.00  0.00    -0.182 A  
HETATM   11  C   UNL     1     -10.479  14.527  66.431  1.00  0.00    -0.295 C  
HETATM   12  O   UNL     1      -9.966  13.261  66.002  1.00  0.00    -0.289 OA 
HETATM   13  C   UNL     1      -8.231  13.601  68.907  1.00  0.00     0.123 A  
HETATM   14  C   UNL     1     -11.916  14.681  65.900  1.00  0.00    -0.242 C  
HETATM   15  C   UNL     1     -11.722  14.936  64.408  1.00  0.00    -0.338 C  
HETATM   16  H   UNL     1     -10.038  13.164  65.059  1.00  0.00     0.000 HD 
HETATM   17  C   UNL     1      -6.900  13.690  69.320  1.00  0.00    -0.063 A  
HETATM   18  C   UNL     1      -6.234  14.915  69.296  1.00  0.00    -0.110 A  
HETATM   19  C   UNL     1     -10.488  15.820  64.326  1.00  0.00     1.205 C  
HETATM   20  C   UNL     1      -9.738  15.631  65.648  1.00  0.00    -0.348 C  
HETATM   21  C   UNL     1      -6.906  16.059  68.885  1.00  0.00    -0.143 A  
HETATM   22  C   UNL     1      -8.244  15.979  68.502  1.00  0.00    -0.181 A  
ENDBRANCH   6   7
ENDBRANCH   5   6
ENDBRANCH   4   5
ENDBRANCH   2   4
TORSDOF 4
ENDMDL
MODEL      184
REMARK 921   NORMALIZED FREE ENERGY PREDICTED BY IDOCK:   -3.06 KCAL/MOL
REMARK 922        TOTAL FREE ENERGY PREDICTED BY IDOCK:   -4.08 KCAL/MOL
REMARK 923 INTER-LIGAND FREE ENERGY PREDICTED BY IDOCK:   -3.77 KCAL/MOL
REMARK 924 INTRA-LIGAND FREE ENERGY PREDICTED BY IDOCK:   -0.30 KCAL/MOL
REMARK 927      BINDING AFFINITY PREDICTED BY RF-SCORE:    0.00 PKD
ROOT
HETATM    1  C   UNL     1     -11.034   7.752  73.204  1.00  0.00    -0.310 C  
HETATM    2  N   UNL     1     -10.855   6.791  72.117  1.00  0.00    -0.221 NA 
HETATM    3  C   UNL     1     -11.047   5.430  72.627  1.00  0.00    -0.278 C  
ENDROOT
BRANCH   2   4
HETATM    4  C   UNL     1     -11.761   7.106  70.985  1.00  0.00    -0.320 C  
BRANCH   4   5
HETATM    5  C   UNL     1     -11.413   6.323  69.712  1.00  0.00    -0.379 C  
BRANCH   5   6
HETATM    6  O   UNL     1     -10.104   6.616  69.214  1.00  0.00    -0.161 OA 
BRANCH   6   7
HETATM    7  C   UNL     1     -10.087   7.543  68.216  1.00  0.00    -0.183 C  
HETATM    8  C   UNL     1      -8.796   7.420  67.405  1.00  0.00    -0.123 C  
HETATM    9  O   UNL     1     -10.941   8.405  68.060  1.00  0.00    -0.011 OA 
HETATM   10  C   UNL     1      -8.667   6.085  66.672  1.00  0.00    -0.123 A  
HETATM   11  C   UNL     1      -8.572   8.665  66.495  1.00  0.00    -0.116 C  
HETATM   12  O   UNL     1      -9.603   8.774  65.507  1.00  0.00    -0.452 OA 
HETATM   13  C   UNL     1      -9.774   5.432  66.112  1.00  0.00    -0.165 A  
HETATM   14  C   UNL     1      -8.490   9.993  67.269  1.00  0.00    -0.122 C  
HETATM   15  C   UNL     1      -7.840  10.950  66.274  1.00  0.00    -0.158 C  
HETATM   16  H   UNL     1      -9.467   9.534  64.953  1.00  0.00     0.000 HD 
HETATM   17  C   UNL     1      -9.608   4.237  65.408  1.00  0.00    -0.187 A  
HETATM   18  C   UNL     1      -8.337   3.692  65.235  1.00  0.00    -0.101 A  
HETATM   19  C   UNL     1      -6.801  10.107  65.553  1.00  0.00    -0.130 C  
HETATM   20  C   UNL     1      -7.214   8.647  65.764  1.00  0.00    -0.080 C  
HETATM   21  C   UNL     1      -7.231   4.325  65.788  1.00  0.00    -0.072 A  
HETATM   22  C   UNL     1      -7.397   5.501  66.517  1.00  0.00    -0.082 A  
ENDBRANCH   6   7
ENDBRANCH   5   6
ENDBRANCH   4   5
ENDBRANCH   2   4
TORSDOF 4
ENDMDL
MODEL      185
REMARK 921   NORMALIZED FREE ENERGY PREDICTED BY IDOCK:   -3.02 KCAL/MOL
REMARK 922        TOTAL FREE ENERGY PREDICTED BY IDOCK:   -4.03 KCAL/MOL
REMARK 923 INTER-LIGAND FREE ENERGY PREDICTED BY IDOCK:   -3.83 KCAL/MOL
REMARK 924 INTRA-LIGAND FREE ENERGY PREDICTED BY IDOCK:   -0.20 KCAL/MOL
REMARK 927      BINDING AFFINITY PREDICTED BY RF-SCORE:    0.00 PKD
ROOT
HETATM    1  C   UNL     1     -10.910  11.939  63.361  1.00  0.00    -0.399 C  
HETATM    2  N   UNL     1     -10.047  10.792  63.640  1.00  0.00    -0.335 NA 
HETATM    3  C   UNL     1      -9.177  10.539  62.487  1.00  0.00    -0.297 C  
ENDROOT
BRANCH   2   4
HETATM    4  C   UNL     1      -9.282  11.005  64.893  1.00  0.00    -0.188 C  
BRANCH   4   5
HETATM    5  C   UNL     1      -9.381   9.816  65.858  1.00  0.00    -0.205 C  
BRANCH   5   6
HETATM    6  O   UNL     1     -10.560   9.848  66.668  1.00  0.00    -0.192 OA 
BRANCH   6   7
HETATM    7  C   UNL     1     -10.333   9.576  67.983  1.00  0.00    -0.214 C  
HETATM    8  C   UNL     1      -9.092  10.327  68.469  1.00  0.00    -0.138 C  
HETATM    9  O   UNL     1     -10.977   8.773  68.644  1.00  0.00    -0.039 OA 
HETATM   10  C   UNL     1      -9.249  11.847  68.428  1.00  0.00    -0.173 A  
HETATM   11  C   UNL     1      -8.594   9.780  69.841  1.00  0.00    -0.218 C  
HETATM   12  O   UNL     1      -9.567  10.000  70.868  1.00  0.00    -0.241 OA 
HETATM   13  C   UNL     1     -10.466  12.478  68.720  1.00  0.00    -0.169 A  
HETATM   14  C   UNL     1      -8.232   8.284  69.818  1.00  0.00    -0.121 C  
HETATM   15  C   UNL     1      -7.380   8.100  71.071  1.00  0.00    -0.058 C  
HETATM   16  H   UNL     1      -9.263   9.666  71.704  1.00  0.00     0.000 HD 
HETATM   17  C   UNL     1     -10.558  13.871  68.718  1.00  0.00    -0.258 A  
HETATM   18  C   UNL     1      -9.434  14.651  68.448  1.00  0.00    -0.209 A  
HETATM   19  C   UNL     1      -6.542   9.367  71.155  1.00  0.00    -0.058 C  
HETATM   20  C   UNL     1      -7.265  10.414  70.302  1.00  0.00    -0.000 C  
HETATM   21  C   UNL     1      -8.222  14.040  68.153  1.00  0.00    -0.155 A  
HETATM   22  C   UNL     1      -8.135  12.649  68.123  1.00  0.00    -0.164 A  
ENDBRANCH   6   7
ENDBRANCH   5   6
ENDBRANCH   4   5
ENDBRANCH   2   4
TORSDOF 4
ENDMDL
MODEL      186
REMARK 921   NORMALIZED FREE ENERGY PREDICTED BY IDOCK:   -2.97 KCAL/MOL
REMARK 922        TOTAL FREE ENERGY PREDICTED BY IDOCK:   -3.97 KCAL/MOL
REMARK 923 INTER-LIGAND FREE ENERGY PREDICTED BY IDOCK:   -3.56 KCAL/MOL
REMARK 924 INTRA-LIGAND FREE ENERGY PREDICTED BY IDOCK:   -0.40 KCAL/MOL
REMARK 927      BINDING AFFINITY PREDICTED BY RF-SCORE:    0.00 PKD
ROOT
HETATM    1  C   UNL     1     -10.662   6.987  72.016  1.00  0.00    -0.215 C  
HETATM    2  N   UNL     1     -11.334   7.421  70.792  1.00  0.00    -0.275 NA 
HETATM    3  C   UNL     1     -10.546   8.476  70.146  1.00  0.00    -0.232 C  
ENDROOT
BRANCH   2   4
HETATM    4  C   UNL     1     -11.582   6.267  69.893  1.00  0.00    -0.291 C  
BRANCH   4   5
HETATM    5  C   UNL     1     -10.324   5.828  69.132  1.00  0.00    -0.248 C  
BRANCH   5   6
HETATM    6  O   UNL     1     -10.584   5.498  67.764  1.00  0.00    -0.211 OA 
BRANCH   6   7
HETATM    7  C   UNL     1     -10.051   6.379  66.873  1.00  0.00    -0.187 C  
HETATM    8  C   UNL     1      -8.841   5.755  66.176  1.00  0.00    -0.146 C  
HETATM    9  O   UNL     1     -10.432   7.532  66.728  1.00  0.00    -0.305 OA 
HETATM   10  C   UNL     1      -9.196   4.536  65.324  1.00  0.00    -0.156 A  
HETATM   11  C   UNL     1      -7.998   6.828  65.423  1.00  0.00    -0.121 C  
HETATM   12  O   UNL     1      -8.751   7.425  64.362  1.00  0.00    -0.334 OA 
HETATM   13  C   UNL     1     -10.393   4.457  64.600  1.00  0.00    -0.045 A  
HETATM   14  C   UNL     1      -7.462   7.947  66.335  1.00  0.00    -0.087 C  
HETATM   15  C   UNL     1      -6.347   8.582  65.508  1.00  0.00    -0.055 C  
HETATM   16  H   UNL     1      -8.237   8.080  63.903  1.00  0.00     0.000 HD 
HETATM   17  C   UNL     1     -10.660   3.348  63.794  1.00  0.00    -0.265 A  
HETATM   18  C   UNL     1      -9.728   2.317  63.683  1.00  0.00    -0.127 A  
HETATM   19  C   UNL     1      -5.679   7.413  64.802  1.00  0.00    -0.037 C  
HETATM   20  C   UNL     1      -6.693   6.265  64.822  1.00  0.00    -0.039 C  
HETATM   21  C   UNL     1      -8.538   2.380  64.398  1.00  0.00    -0.090 A  
HETATM   22  C   UNL     1      -8.283   3.471  65.227  1.00  0.00    -0.097 A  
ENDBRANCH   6   7
ENDBRANCH   5   6
ENDBRANCH   4   5
ENDBRANCH   2   4
TORSDOF 4
ENDMDL
MODEL      187
REMARK 921   NORMALIZED FREE ENERGY PREDICTED BY IDOCK:   -2.96 KCAL/MOL
REMARK 922        TOTAL FREE ENERGY PREDICTED BY IDOCK:   -3.96 KCAL/MOL
REMARK 923 INTER-LIGAND FREE ENERGY PREDICTED BY IDOCK:   -3.62 KCAL/MOL
REMARK 924 INTRA-LIGAND FREE ENERGY PREDICTED BY IDOCK:   -0.34 KCAL/MOL
REMARK 927      BINDING AFFINITY PREDICTED BY RF-SCORE:    0.00 PKD
ROOT
HETATM    1  C   UNL     1     -10.350  13.643  65.797  1.00  0.00    -0.298 C  
HETATM    2  N   UNL     1     -10.202  13.782  67.245  1.00  0.00    -0.251 NA 
HETATM    3  C   UNL     1     -10.812  15.042  67.683  1.00  0.00    -0.291 C  
ENDROOT
BRANCH   2   4
HETATM    4  C   UNL     1     -10.770  12.603  67.944  1.00  0.00    -0.218 C  
BRANCH   4   5
HETATM    5  C   UNL     1      -9.711  11.542  68.273  1.00  0.00    -0.198 C  
BRANCH   5   6
HETATM    6  O   UNL     1      -9.921  10.915  69.542  1.00  0.00    -0.128 OA 
BRANCH   6   7
HETATM    7  C   UNL     1     -10.346   9.624  69.456  1.00  0.00    -0.221 C  
HETATM    8  C   UNL     1      -9.206   8.726  68.972  1.00  0.00    -0.141 C  
HETATM    9  O   UNL     1     -11.498   9.261  69.647  1.00  0.00    -0.039 OA 
HETATM   10  C   UNL     1      -8.030   8.664  69.947  1.00  0.00    -0.105 A  
HETATM   11  C   UNL     1      -9.730   7.329  68.524  1.00  0.00    -0.149 C  
HETATM   12  O   UNL     1     -10.301   6.614  69.625  1.00  0.00    -0.180 OA 
HETATM   13  C   UNL     1      -8.212   8.680  71.336  1.00  0.00    -0.205 A  
HETATM   14  C   UNL     1     -10.765   7.390  67.386  1.00  0.00    -0.348 C  
HETATM   15  C   UNL     1     -10.778   5.966  66.835  1.00  0.00    -0.395 C  
HETATM   16  H   UNL     1     -10.621   5.762  69.351  1.00  0.00     0.000 HD 
HETATM   17  C   UNL     1      -7.116   8.573  72.194  1.00  0.00    -0.102 A  
HETATM   18  C   UNL     1      -5.829   8.426  71.679  1.00  0.00    -0.041 A  
HETATM   19  C   UNL     1      -9.326   5.519  66.890  1.00  0.00    -0.129 C  
HETATM   20  C   UNL     1      -8.633   6.440  67.899  1.00  0.00    -0.116 C  
HETATM   21  C   UNL     1      -5.632   8.413  70.303  1.00  0.00    -0.021 A  
HETATM   22  C   UNL     1      -6.721   8.550  69.445  1.00  0.00    -0.045 A  
ENDBRANCH   6   7
ENDBRANCH   5   6
ENDBRANCH   4   5
ENDBRANCH   2   4
TORSDOF 4
ENDMDL
MODEL      188
REMARK 921   NORMALIZED FREE ENERGY PREDICTED BY IDOCK:   -2.92 KCAL/MOL
REMARK 922        TOTAL FREE ENERGY PREDICTED BY IDOCK:   -3.90 KCAL/MOL
REMARK 923 INTER-LIGAND FREE ENERGY PREDICTED BY IDOCK:   -3.60 KCAL/MOL
REMARK 924 INTRA-LIGAND FREE ENERGY PREDICTED BY IDOCK:   -0.31 KCAL/MOL
REMARK 927      BINDING AFFINITY PREDICTED BY RF-SCORE:    0.00 PKD
ROOT
HETATM    1  C   UNL     1      -7.698   5.252  62.367  1.00  0.00    -0.065 C  
HETATM    2  N   UNL     1      -6.878   4.882  63.520  1.00  0.00    -0.041 NA 
HETATM    3  C   UNL     1      -5.785   4.006  63.086  1.00  0.00    -0.013 C  
ENDROOT
BRANCH   2   4
HETATM    4  C   UNL     1      -6.389   6.093  64.224  1.00  0.00    -0.030 C  
BRANCH   4   5
HETATM    5  C   UNL     1      -7.302   7.309  64.016  1.00  0.00    -0.088 C  
BRANCH   5   6
HETATM    6  O   UNL     1      -8.322   7.421  65.013  1.00  0.00    -0.125 OA 
BRANCH   6   7
HETATM    7  C   UNL     1      -8.334   8.619  65.658  1.00  0.00    -0.145 C  
HETATM    8  C   UNL     1      -9.523   8.688  66.619  1.00  0.00    -0.267 C  
HETATM    9  O   UNL     1      -7.559   9.537  65.427  1.00  0.00    -0.101 OA 
HETATM   10  C   UNL     1      -9.448   7.661  67.748  1.00  0.00    -0.160 A  
HETATM   11  C   UNL     1      -9.780  10.146  67.106  1.00  0.00    -0.173 C  
HETATM   12  O   UNL     1      -8.675  10.636  67.873  1.00  0.00    -0.125 OA 
HETATM   13  C   UNL     1      -8.234   7.298  68.346  1.00  0.00    -0.125 A  
HETATM   14  C   UNL     1     -10.067  11.140  65.966  1.00  0.00    -0.292 C  
HETATM   15  C   UNL     1     -10.710  12.328  66.677  1.00  0.00    -0.276 C  
HETATM   16  H   UNL     1      -8.832  11.525  68.170  1.00  0.00     0.000 HD 
HETATM   17  C   UNL     1      -8.212   6.391  69.408  1.00  0.00    -0.118 A  
HETATM   18  C   UNL     1      -9.401   5.854  69.901  1.00  0.00    -0.173 A  
HETATM   19  C   UNL     1     -11.586  11.704  67.752  1.00  0.00    -0.359 C  
HETATM   20  C   UNL     1     -11.054  10.284  67.966  1.00  0.00    -0.336 C  
HETATM   21  C   UNL     1     -10.612   6.201  69.315  1.00  0.00    -0.348 A  
HETATM   22  C   UNL     1     -10.634   7.082  68.235  1.00  0.00    -0.238 A  
ENDBRANCH   6   7
ENDBRANCH   5   6
ENDBRANCH   4   5
ENDBRANCH   2   4
TORSDOF 4
ENDMDL
MODEL      189
REMARK 921   NORMALIZED FREE ENERGY PREDICTED BY IDOCK:   -2.91 KCAL/MOL
REMARK 922        TOTAL FREE ENERGY PREDICTED BY IDOCK:   -3.90 KCAL/MOL
REMARK 923 INTER-LIGAND FREE ENERGY PREDICTED BY IDOCK:   -4.37 KCAL/MOL
REMARK 924 INTRA-LIGAND FREE ENERGY PREDICTED BY IDOCK:    0.47 KCAL/MOL
REMARK 927      BINDING AFFINITY PREDICTED BY RF-SCORE:    0.00 PKD
ROOT
HETATM    1  C   UNL     1     -13.784  15.520  71.835  1.00  0.00    -0.492 C  
HETATM    2  N   UNL     1     -12.565  16.305  72.026  1.00  0.00    -0.283 NA 
HETATM    3  C   UNL     1     -11.967  15.976  73.324  1.00  0.00    -0.444 C  
ENDROOT
BRANCH   2   4
HETATM    4  C   UNL     1     -11.625  16.095  70.898  1.00  0.00    -0.371 C  
BRANCH   4   5
HETATM    5  C   UNL     1     -12.344  15.874  69.561  1.00  0.00     0.027 C  
BRANCH   5   6
HETATM    6  O   UNL     1     -11.466  15.439  68.518  1.00  0.00    -0.317 OA 
BRANCH   6   7
HETATM    7  C   UNL     1     -10.429  14.671  68.953  1.00  0.00    -0.248 C  
HETATM    8  C   UNL     1      -9.306  14.666  67.915  1.00  0.00    -0.198 C  
HETATM    9  O   UNL     1     -10.443  14.010  69.983  1.00  0.00     0.362 OA 
HETATM   10  C   UNL     1      -8.680  16.042  67.694  1.00  0.00    -0.180 A  
HETATM   11  C   UNL     1      -8.269  13.538  68.200  1.00  0.00    -0.162 C  
HETATM   12  O   UNL     1      -7.599  13.756  69.447  1.00  0.00    -0.330 OA 
HETATM   13  C   UNL     1      -8.503  16.957  68.740  1.00  0.00    -0.244 A  
HETATM   14  C   UNL     1      -8.877  12.124  68.210  1.00  0.00    -0.182 C  
HETATM   15  C   UNL     1      -7.665  11.209  68.054  1.00  0.00    -0.107 C  
HETATM   16  H   UNL     1      -6.967  13.068  69.621  1.00  0.00     0.000 HD 
HETATM   17  C   UNL     1      -7.883  18.187  68.507  1.00  0.00    -0.308 A  
HETATM   18  C   UNL     1      -7.411  18.508  67.236  1.00  0.00    -0.224 A  
HETATM   19  C   UNL     1      -6.757  11.939  67.077  1.00  0.00    -0.119 C  
HETATM   20  C   UNL     1      -7.195  13.406  67.100  1.00  0.00     0.134 C  
HETATM   21  C   UNL     1      -7.583  17.613  66.187  1.00  0.00    -0.315 A  
HETATM   22  C   UNL     1      -8.229  16.399  66.410  1.00  0.00    -0.366 A  
ENDBRANCH   6   7
ENDBRANCH   5   6
ENDBRANCH   4   5
ENDBRANCH   2   4
TORSDOF 4
ENDMDL
MODEL      190
REMARK 921   NORMALIZED FREE ENERGY PREDICTED BY IDOCK:   -2.91 KCAL/MOL
REMARK 922        TOTAL FREE ENERGY PREDICTED BY IDOCK:   -3.90 KCAL/MOL
REMARK 923 INTER-LIGAND FREE ENERGY PREDICTED BY IDOCK:   -3.54 KCAL/MOL
REMARK 924 INTRA-LIGAND FREE ENERGY PREDICTED BY IDOCK:   -0.36 KCAL/MOL
REMARK 927      BINDING AFFINITY PREDICTED BY RF-SCORE:    0.00 PKD
ROOT
HETATM    1  C   UNL     1      -6.884  10.914  69.954  1.00  0.00    -0.125 C  
HETATM    2  N   UNL     1      -5.862  10.121  70.638  1.00  0.00    -0.086 NA 
HETATM    3  C   UNL     1      -5.152  10.964  71.606  1.00  0.00    -0.021 C  
ENDROOT
BRANCH   2   4
HETATM    4  C   UNL     1      -6.465   8.920  71.266  1.00  0.00    -0.077 C  
BRANCH   4   5
HETATM    5  C   UNL     1      -6.825   7.834  70.244  1.00  0.00    -0.046 C  
BRANCH   5   6
HETATM    6  O   UNL     1      -7.792   6.900  70.735  1.00  0.00    -0.094 OA 
BRANCH   6   7
HETATM    7  C   UNL     1      -9.062   7.388  70.772  1.00  0.00    -0.151 C  
HETATM    8  C   UNL     1      -9.425   8.014  69.424  1.00  0.00    -0.159 C  
HETATM    9  O   UNL     1      -9.767   7.404  71.771  1.00  0.00    -0.154 OA 
HETATM   10  C   UNL     1      -9.449   7.005  68.276  1.00  0.00    -0.128 A  
HETATM   11  C   UNL     1     -10.712   8.886  69.527  1.00  0.00    -0.199 C  
HETATM   12  O   UNL     1     -11.851   8.088  69.866  1.00  0.00    -0.333 OA 
HETATM   13  C   UNL     1      -9.900   5.690  68.449  1.00  0.00    -0.178 A  
HETATM   14  C   UNL     1     -10.601  10.039  70.541  1.00  0.00    -0.313 C  
HETATM   15  C   UNL     1     -11.741  10.975  70.148  1.00  0.00    -0.442 C  
HETATM   16  H   UNL     1     -12.636   8.619  69.929  1.00  0.00     0.000 HD 
HETATM   17  C   UNL     1      -9.952   4.812  67.365  1.00  0.00    -0.204 A  
HETATM   18  C   UNL     1      -9.579   5.241  66.092  1.00  0.00    -0.176 A  
HETATM   19  C   UNL     1     -11.767  10.932  68.629  1.00  0.00    -0.334 C  
HETATM   20  C   UNL     1     -11.036   9.648  68.225  1.00  0.00    -0.102 C  
HETATM   21  C   UNL     1      -9.127   6.541  65.905  1.00  0.00    -0.065 A  
HETATM   22  C   UNL     1      -9.044   7.410  66.991  1.00  0.00    -0.155 A  
ENDBRANCH   6   7
ENDBRANCH   5   6
ENDBRANCH   4   5
ENDBRANCH   2   4
TORSDOF 4
ENDMDL
MODEL      191
REMARK 921   NORMALIZED FREE ENERGY PREDICTED BY IDOCK:   -2.90 KCAL/MOL
REMARK 922        TOTAL FREE ENERGY PREDICTED BY IDOCK:   -3.88 KCAL/MOL
REMARK 923 INTER-LIGAND FREE ENERGY PREDICTED BY IDOCK:   -3.59 KCAL/MOL
REMARK 924 INTRA-LIGAND FREE ENERGY PREDICTED BY IDOCK:   -0.29 KCAL/MOL
REMARK 927      BINDING AFFINITY PREDICTED BY RF-SCORE:    0.00 PKD
ROOT
HETATM    1  C   UNL     1      -8.865   7.340  73.938  1.00  0.00    -0.205 C  
HETATM    2  N   UNL     1      -8.351   8.481  73.180  1.00  0.00    -0.400 NA 
HETATM    3  C   UNL     1      -6.913   8.309  72.950  1.00  0.00    -0.099 C  
ENDROOT
BRANCH   2   4
HETATM    4  C   UNL     1      -9.111   8.656  71.918  1.00  0.00    -0.256 C  
BRANCH   4   5
HETATM    5  C   UNL     1      -8.264   9.276  70.798  1.00  0.00    -0.169 C  
BRANCH   5   6
HETATM    6  O   UNL     1      -8.228   8.475  69.613  1.00  0.00    -0.111 OA 
BRANCH   6   7
HETATM    7  C   UNL     1      -8.227   9.196  68.459  1.00  0.00    -0.115 C  
HETATM    8  C   UNL     1      -7.804   8.310  67.286  1.00  0.00    -0.105 C  
HETATM    9  O   UNL     1      -8.441  10.399  68.395  1.00  0.00    -0.115 OA 
HETATM   10  C   UNL     1      -8.780   7.168  67.007  1.00  0.00    -0.123 A  
HETATM   11  C   UNL     1      -7.448   9.160  66.028  1.00  0.00    -0.095 C  
HETATM   12  O   UNL     1      -8.594   9.868  65.543  1.00  0.00    -0.134 OA 
HETATM   13  C   UNL     1     -10.166   7.320  67.155  1.00  0.00    -0.339 A  
HETATM   14  C   UNL     1      -6.309  10.168  66.262  1.00  0.00    -0.084 C  
HETATM   15  C   UNL     1      -5.852  10.530  64.851  1.00  0.00    -0.105 C  
HETATM   16  H   UNL     1      -8.377  10.386  64.776  1.00  0.00     0.000 HD 
HETATM   17  C   UNL     1     -11.029   6.267  66.844  1.00  0.00    -0.404 A  
HETATM   18  C   UNL     1     -10.524   5.061  66.361  1.00  0.00    -0.349 A  
HETATM   19  C   UNL     1      -5.937   9.225  64.074  1.00  0.00    -0.076 C  
HETATM   20  C   UNL     1      -6.883   8.317  64.865  1.00  0.00    -0.071 C  
HETATM   21  C   UNL     1      -9.153   4.894  66.212  1.00  0.00    -0.127 A  
HETATM   22  C   UNL     1      -8.287   5.933  66.551  1.00  0.00    -0.112 A  
ENDBRANCH   6   7
ENDBRANCH   5   6
ENDBRANCH   4   5
ENDBRANCH   2   4
TORSDOF 4
ENDMDL
MODEL      192
REMARK 921   NORMALIZED FREE ENERGY PREDICTED BY IDOCK:   -2.83 KCAL/MOL
REMARK 922        TOTAL FREE ENERGY PREDICTED BY IDOCK:   -3.79 KCAL/MOL
REMARK 923 INTER-LIGAND FREE ENERGY PREDICTED BY IDOCK:   -3.66 KCAL/MOL
REMARK 924 INTRA-LIGAND FREE ENERGY PREDICTED BY IDOCK:   -0.14 KCAL/MOL
REMARK 927      BINDING AFFINITY PREDICTED BY RF-SCORE:    0.00 PKD
ROOT
HETATM    1  C   UNL     1     -10.581   6.694  70.864  1.00  0.00    -0.224 C  
HETATM    2  N   UNL     1     -10.001   7.660  71.797  1.00  0.00    -0.171 NA 
HETATM    3  C   UNL     1      -9.879   7.048  73.124  1.00  0.00    -0.197 C  
ENDROOT
BRANCH   2   4
HETATM    4  C   UNL     1      -8.704   8.168  71.285  1.00  0.00    -0.145 C  
BRANCH   4   5
HETATM    5  C   UNL     1      -8.864   9.045  70.036  1.00  0.00    -0.173 C  
BRANCH   5   6
HETATM    6  O   UNL     1      -8.939   8.288  68.825  1.00  0.00    -0.143 OA 
BRANCH   6   7
HETATM    7  C   UNL     1      -9.725   8.853  67.868  1.00  0.00    -0.160 C  
HETATM    8  C   UNL     1      -9.164  10.218  67.466  1.00  0.00    -0.153 C  
HETATM    9  O   UNL     1     -10.777   8.375  67.464  1.00  0.00    -0.240 OA 
HETATM   10  C   UNL     1      -7.785  10.136  66.811  1.00  0.00    -0.105 A  
HETATM   11  C   UNL     1     -10.203  11.046  66.650  1.00  0.00    -0.235 C  
HETATM   12  O   UNL     1     -10.509  10.407  65.406  1.00  0.00    -0.237 OA 
HETATM   13  C   UNL     1      -7.426   9.083  65.959  1.00  0.00    -0.094 A  
HETATM   14  C   UNL     1     -11.518  11.307  67.405  1.00  0.00    -0.300 C  
HETATM   15  C   UNL     1     -12.153  12.461  66.633  1.00  0.00    -0.148 C  
HETATM   16  H   UNL     1     -11.143  10.911  64.908  1.00  0.00     0.000 HD 
HETATM   17  C   UNL     1      -6.174   9.068  65.342  1.00  0.00    -0.063 A  
HETATM   18  C   UNL     1      -5.274  10.113  65.547  1.00  0.00    -0.063 A  
HETATM   19  C   UNL     1     -10.985  13.355  66.249  1.00  0.00    -0.296 C  
HETATM   20  C   UNL     1      -9.730  12.482  66.343  1.00  0.00    -0.253 C  
HETATM   21  C   UNL     1      -5.614  11.163  66.392  1.00  0.00    -0.138 A  
HETATM   22  C   UNL     1      -6.852  11.164  67.034  1.00  0.00    -0.119 A  
ENDBRANCH   6   7
ENDBRANCH   5   6
ENDBRANCH   4   5
ENDBRANCH   2   4
TORSDOF 4
ENDMDL
MODEL      193
REMARK 921   NORMALIZED FREE ENERGY PREDICTED BY IDOCK:   -2.82 KCAL/MOL
REMARK 922        TOTAL FREE ENERGY PREDICTED BY IDOCK:   -3.79 KCAL/MOL
REMARK 923 INTER-LIGAND FREE ENERGY PREDICTED BY IDOCK:   -4.17 KCAL/MOL
REMARK 924 INTRA-LIGAND FREE ENERGY PREDICTED BY IDOCK:    0.38 KCAL/MOL
REMARK 927      BINDING AFFINITY PREDICTED BY RF-SCORE:    0.00 PKD
ROOT
HETATM    1  C   UNL     1      -7.112   8.109  74.505  1.00  0.00    -0.173 C  
HETATM    2  N   UNL     1      -6.747   8.975  73.385  1.00  0.00    -0.324 NA 
HETATM    3  C   UNL     1      -5.303   8.883  73.142  1.00  0.00    -0.083 C  
ENDROOT
BRANCH   2   4
HETATM    4  C   UNL     1      -7.547   8.641  72.181  1.00  0.00    -0.010 C  
BRANCH   4   5
HETATM    5  C   UNL     1      -6.740   7.867  71.130  1.00  0.00    -0.041 C  
BRANCH   5   6
HETATM    6  O   UNL     1      -7.534   6.935  70.388  1.00  0.00    -0.082 OA 
BRANCH   6   7
HETATM    7  C   UNL     1      -8.874   7.072  70.585  1.00  0.00    -0.150 C  
HETATM    8  C   UNL     1      -9.396   8.290  69.821  1.00  0.00    -0.158 C  
HETATM    9  O   UNL     1      -9.537   6.375  71.341  1.00  0.00    -0.162 OA 
HETATM   10  C   UNL     1      -9.257   8.157  68.304  1.00  0.00    -0.134 A  
HETATM   11  C   UNL     1     -10.827   8.690  70.292  1.00  0.00    -0.235 C  
HETATM   12  O   UNL     1     -11.774   7.656  70.002  1.00  0.00    -0.483 OA 
HETATM   13  C   UNL     1      -9.432   6.933  67.644  1.00  0.00    -0.133 A  
HETATM   14  C   UNL     1     -10.915   9.031  71.790  1.00  0.00    -0.443 C  
HETATM   15  C   UNL     1     -12.229   9.797  71.909  1.00  0.00    -0.378 C  
HETATM   16  H   UNL     1     -12.646   7.899  70.289  1.00  0.00     0.000 HD 
HETATM   17  C   UNL     1      -9.344   6.862  66.252  1.00  0.00    -0.144 A  
HETATM   18  C   UNL     1      -9.104   8.012  65.501  1.00  0.00     0.010 A  
HETATM   19  C   UNL     1     -12.294  10.646  70.649  1.00  0.00    -0.462 C  
HETATM   20  C   UNL     1     -11.337   9.995  69.646  1.00  0.00    -0.253 C  
HETATM   21  C   UNL     1      -8.924   9.232  66.142  1.00  0.00    -0.202 A  
HETATM   22  C   UNL     1      -8.981   9.300  67.533  1.00  0.00    -0.127 A  
ENDBRANCH   6   7
ENDBRANCH   5   6
ENDBRANCH   4   5
ENDBRANCH   2   4
TORSDOF 4
ENDMDL
MODEL      194
REMARK 921   NORMALIZED FREE ENERGY PREDICTED BY IDOCK:   -2.81 KCAL/MOL
REMARK 922        TOTAL FREE ENERGY PREDICTED BY IDOCK:   -3.78 KCAL/MOL
REMARK 923 INTER-LIGAND FREE ENERGY PREDICTED BY IDOCK:   -3.45 KCAL/MOL
REMARK 924 INTRA-LIGAND FREE ENERGY PREDICTED BY IDOCK:   -0.32 KCAL/MOL
REMARK 927      BINDING AFFINITY PREDICTED BY RF-SCORE:    0.00 PKD
ROOT
HETATM    1  C   UNL     1      -7.128   3.040  72.011  1.00  0.00    -0.038 C  
HETATM    2  N   UNL     1      -7.029   4.415  71.523  1.00  0.00    -0.037 NA 
HETATM    3  C   UNL     1      -5.619   4.806  71.434  1.00  0.00    -0.012 C  
ENDROOT
BRANCH   2   4
HETATM    4  C   UNL     1      -7.742   4.565  70.231  1.00  0.00    -0.056 C  
BRANCH   4   5
HETATM    5  C   UNL     1      -7.410   5.884  69.521  1.00  0.00    -0.075 C  
BRANCH   5   6
HETATM    6  O   UNL     1      -8.564   6.533  68.977  1.00  0.00    -0.124 OA 
BRANCH   6   7
HETATM    7  C   UNL     1      -8.740   7.808  69.420  1.00  0.00    -0.135 C  
HETATM    8  C   UNL     1     -10.171   7.997  69.925  1.00  0.00    -0.204 C  
HETATM    9  O   UNL     1      -7.899   8.693  69.333  1.00  0.00    -0.092 OA 
HETATM   10  C   UNL     1     -10.501   7.134  71.143  1.00  0.00    -0.225 A  
HETATM   11  C   UNL     1     -10.519   9.505  70.107  1.00  0.00    -0.255 C  
HETATM   12  O   UNL     1      -9.703  10.105  71.119  1.00  0.00    -0.014 OA 
HETATM   13  C   UNL     1      -9.558   6.866  72.144  1.00  0.00    -0.154 A  
HETATM   14  C   UNL     1     -10.388  10.332  68.815  1.00  0.00    -0.211 C  
HETATM   15  C   UNL     1     -11.182  11.600  69.117  1.00  0.00    -0.325 C  
HETATM   16  H   UNL     1      -9.915  11.025  71.229  1.00  0.00     0.000 HD 
HETATM   17  C   UNL     1      -9.911   6.113  73.266  1.00  0.00    -0.188 A  
HETATM   18  C   UNL     1     -11.214   5.637  73.413  1.00  0.00    -0.158 A  
HETATM   19  C   UNL     1     -12.380  11.120  69.922  1.00  0.00    -0.330 C  
HETATM   20  C   UNL     1     -11.996   9.748  70.482  1.00  0.00    -0.282 C  
HETATM   21  C   UNL     1     -12.159   5.891  72.427  1.00  0.00    -0.135 A  
HETATM   22  C   UNL     1     -11.800   6.616  71.292  1.00  0.00    -0.403 A  
ENDBRANCH   6   7
ENDBRANCH   5   6
ENDBRANCH   4   5
ENDBRANCH   2   4
TORSDOF 4
ENDMDL
MODEL      195
REMARK 921   NORMALIZED FREE ENERGY PREDICTED BY IDOCK:   -2.74 KCAL/MOL
REMARK 922        TOTAL FREE ENERGY PREDICTED BY IDOCK:   -3.69 KCAL/MOL
REMARK 923 INTER-LIGAND FREE ENERGY PREDICTED BY IDOCK:   -3.34 KCAL/MOL
REMARK 924 INTRA-LIGAND FREE ENERGY PREDICTED BY IDOCK:   -0.35 KCAL/MOL
REMARK 927      BINDING AFFINITY PREDICTED BY RF-SCORE:    0.00 PKD
ROOT
HETATM    1  C   UNL     1     -10.743   4.677  65.255  1.00  0.00    -0.065 C  
HETATM    2  N   UNL     1      -9.543   5.067  65.994  1.00  0.00    -0.160 NA 
HETATM    3  C   UNL     1      -8.682   3.895  66.186  1.00  0.00    -0.115 C  
ENDROOT
BRANCH   2   4
HETATM    4  C   UNL     1      -8.842   6.179  65.306  1.00  0.00     0.042 C  
BRANCH   4   5
HETATM    5  C   UNL     1      -9.096   7.539  65.970  1.00  0.00    -0.094 C  
BRANCH   5   6
HETATM    6  O   UNL     1      -8.030   7.949  66.832  1.00  0.00    -0.105 OA 
BRANCH   6   7
HETATM    7  C   UNL     1      -8.282   9.103  67.510  1.00  0.00    -0.108 C  
HETATM    8  C   UNL     1      -9.190   8.821  68.709  1.00  0.00    -0.141 C  
HETATM    9  O   UNL     1      -7.911  10.212  67.150  1.00  0.00    -0.108 OA 
HETATM   10  C   UNL     1      -8.546   7.911  69.754  1.00  0.00    -0.133 A  
HETATM   11  C   UNL     1      -9.785  10.136  69.296  1.00  0.00    -0.224 C  
HETATM   12  O   UNL     1      -8.755  10.980  69.822  1.00  0.00    -0.220 OA 
HETATM   13  C   UNL     1      -7.179   7.976  70.058  1.00  0.00    -0.061 A  
HETATM   14  C   UNL     1     -10.617  10.947  68.286  1.00  0.00    -0.223 C  
HETATM   15  C   UNL     1     -11.433  11.890  69.165  1.00  0.00    -0.356 C  
HETATM   16  H   UNL     1      -9.118  11.782  70.179  1.00  0.00     0.000 HD 
HETATM   17  C   UNL     1      -6.637   7.161  71.054  1.00  0.00    -0.044 A  
HETATM   18  C   UNL     1      -7.453   6.289  71.774  1.00  0.00    -0.094 A  
HETATM   19  C   UNL     1     -11.806  11.056  70.380  1.00  0.00    -0.460 C  
HETATM   20  C   UNL     1     -10.815   9.889  70.419  1.00  0.00    -0.380 C  
HETATM   21  C   UNL     1      -8.809   6.211  71.481  1.00  0.00    -0.135 A  
HETATM   22  C   UNL     1      -9.347   7.001  70.466  1.00  0.00    -0.159 A  
ENDBRANCH   6   7
ENDBRANCH   5   6
ENDBRANCH   4   5
ENDBRANCH   2   4
TORSDOF 4
ENDMDL
MODEL      196
REMARK 921   NORMALIZED FREE ENERGY PREDICTED BY IDOCK:   -2.73 KCAL/MOL
REMARK 922        TOTAL FREE ENERGY PREDICTED BY IDOCK:   -3.67 KCAL/MOL
REMARK 923 INTER-LIGAND FREE ENERGY PREDICTED BY IDOCK:   -3.52 KCAL/MOL
REMARK 924 INTRA-LIGAND FREE ENERGY PREDICTED BY IDOCK:   -0.15 KCAL/MOL
REMARK 927      BINDING AFFINITY PREDICTED BY RF-SCORE:    0.00 PKD
ROOT
HETATM    1  C   UNL     1      -7.947  10.060  64.446  1.00  0.00    -0.152 C  
HETATM    2  N   UNL     1      -7.147   9.707  65.617  1.00  0.00    -0.093 NA 
HETATM    3  C   UNL     1      -6.132  10.740  65.849  1.00  0.00    -0.128 C  
ENDROOT
BRANCH   2   4
HETATM    4  C   UNL     1      -8.017   9.491  66.800  1.00  0.00    -0.109 C  
BRANCH   4   5
HETATM    5  C   UNL     1      -9.511   9.563  66.457  1.00  0.00    -0.182 C  
BRANCH   5   6
HETATM    6  O   UNL     1     -10.302   8.629  67.199  1.00  0.00    -0.258 OA 
BRANCH   6   7
HETATM    7  C   UNL     1     -10.275   8.830  68.545  1.00  0.00    -0.195 C  
HETATM    8  C   UNL     1     -10.623   7.533  69.278  1.00  0.00    -0.215 C  
HETATM    9  O   UNL     1     -10.092   9.916  69.079  1.00  0.00    -0.172 OA 
HETATM   10  C   UNL     1      -9.604   6.417  69.050  1.00  0.00    -0.136 A  
HETATM   11  C   UNL     1     -10.949   7.795  70.779  1.00  0.00    -0.252 C  
HETATM   12  O   UNL     1      -9.805   8.299  71.475  1.00  0.00    -0.165 OA 
HETATM   13  C   UNL     1      -8.231   6.674  68.937  1.00  0.00    -0.120 A  
HETATM   14  C   UNL     1     -12.125   8.764  70.999  1.00  0.00    -0.262 C  
HETATM   15  C   UNL     1     -12.532   8.513  72.449  1.00  0.00    -0.416 C  
HETATM   16  H   UNL     1     -10.003   8.460  72.391  1.00  0.00     0.000 HD 
HETATM   17  C   UNL     1      -7.326   5.622  68.777  1.00  0.00    -0.083 A  
HETATM   18  C   UNL     1      -7.776   4.303  68.751  1.00  0.00    -0.066 A  
HETATM   19  C   UNL     1     -12.378   7.012  72.637  1.00  0.00     0.265 C  
HETATM   20  C   UNL     1     -11.441   6.535  71.523  1.00  0.00    -0.351 C  
HETATM   21  C   UNL     1      -9.135   4.033  68.858  1.00  0.00    -0.191 A  
HETATM   22  C   UNL     1     -10.043   5.083  68.986  1.00  0.00    -0.238 A  
ENDBRANCH   6   7
ENDBRANCH   5   6
ENDBRANCH   4   5
ENDBRANCH   2   4
TORSDOF 4
ENDMDL
MODEL      197
REMARK 921   NORMALIZED FREE ENERGY PREDICTED BY IDOCK:   -2.72 KCAL/MOL
REMARK 922        TOTAL FREE ENERGY PREDICTED BY IDOCK:   -3.66 KCAL/MOL
REMARK 923 INTER-LIGAND FREE ENERGY PREDICTED BY IDOCK:   -3.91 KCAL/MOL
REMARK 924 INTRA-LIGAND FREE ENERGY PREDICTED BY IDOCK:    0.25 KCAL/MOL
REMARK 927      BINDING AFFINITY PREDICTED BY RF-SCORE:    0.00 PKD
ROOT
HETATM    1  C   UNL     1      -9.073   7.605  66.231  1.00  0.00    -0.162 C  
HETATM    2  N   UNL     1      -8.347   8.607  65.452  1.00  0.00    -0.148 NA 
HETATM    3  C   UNL     1      -7.308   7.950  64.651  1.00  0.00    -0.084 C  
ENDROOT
BRANCH   2   4
HETATM    4  C   UNL     1      -9.283   9.405  64.623  1.00  0.00    -0.122 C  
BRANCH   4   5
HETATM    5  C   UNL     1      -8.911  10.893  64.573  1.00  0.00    -0.116 C  
BRANCH   5   6
HETATM    6  O   UNL     1      -9.925  11.742  65.119  1.00  0.00    -0.244 OA 
BRANCH   6   7
HETATM    7  C   UNL     1     -10.272  11.435  66.399  1.00  0.00    -0.230 C  
HETATM    8  C   UNL     1      -9.039  11.477  67.304  1.00  0.00    -0.164 C  
HETATM    9  O   UNL     1     -11.391  11.084  66.747  1.00  0.00    -0.317 OA 
HETATM   10  C   UNL     1      -8.417  12.869  67.414  1.00  0.00    -0.196 A  
HETATM   11  C   UNL     1      -9.315  10.798  68.679  1.00  0.00    -0.184 C  
HETATM   12  O   UNL     1     -10.318  11.508  69.413  1.00  0.00    -0.426 OA 
HETATM   13  C   UNL     1      -9.196  14.034  67.432  1.00  0.00    -0.216 A  
HETATM   14  C   UNL     1      -9.739   9.322  68.568  1.00  0.00    -0.162 C  
HETATM   15  C   UNL     1      -9.512   8.776  69.975  1.00  0.00    -0.176 C  
HETATM   16  H   UNL     1     -10.487  11.094  70.251  1.00  0.00     0.000 HD 
HETATM   17  C   UNL     1      -8.594  15.285  67.582  1.00  0.00    -0.178 A  
HETATM   18  C   UNL     1      -7.212  15.388  67.738  1.00  0.00    -0.182 A  
HETATM   19  C   UNL     1      -8.236   9.454  70.449  1.00  0.00    -0.214 C  
HETATM   20  C   UNL     1      -8.059  10.694  69.569  1.00  0.00    -0.056 C  
HETATM   21  C   UNL     1      -6.426  14.242  67.718  1.00  0.00    -0.181 A  
HETATM   22  C   UNL     1      -7.022  12.995  67.537  1.00  0.00    -0.155 A  
ENDBRANCH   6   7
ENDBRANCH   5   6
ENDBRANCH   4   5
ENDBRANCH   2   4
TORSDOF 4
ENDMDL
MODEL      198
REMARK 921   NORMALIZED FREE ENERGY PREDICTED BY IDOCK:   -2.72 KCAL/MOL
REMARK 922        TOTAL FREE ENERGY PREDICTED BY IDOCK:   -3.66 KCAL/MOL
REMARK 923 INTER-LIGAND FREE ENERGY PREDICTED BY IDOCK:   -3.30 KCAL/MOL
REMARK 924 INTRA-LIGAND FREE ENERGY PREDICTED BY IDOCK:   -0.36 KCAL/MOL
REMARK 927      BINDING AFFINITY PREDICTED BY RF-SCORE:    0.00 PKD
ROOT
HETATM    1  C   UNL     1      -7.853   4.999  64.569  1.00  0.00    -0.093 C  
HETATM    2  N   UNL     1      -6.921   5.837  65.323  1.00  0.00    -0.062 NA 
HETATM    3  C   UNL     1      -5.545   5.516  64.932  1.00  0.00    -0.017 C  
ENDROOT
BRANCH   2   4
HETATM    4  C   UNL     1      -7.242   7.273  65.141  1.00  0.00    -0.070 C  
BRANCH   4   5
HETATM    5  C   UNL     1      -8.750   7.531  65.008  1.00  0.00     0.196 C  
BRANCH   5   6
HETATM    6  O   UNL     1      -9.341   8.032  66.211  1.00  0.00    -0.195 OA 
BRANCH   6   7
HETATM    7  C   UNL     1      -9.388   9.391  66.279  1.00  0.00    -0.198 C  
HETATM    8  C   UNL     1      -9.813   9.833  67.680  1.00  0.00    -0.202 C  
HETATM    9  O   UNL     1      -9.208  10.137  65.326  1.00  0.00    -0.177 OA 
HETATM   10  C   UNL     1      -8.811   9.443  68.767  1.00  0.00    -0.132 A  
HETATM   11  C   UNL     1     -10.219  11.338  67.705  1.00  0.00    -0.180 C  
HETATM   12  O   UNL     1      -9.105  12.179  67.390  1.00  0.00    -0.170 OA 
HETATM   13  C   UNL     1      -7.428   9.456  68.544  1.00  0.00    -0.080 A  
HETATM   14  C   UNL     1     -11.381  11.683  66.755  1.00  0.00    -0.354 C  
HETATM   15  C   UNL     1     -11.878  13.031  67.270  1.00  0.00    -0.419 C  
HETATM   16  H   UNL     1      -9.353  13.096  67.405  1.00  0.00     0.000 HD 
HETATM   17  C   UNL     1      -6.543   9.139  69.577  1.00  0.00    -0.043 A  
HETATM   18  C   UNL     1      -7.025   8.830  70.848  1.00  0.00    -0.072 A  
HETATM   19  C   UNL     1     -11.775  12.926  68.783  1.00  0.00    -0.363 C  
HETATM   20  C   UNL     1     -10.787  11.791  69.067  1.00  0.00    -0.239 C  
HETATM   21  C   UNL     1      -8.394   8.809  71.083  1.00  0.00    -0.219 A  
HETATM   22  C   UNL     1      -9.280   9.094  70.046  1.00  0.00    -0.209 A  
ENDBRANCH   6   7
ENDBRANCH   5   6
ENDBRANCH   4   5
ENDBRANCH   2   4
TORSDOF 4
ENDMDL
MODEL      199
REMARK 921   NORMALIZED FREE ENERGY PREDICTED BY IDOCK:   -2.71 KCAL/MOL
REMARK 922        TOTAL FREE ENERGY PREDICTED BY IDOCK:   -3.65 KCAL/MOL
REMARK 923 INTER-LIGAND FREE ENERGY PREDICTED BY IDOCK:   -3.30 KCAL/MOL
REMARK 924 INTRA-LIGAND FREE ENERGY PREDICTED BY IDOCK:   -0.35 KCAL/MOL
REMARK 927      BINDING AFFINITY PREDICTED BY RF-SCORE:    0.00 PKD
ROOT
HETATM    1  C   UNL     1     -10.376   7.704  73.476  1.00  0.00    -0.247 C  
HETATM    2  N   UNL     1     -10.930   8.329  72.275  1.00  0.00    -0.323 NA 
HETATM    3  C   UNL     1      -9.871   9.053  71.565  1.00  0.00    -0.310 C  
ENDROOT
BRANCH   2   4
HETATM    4  C   UNL     1     -11.598   7.318  71.420  1.00  0.00    -0.276 C  
BRANCH   4   5
HETATM    5  C   UNL     1     -10.653   6.188  70.990  1.00  0.00    -0.246 C  
BRANCH   5   6
HETATM    6  O   UNL     1     -11.141   5.446  69.868  1.00  0.00    -0.164 OA 
BRANCH   6   7
HETATM    7  C   UNL     1     -10.623   5.846  68.674  1.00  0.00    -0.256 C  
HETATM    8  C   UNL     1      -9.095   5.872  68.746  1.00  0.00    -0.116 C  
HETATM    9  O   UNL     1     -11.292   6.219  67.720  1.00  0.00    -0.250 OA 
HETATM   10  C   UNL     1      -8.476   4.493  68.973  1.00  0.00    -0.090 A  
HETATM   11  C   UNL     1      -8.480   6.650  67.543  1.00  0.00    -0.121 C  
HETATM   12  O   UNL     1      -8.766   5.995  66.303  1.00  0.00    -0.128 OA 
HETATM   13  C   UNL     1      -9.015   3.332  68.403  1.00  0.00    -0.184 A  
HETATM   14  C   UNL     1      -8.949   8.113  67.446  1.00  0.00    -0.145 C  
HETATM   15  C   UNL     1      -7.916   8.762  66.528  1.00  0.00    -0.103 C  
HETATM   16  H   UNL     1      -8.391   6.469  65.570  1.00  0.00     0.000 HD 
HETATM   17  C   UNL     1      -8.393   2.096  68.596  1.00  0.00    -0.079 A  
HETATM   18  C   UNL     1      -7.216   2.007  69.338  1.00  0.00    -0.039 A  
HETATM   19  C   UNL     1      -6.595   8.123  66.924  1.00  0.00    -0.057 C  
HETATM   20  C   UNL     1      -6.950   6.821  67.649  1.00  0.00    -0.083 C  
HETATM   21  C   UNL     1      -6.672   3.150  69.912  1.00  0.00    -0.034 A  
HETATM   22  C   UNL     1      -7.308   4.379  69.748  1.00  0.00    -0.050 A  
ENDBRANCH   6   7
ENDBRANCH   5   6
ENDBRANCH   4   5
ENDBRANCH   2   4
TORSDOF 4
ENDMDL
MODEL      200
REMARK 921   NORMALIZED FREE ENERGY PREDICTED BY IDOCK:   -2.70 KCAL/MOL
REMARK 922        TOTAL FREE ENERGY PREDICTED BY IDOCK:   -3.64 KCAL/MOL
REMARK 923 INTER-LIGAND FREE ENERGY PREDICTED BY IDOCK:   -3.30 KCAL/MOL
REMARK 924 INTRA-LIGAND FREE ENERGY PREDICTED BY IDOCK:   -0.33 KCAL/MOL
REMARK 927      BINDING AFFINITY PREDICTED BY RF-SCORE:    0.00 PKD
ROOT
HETATM    1  C   UNL     1      -5.628  14.342  72.615  1.00  0.00    -0.012 C  
HETATM    2  N   UNL     1      -5.450  14.179  71.173  1.00  0.00    -0.168 NA 
HETATM    3  C   UNL     1      -5.637  12.770  70.810  1.00  0.00    -0.173 C  
ENDROOT
BRANCH   2   4
HETATM    4  C   UNL     1      -6.361  15.083  70.428  1.00  0.00    -0.071 C  
BRANCH   4   5
HETATM    5  C   UNL     1      -7.599  14.358  69.883  1.00  0.00     0.342 C  
BRANCH   5   6
HETATM    6  O   UNL     1      -8.483  15.223  69.162  1.00  0.00    -0.203 OA 
BRANCH   6   7
HETATM    7  C   UNL     1      -9.141  14.611  68.140  1.00  0.00    -0.187 C  
HETATM    8  C   UNL     1     -10.003  13.468  68.678  1.00  0.00    -0.149 C  
HETATM    9  O   UNL     1      -8.986  14.882  66.957  1.00  0.00    -0.209 OA 
HETATM   10  C   UNL     1     -11.121  13.939  69.608  1.00  0.00    -0.126 A  
HETATM   11  C   UNL     1     -10.488  12.529  67.532  1.00  0.00    -0.219 C  
HETATM   12  O   UNL     1     -11.348  13.225  66.624  1.00  0.00    -0.301 OA 
HETATM   13  C   UNL     1     -11.810  15.140  69.396  1.00  0.00    -0.357 A  
HETATM   14  C   UNL     1      -9.342  11.887  66.730  1.00  0.00    -0.204 C  
HETATM   15  C   UNL     1     -10.015  10.719  66.013  1.00  0.00    -0.295 C  
HETATM   16  H   UNL     1     -11.644  12.653  65.925  1.00  0.00     0.000 HD 
HETATM   17  C   UNL     1     -12.858  15.513  70.240  1.00  0.00    -0.239 A  
HETATM   18  C   UNL     1     -13.245  14.683  71.291  1.00  0.00    -0.432 A  
HETATM   19  C   UNL     1     -11.006  10.167  67.025  1.00  0.00    -0.162 C  
HETATM   20  C   UNL     1     -11.244  11.285  68.044  1.00  0.00    -0.351 C  
HETATM   21  C   UNL     1     -12.568  13.491  71.517  1.00  0.00    -0.358 A  
HETATM   22  C   UNL     1     -11.502  13.132  70.694  1.00  0.00     0.571 A  
ENDBRANCH   6   7
ENDBRANCH   5   6
ENDBRANCH   4   5
ENDBRANCH   2   4
TORSDOF 4
ENDMDL
MODEL      201
REMARK 921   NORMALIZED FREE ENERGY PREDICTED BY IDOCK:   -2.70 KCAL/MOL
REMARK 922        TOTAL FREE ENERGY PREDICTED BY IDOCK:   -3.64 KCAL/MOL
REMARK 923 INTER-LIGAND FREE ENERGY PREDICTED BY IDOCK:   -3.24 KCAL/MOL
REMARK 924 INTRA-LIGAND FREE ENERGY PREDICTED BY IDOCK:   -0.39 KCAL/MOL
REMARK 927      BINDING AFFINITY PREDICTED BY RF-SCORE:    0.00 PKD
ROOT
HETATM    1  C   UNL     1     -13.563   8.879  71.429  1.00  0.00    -0.264 C  
HETATM    2  N   UNL     1     -12.330   8.170  71.088  1.00  0.00    -0.262 NA 
HETATM    3  C   UNL     1     -11.184   8.860  71.690  1.00  0.00    -0.345 C  
ENDROOT
BRANCH   2   4
HETATM    4  C   UNL     1     -12.414   6.747  71.497  1.00  0.00    -0.341 C  
BRANCH   4   5
HETATM    5  C   UNL     1     -11.047   6.050  71.501  1.00  0.00    -0.276 C  
BRANCH   5   6
HETATM    6  O   UNL     1     -10.873   5.149  70.403  1.00  0.00    -0.160 OA 
BRANCH   6   7
HETATM    7  C   UNL     1     -10.228   5.696  69.337  1.00  0.00    -0.245 C  
HETATM    8  C   UNL     1      -9.003   6.482  69.810  1.00  0.00    -0.142 C  
HETATM    9  O   UNL     1     -10.630   5.642  68.183  1.00  0.00    -0.216 OA 
HETATM   10  C   UNL     1      -7.942   5.605  70.474  1.00  0.00    -0.104 A  
HETATM   11  C   UNL     1      -8.446   7.404  68.684  1.00  0.00    -0.129 C  
HETATM   12  O   UNL     1      -7.968   6.635  67.575  1.00  0.00    -0.111 OA 
HETATM   13  C   UNL     1      -7.667   4.304  70.032  1.00  0.00    -0.052 A  
HETATM   14  C   UNL     1      -9.466   8.434  68.165  1.00  0.00    -0.148 C  
HETATM   15  C   UNL     1      -8.601   9.466  67.446  1.00  0.00    -0.125 C  
HETATM   16  H   UNL     1      -7.629   7.198  66.888  1.00  0.00     0.000 HD 
HETATM   17  C   UNL     1      -6.656   3.551  70.634  1.00  0.00    -0.032 A  
HETATM   18  C   UNL     1      -5.894   4.094  71.667  1.00  0.00    -0.012 A  
HETATM   19  C   UNL     1      -7.353   9.588  68.305  1.00  0.00    -0.077 C  
HETATM   20  C   UNL     1      -7.297   8.318  69.159  1.00  0.00    -0.081 C  
HETATM   21  C   UNL     1      -6.157   5.381  72.119  1.00  0.00    -0.034 A  
HETATM   22  C   UNL     1      -7.186   6.123  71.541  1.00  0.00    -0.087 A  
ENDBRANCH   6   7
ENDBRANCH   5   6
ENDBRANCH   4   5
ENDBRANCH   2   4
TORSDOF 4
ENDMDL
MODEL      202
REMARK 921   NORMALIZED FREE ENERGY PREDICTED BY IDOCK:   -2.70 KCAL/MOL
REMARK 922        TOTAL FREE ENERGY PREDICTED BY IDOCK:   -3.63 KCAL/MOL
REMARK 923 INTER-LIGAND FREE ENERGY PREDICTED BY IDOCK:   -3.23 KCAL/MOL
REMARK 924 INTRA-LIGAND FREE ENERGY PREDICTED BY IDOCK:   -0.40 KCAL/MOL
REMARK 927      BINDING AFFINITY PREDICTED BY RF-SCORE:    0.00 PKD
ROOT
HETATM    1  C   UNL     1     -11.935  12.418  65.808  1.00  0.00    -0.372 C  
HETATM    2  N   UNL     1     -11.195  12.527  67.065  1.00  0.00    -0.284 NA 
HETATM    3  C   UNL     1     -11.738  13.633  67.860  1.00  0.00    -0.360 C  
ENDROOT
BRANCH   2   4
HETATM    4  C   UNL     1     -11.216  11.238  67.798  1.00  0.00    -0.291 C  
BRANCH   4   5
HETATM    5  C   UNL     1     -10.848  10.043  66.907  1.00  0.00    -0.082 C  
BRANCH   5   6
HETATM    6  O   UNL     1      -9.502  10.098  66.424  1.00  0.00    -0.164 OA 
BRANCH   6   7
HETATM    7  C   UNL     1      -8.565   9.805  67.368  1.00  0.00    -0.128 C  
HETATM    8  C   UNL     1      -8.700   8.346  67.808  1.00  0.00    -0.137 C  
HETATM    9  O   UNL     1      -7.795  10.622  67.855  1.00  0.00    -0.102 OA 
HETATM   10  C   UNL     1      -8.419   7.348  66.685  1.00  0.00    -0.124 A  
HETATM   11  C   UNL     1      -7.900   8.068  69.116  1.00  0.00    -0.108 C  
HETATM   12  O   UNL     1      -6.495   8.248  68.911  1.00  0.00    -0.049 OA 
HETATM   13  C   UNL     1      -7.436   7.577  65.713  1.00  0.00    -0.079 A  
HETATM   14  C   UNL     1      -8.338   8.938  70.308  1.00  0.00    -0.153 C  
HETATM   15  C   UNL     1      -7.770   8.202  71.519  1.00  0.00    -0.102 C  
HETATM   16  H   UNL     1      -6.007   8.079  69.709  1.00  0.00     0.000 HD 
HETATM   17  C   UNL     1      -7.176   6.618  64.731  1.00  0.00    -0.071 A  
HETATM   18  C   UNL     1      -7.876   5.412  64.721  1.00  0.00    -0.103 A  
HETATM   19  C   UNL     1      -7.949   6.728  71.192  1.00  0.00    -0.103 C  
HETATM   20  C   UNL     1      -8.120   6.645  69.672  1.00  0.00    -0.126 C  
HETATM   21  C   UNL     1      -8.856   5.173  65.676  1.00  0.00    -0.146 A  
HETATM   22  C   UNL     1      -9.139   6.140  66.638  1.00  0.00    -0.146 A  
ENDBRANCH   6   7
ENDBRANCH   5   6
ENDBRANCH   4   5
ENDBRANCH   2   4
TORSDOF 4
ENDMDL
MODEL      203
REMARK 921   NORMALIZED FREE ENERGY PREDICTED BY IDOCK:   -2.68 KCAL/MOL
REMARK 922        TOTAL FREE ENERGY PREDICTED BY IDOCK:   -3.61 KCAL/MOL
REMARK 923 INTER-LIGAND FREE ENERGY PREDICTED BY IDOCK:   -3.11 KCAL/MOL
REMARK 924 INTRA-LIGAND FREE ENERGY PREDICTED BY IDOCK:   -0.50 KCAL/MOL
REMARK 927      BINDING AFFINITY PREDICTED BY RF-SCORE:    0.00 PKD
ROOT
HETATM    1  C   UNL     1     -10.546   9.028  72.237  1.00  0.00     0.009 C  
HETATM    2  N   UNL     1     -11.575   9.477  71.298  1.00  0.00    -0.344 NA 
HETATM    3  C   UNL     1     -10.970  10.349  70.286  1.00  0.00    -0.284 C  
ENDROOT
BRANCH   2   4
HETATM    4  C   UNL     1     -12.280   8.317  70.701  1.00  0.00     0.113 C  
BRANCH   4   5
HETATM    5  C   UNL     1     -12.049   7.016  71.481  1.00  0.00    -0.353 C  
BRANCH   5   6
HETATM    6  O   UNL     1     -11.905   5.872  70.634  1.00  0.00     0.036 OA 
BRANCH   6   7
HETATM    7  C   UNL     1     -10.856   5.955  69.770  1.00  0.00    -0.377 C  
HETATM    8  C   UNL     1      -9.537   5.982  70.544  1.00  0.00    -0.198 C  
HETATM    9  O   UNL     1     -10.967   6.084  68.558  1.00  0.00    -0.296 OA 
HETATM   10  C   UNL     1      -9.270   4.697  71.329  1.00  0.00    -0.191 A  
HETATM   11  C   UNL     1      -8.351   6.427  69.636  1.00  0.00    -0.126 C  
HETATM   12  O   UNL     1      -8.125   5.484  68.583  1.00  0.00    -0.100 OA 
HETATM   13  C   UNL     1      -9.635   3.436  70.839  1.00  0.00    -0.239 A  
HETATM   14  C   UNL     1      -8.535   7.823  69.015  1.00  0.00    -0.132 C  
HETATM   15  C   UNL     1      -7.125   8.210  68.575  1.00  0.00    -0.076 C  
HETATM   16  H   UNL     1      -7.402   5.755  68.029  1.00  0.00     0.000 HD 
HETATM   17  C   UNL     1      -9.330   2.281  71.564  1.00  0.00    -0.191 A  
HETATM   18  C   UNL     1      -8.639   2.369  72.771  1.00  0.00    -0.068 A  
HETATM   19  C   UNL     1      -6.220   7.677  69.674  1.00  0.00    -0.031 C  
HETATM   20  C   UNL     1      -7.027   6.602  70.409  1.00  0.00    -0.063 C  
HETATM   21  C   UNL     1      -8.274   3.613  73.271  1.00  0.00    -0.080 A  
HETATM   22  C   UNL     1      -8.604   4.769  72.565  1.00  0.00    -0.116 A  
ENDBRANCH   6   7
ENDBRANCH   5   6
ENDBRANCH   4   5
ENDBRANCH   2   4
TORSDOF 4
ENDMDL
MODEL      204
REMARK 921   NORMALIZED FREE ENERGY PREDICTED BY IDOCK:   -2.66 KCAL/MOL
REMARK 922        TOTAL FREE ENERGY PREDICTED BY IDOCK:   -3.59 KCAL/MOL
REMARK 923 INTER-LIGAND FREE ENERGY PREDICTED BY IDOCK:   -3.76 KCAL/MOL
REMARK 924 INTRA-LIGAND FREE ENERGY PREDICTED BY IDOCK:    0.17 KCAL/MOL
REMARK 927      BINDING AFFINITY PREDICTED BY RF-SCORE:    0.00 PKD
ROOT
HETATM    1  C   UNL     1     -11.515   6.123  70.772  1.00  0.00    -0.251 C  
HETATM    2  N   UNL     1     -11.570   6.378  72.211  1.00  0.00    -0.298 NA 
HETATM    3  C   UNL     1     -11.534   5.104  72.937  1.00  0.00    -0.254 C  
ENDROOT
BRANCH   2   4
HETATM    4  C   UNL     1     -10.480   7.296  72.621  1.00  0.00    -0.246 C  
BRANCH   4   5
HETATM    5  C   UNL     1     -10.730   8.746  72.184  1.00  0.00    -0.313 C  
BRANCH   5   6
HETATM    6  O   UNL     1      -9.535   9.428  71.794  1.00  0.00    -0.242 OA 
BRANCH   6   7
HETATM    7  C   UNL     1      -8.598   8.620  71.227  1.00  0.00    -0.187 C  
HETATM    8  C   UNL     1      -9.065   8.160  69.845  1.00  0.00    -0.151 C  
HETATM    9  O   UNL     1      -7.578   8.244  71.789  1.00  0.00    -0.083 OA 
HETATM   10  C   UNL     1      -9.217   9.307  68.846  1.00  0.00    -0.143 A  
HETATM   11  C   UNL     1      -8.207   6.971  69.317  1.00  0.00    -0.125 C  
HETATM   12  O   UNL     1      -6.845   7.366  69.119  1.00  0.00    -0.057 OA 
HETATM   13  C   UNL     1      -8.345  10.404  68.834  1.00  0.00    -0.138 A  
HETATM   14  C   UNL     1      -8.232   5.734  70.233  1.00  0.00    -0.110 C  
HETATM   15  C   UNL     1      -7.731   4.609  69.331  1.00  0.00    -0.059 C  
HETATM   16  H   UNL     1      -6.322   6.641  68.797  1.00  0.00     0.000 HD 
HETATM   17  C   UNL     1      -8.487  11.409  67.874  1.00  0.00    -0.139 A  
HETATM   18  C   UNL     1      -9.483  11.320  66.902  1.00  0.00    -0.193 A  
HETATM   19  C   UNL     1      -8.345   4.904  67.972  1.00  0.00    -0.099 C  
HETATM   20  C   UNL     1      -8.731   6.386  67.989  1.00  0.00    -0.115 C  
HETATM   21  C   UNL     1     -10.357  10.241  66.905  1.00  0.00    -0.298 A  
HETATM   22  C   UNL     1     -10.237   9.253  67.880  1.00  0.00    -0.263 A  
ENDBRANCH   6   7
ENDBRANCH   5   6
ENDBRANCH   4   5
ENDBRANCH   2   4
TORSDOF 4
ENDMDL
MODEL      205
REMARK 921   NORMALIZED FREE ENERGY PREDICTED BY IDOCK:   -2.64 KCAL/MOL
REMARK 922        TOTAL FREE ENERGY PREDICTED BY IDOCK:   -3.56 KCAL/MOL
REMARK 923 INTER-LIGAND FREE ENERGY PREDICTED BY IDOCK:   -3.42 KCAL/MOL
REMARK 924 INTRA-LIGAND FREE ENERGY PREDICTED BY IDOCK:   -0.14 KCAL/MOL
REMARK 927      BINDING AFFINITY PREDICTED BY RF-SCORE:    0.00 PKD
ROOT
HETATM    1  C   UNL     1     -12.141  13.592  67.034  1.00  0.00    -0.354 C  
HETATM    2  N   UNL     1     -12.182  12.270  66.409  1.00  0.00    -0.536 NA 
HETATM    3  C   UNL     1     -11.893  12.394  64.976  1.00  0.00    -0.388 C  
ENDROOT
BRANCH   2   4
HETATM    4  C   UNL     1     -11.256  11.337  67.096  1.00  0.00    -0.275 C  
BRANCH   4   5
HETATM    5  C   UNL     1     -11.215  11.554  68.615  1.00  0.00    -0.248 C  
BRANCH   5   6
HETATM    6  O   UNL     1      -9.885  11.659  69.130  1.00  0.00    -0.019 OA 
BRANCH   6   7
HETATM    7  C   UNL     1      -9.037  10.699  68.670  1.00  0.00    -0.170 C  
HETATM    8  C   UNL     1      -8.065  11.299  67.652  1.00  0.00    -0.119 C  
HETATM    9  O   UNL     1      -9.112   9.513  68.961  1.00  0.00    -0.136 OA 
HETATM   10  C   UNL     1      -7.136  12.355  68.253  1.00  0.00    -0.098 A  
HETATM   11  C   UNL     1      -7.324  10.190  66.847  1.00  0.00    -0.092 C  
HETATM   12  O   UNL     1      -6.496   9.396  67.704  1.00  0.00    -0.061 OA 
HETATM   13  C   UNL     1      -6.628  12.246  69.554  1.00  0.00    -0.052 A  
HETATM   14  C   UNL     1      -8.266   9.254  66.068  1.00  0.00    -0.111 C  
HETATM   15  C   UNL     1      -7.347   8.585  65.049  1.00  0.00    -0.086 C  
HETATM   16  H   UNL     1      -6.044   8.719  67.213  1.00  0.00     0.000 HD 
HETATM   17  C   UNL     1      -5.743  13.207  70.050  1.00  0.00    -0.131 A  
HETATM   18  C   UNL     1      -5.339  14.273  69.247  1.00  0.00    -0.081 A  
HETATM   19  C   UNL     1      -6.390   9.684  64.616  1.00  0.00    -0.091 C  
HETATM   20  C   UNL     1      -6.437  10.750  65.715  1.00  0.00    -0.074 C  
HETATM   21  C   UNL     1      -5.838  14.396  67.957  1.00  0.00    -0.149 A  
HETATM   22  C   UNL     1      -6.745  13.456  67.471  1.00  0.00    -0.151 A  
ENDBRANCH   6   7
ENDBRANCH   5   6
ENDBRANCH   4   5
ENDBRANCH   2   4
TORSDOF 4
ENDMDL
MODEL      206
REMARK 921   NORMALIZED FREE ENERGY PREDICTED BY IDOCK:   -2.64 KCAL/MOL
REMARK 922        TOTAL FREE ENERGY PREDICTED BY IDOCK:   -3.56 KCAL/MOL
REMARK 923 INTER-LIGAND FREE ENERGY PREDICTED BY IDOCK:   -3.14 KCAL/MOL
REMARK 924 INTRA-LIGAND FREE ENERGY PREDICTED BY IDOCK:   -0.42 KCAL/MOL
REMARK 927      BINDING AFFINITY PREDICTED BY RF-SCORE:    0.00 PKD
ROOT
HETATM    1  C   UNL     1      -6.272  14.023  70.024  1.00  0.00    -0.142 C  
HETATM    2  N   UNL     1      -5.405  12.861  69.837  1.00  0.00    -0.086 NA 
HETATM    3  C   UNL     1      -5.299  12.118  71.097  1.00  0.00    -0.089 C  
ENDROOT
BRANCH   2   4
HETATM    4  C   UNL     1      -5.894  12.017  68.719  1.00  0.00    -0.051 C  
BRANCH   4   5
HETATM    5  C   UNL     1      -6.937  10.985  69.169  1.00  0.00    -0.104 C  
BRANCH   5   6
HETATM    6  O   UNL     1      -6.592   9.644  68.806  1.00  0.00    -0.047 OA 
BRANCH   6   7
HETATM    7  C   UNL     1      -6.803   8.733  69.796  1.00  0.00    -0.046 C  
HETATM    8  C   UNL     1      -8.298   8.445  69.937  1.00  0.00    -0.124 C  
HETATM    9  O   UNL     1      -5.926   8.289  70.524  1.00  0.00    -0.032 OA 
HETATM   10  C   UNL     1      -8.908   7.791  68.697  1.00  0.00    -0.131 A  
HETATM   11  C   UNL     1      -8.613   7.695  71.267  1.00  0.00    -0.120 C  
HETATM   12  O   UNL     1      -7.999   6.402  71.288  1.00  0.00    -0.109 OA 
HETATM   13  C   UNL     1      -8.203   6.858  67.924  1.00  0.00    -0.114 A  
HETATM   14  C   UNL     1      -8.184   8.464  72.529  1.00  0.00    -0.198 C  
HETATM   15  C   UNL     1      -8.970   7.786  73.648  1.00  0.00    -0.335 C  
HETATM   16  H   UNL     1      -8.190   5.945  72.099  1.00  0.00     0.000 HD 
HETATM   17  C   UNL     1      -8.811   6.247  66.826  1.00  0.00    -0.126 A  
HETATM   18  C   UNL     1     -10.134   6.539  66.500  1.00  0.00    -0.144 A  
HETATM   19  C   UNL     1     -10.327   7.480  73.034  1.00  0.00    -0.376 C  
HETATM   20  C   UNL     1     -10.124   7.507  71.516  1.00  0.00    -0.201 C  
HETATM   21  C   UNL     1     -10.845   7.465  67.254  1.00  0.00    -0.326 A  
HETATM   22  C   UNL     1     -10.230   8.100  68.332  1.00  0.00    -0.240 A  
ENDBRANCH   6   7
ENDBRANCH   5   6
ENDBRANCH   4   5
ENDBRANCH   2   4
TORSDOF 4
ENDMDL
MODEL      207
REMARK 921   NORMALIZED FREE ENERGY PREDICTED BY IDOCK:   -2.64 KCAL/MOL
REMARK 922        TOTAL FREE ENERGY PREDICTED BY IDOCK:   -3.56 KCAL/MOL
REMARK 923 INTER-LIGAND FREE ENERGY PREDICTED BY IDOCK:   -3.50 KCAL/MOL
REMARK 924 INTRA-LIGAND FREE ENERGY PREDICTED BY IDOCK:   -0.06 KCAL/MOL
REMARK 927      BINDING AFFINITY PREDICTED BY RF-SCORE:    0.00 PKD
ROOT
HETATM    1  C   UNL     1     -11.996  13.556  63.403  1.00  0.00    -0.256 C  
HETATM    2  N   UNL     1     -11.568  13.674  64.797  1.00  0.00    -0.341 NA 
HETATM    3  C   UNL     1     -10.327  12.919  64.996  1.00  0.00    -0.315 C  
ENDROOT
BRANCH   2   4
HETATM    4  C   UNL     1     -11.435  15.100  65.184  1.00  0.00    -0.304 C  
BRANCH   4   5
HETATM    5  C   UNL     1     -10.004  15.469  65.601  1.00  0.00    -0.360 C  
BRANCH   5   6
HETATM    6  O   UNL     1      -9.849  15.599  67.017  1.00  0.00    -0.228 OA 
BRANCH   6   7
HETATM    7  C   UNL     1      -9.239  14.533  67.605  1.00  0.00    -0.195 C  
HETATM    8  C   UNL     1      -7.726  14.611  67.394  1.00  0.00    -0.226 C  
HETATM    9  O   UNL     1      -9.831  13.605  68.139  1.00  0.00    -0.223 OA 
HETATM   10  C   UNL     1      -7.082  15.823  68.067  1.00  0.00    -0.134 A  
HETATM   11  C   UNL     1      -7.032  13.257  67.733  1.00  0.00    -0.153 C  
HETATM   12  O   UNL     1      -7.180  12.933  69.119  1.00  0.00    -0.268 OA 
HETATM   13  C   UNL     1      -7.526  16.311  69.303  1.00  0.00    -0.217 A  
HETATM   14  C   UNL     1      -7.541  12.071  66.894  1.00  0.00    -0.060 C  
HETATM   15  C   UNL     1      -6.453  11.015  67.065  1.00  0.00    -0.092 C  
HETATM   16  H   UNL     1      -6.757  12.108  69.326  1.00  0.00     0.000 HD 
HETATM   17  C   UNL     1      -6.880  17.392  69.909  1.00  0.00     0.405 A  
HETATM   18  C   UNL     1      -5.774  17.982  69.301  1.00  0.00    -0.213 A  
HETATM   19  C   UNL     1      -5.151  11.801  67.063  1.00  0.00    -0.109 C  
HETATM   20  C   UNL     1      -5.524  13.247  67.401  1.00  0.00     0.114 C  
HETATM   21  C   UNL     1      -5.325  17.512  68.073  1.00  0.00    -0.134 A  
HETATM   22  C   UNL     1      -5.986  16.454  67.452  1.00  0.00    -0.193 A  
ENDBRANCH   6   7
ENDBRANCH   5   6
ENDBRANCH   4   5
ENDBRANCH   2   4
TORSDOF 4
ENDMDL
MODEL      208
REMARK 921   NORMALIZED FREE ENERGY PREDICTED BY IDOCK:   -2.63 KCAL/MOL
REMARK 922        TOTAL FREE ENERGY PREDICTED BY IDOCK:   -3.55 KCAL/MOL
REMARK 923 INTER-LIGAND FREE ENERGY PREDICTED BY IDOCK:   -3.07 KCAL/MOL
REMARK 924 INTRA-LIGAND FREE ENERGY PREDICTED BY IDOCK:   -0.48 KCAL/MOL
REMARK 927      BINDING AFFINITY PREDICTED BY RF-SCORE:    0.00 PKD
ROOT
HETATM    1  C   UNL     1      -9.944  10.294  69.533  1.00  0.00    -0.228 C  
HETATM    2  N   UNL     1     -10.024   9.168  68.603  1.00  0.00    -0.165 NA 
HETATM    3  C   UNL     1     -10.745   9.579  67.394  1.00  0.00    -0.227 C  
ENDROOT
BRANCH   2   4
HETATM    4  C   UNL     1      -8.671   8.638  68.305  1.00  0.00    -0.142 C  
BRANCH   4   5
HETATM    5  C   UNL     1      -8.407   7.281  68.971  1.00  0.00    -0.126 C  
BRANCH   5   6
HETATM    6  O   UNL     1      -9.586   6.481  69.102  1.00  0.00    -0.135 OA 
BRANCH   6   7
HETATM    7  C   UNL     1      -9.843   5.695  68.020  1.00  0.00    -0.133 C  
HETATM    8  C   UNL     1      -8.673   4.741  67.773  1.00  0.00    -0.107 C  
HETATM    9  O   UNL     1     -10.826   5.809  67.300  1.00  0.00    -0.272 OA 
HETATM   10  C   UNL     1      -8.456   3.744  68.911  1.00  0.00    -0.101 A  
HETATM   11  C   UNL     1      -8.761   4.082  66.364  1.00  0.00    -0.116 C  
HETATM   12  O   UNL     1      -9.924   3.255  66.252  1.00  0.00    -0.397 OA 
HETATM   13  C   UNL     1      -9.524   3.187  69.628  1.00  0.00    -0.191 A  
HETATM   14  C   UNL     1      -8.765   5.095  65.204  1.00  0.00    -0.151 C  
HETATM   15  C   UNL     1      -8.405   4.249  63.986  1.00  0.00    -0.103 C  
HETATM   16  H   UNL     1      -9.978   2.853  65.392  1.00  0.00     0.000 HD 
HETATM   17  C   UNL     1      -9.287   2.243  70.630  1.00  0.00    -0.205 A  
HETATM   18  C   UNL     1      -7.987   1.826  70.912  1.00  0.00    -0.043 A  
HETATM   19  C   UNL     1      -7.366   3.263  64.496  1.00  0.00    -0.070 C  
HETATM   20  C   UNL     1      -7.529   3.219  66.018  1.00  0.00    -0.073 C  
HETATM   21  C   UNL     1      -6.918   2.372  70.212  1.00  0.00    -0.033 A  
HETATM   22  C   UNL     1      -7.149   3.337  69.234  1.00  0.00    -0.045 A  
ENDBRANCH   6   7
ENDBRANCH   5   6
ENDBRANCH   4   5
ENDBRANCH   2   4
TORSDOF 4
ENDMDL
MODEL      209
REMARK 921   NORMALIZED FREE ENERGY PREDICTED BY IDOCK:   -2.62 KCAL/MOL
REMARK 922        TOTAL FREE ENERGY PREDICTED BY IDOCK:   -3.54 KCAL/MOL
REMARK 923 INTER-LIGAND FREE ENERGY PREDICTED BY IDOCK:   -3.21 KCAL/MOL
REMARK 924 INTRA-LIGAND FREE ENERGY PREDICTED BY IDOCK:   -0.33 KCAL/MOL
REMARK 927      BINDING AFFINITY PREDICTED BY RF-SCORE:    0.00 PKD
ROOT
HETATM    1  C   UNL     1      -9.724   7.445  71.657  1.00  0.00    -0.154 C  
HETATM    2  N   UNL     1     -10.479   7.373  70.406  1.00  0.00    -0.217 NA 
HETATM    3  C   UNL     1     -11.171   6.083  70.324  1.00  0.00    -0.322 C  
ENDROOT
BRANCH   2   4
HETATM    4  C   UNL     1     -11.407   8.524  70.288  1.00  0.00    -0.130 C  
BRANCH   4   5
HETATM    5  C   UNL     1     -10.674   9.864  70.138  1.00  0.00    -0.308 C  
BRANCH   5   6
HETATM    6  O   UNL     1      -9.801   9.901  69.004  1.00  0.00    -0.173 OA 
BRANCH   6   7
HETATM    7  C   UNL     1      -9.387  11.153  68.668  1.00  0.00    -0.184 C  
HETATM    8  C   UNL     1      -8.105  11.077  67.836  1.00  0.00    -0.114 C  
HETATM    9  O   UNL     1      -9.915  12.185  69.059  1.00  0.00    -0.020 OA 
HETATM   10  C   UNL     1      -8.298  10.377  66.491  1.00  0.00    -0.130 A  
HETATM   11  C   UNL     1      -7.409  12.467  67.731  1.00  0.00    -0.124 C  
HETATM   12  O   UNL     1      -8.232  13.406  67.030  1.00  0.00    -0.340 OA 
HETATM   13  C   UNL     1      -9.474  10.515  65.741  1.00  0.00    -0.249 A  
HETATM   14  C   UNL     1      -7.024  13.073  69.093  1.00  0.00    -0.020 C  
HETATM   15  C   UNL     1      -6.000  14.147  68.734  1.00  0.00    -0.085 C  
HETATM   16  H   UNL     1      -7.808  14.254  66.967  1.00  0.00     0.000 HD 
HETATM   17  C   UNL     1      -9.593   9.898  64.494  1.00  0.00    -0.290 A  
HETATM   18  C   UNL     1      -8.535   9.157  63.970  1.00  0.00    -0.195 A  
HETATM   19  C   UNL     1      -5.185  13.538  67.604  1.00  0.00     0.018 C  
HETATM   20  C   UNL     1      -6.041  12.410  67.019  1.00  0.00     0.020 C  
HETATM   21  C   UNL     1      -7.364   9.009  64.703  1.00  0.00    -0.098 A  
HETATM   22  C   UNL     1      -7.254   9.598  65.962  1.00  0.00    -0.098 A  
ENDBRANCH   6   7
ENDBRANCH   5   6
ENDBRANCH   4   5
ENDBRANCH   2   4
TORSDOF 4
ENDMDL
MODEL      210
REMARK 921   NORMALIZED FREE ENERGY PREDICTED BY IDOCK:   -2.62 KCAL/MOL
REMARK 922        TOTAL FREE ENERGY PREDICTED BY IDOCK:   -3.53 KCAL/MOL
REMARK 923 INTER-LIGAND FREE ENERGY PREDICTED BY IDOCK:   -3.33 KCAL/MOL
REMARK 924 INTRA-LIGAND FREE ENERGY PREDICTED BY IDOCK:   -0.20 KCAL/MOL
REMARK 927      BINDING AFFINITY PREDICTED BY RF-SCORE:    0.00 PKD
ROOT
HETATM    1  C   UNL     1      -8.122   1.789  69.777  1.00  0.00    -0.041 C  
HETATM    2  N   UNL     1      -7.547   3.071  69.370  1.00  0.00    -0.044 NA 
HETATM    3  C   UNL     1      -7.638   3.210  67.913  1.00  0.00    -0.057 C  
ENDROOT
BRANCH   2   4
HETATM    4  C   UNL     1      -8.203   4.190  70.089  1.00  0.00    -0.057 C  
BRANCH   4   5
HETATM    5  C   UNL     1      -8.485   5.394  69.180  1.00  0.00    -0.103 C  
BRANCH   5   6
HETATM    6  O   UNL     1      -8.561   6.631  69.895  1.00  0.00    -0.137 OA 
BRANCH   6   7
HETATM    7  C   UNL     1      -9.638   7.395  69.564  1.00  0.00    -0.155 C  
HETATM    8  C   UNL     1      -9.182   8.793  69.145  1.00  0.00    -0.149 C  
HETATM    9  O   UNL     1     -10.802   7.036  69.681  1.00  0.00    -0.236 OA 
HETATM   10  C   UNL     1      -8.324   8.796  67.880  1.00  0.00    -0.118 A  
HETATM   11  C   UNL     1     -10.376   9.794  69.102  1.00  0.00    -0.211 C  
HETATM   12  O   UNL     1     -11.330   9.417  68.102  1.00  0.00    -0.497 OA 
HETATM   13  C   UNL     1      -8.563   7.916  66.816  1.00  0.00    -0.133 A  
HETATM   14  C   UNL     1     -11.108   9.946  70.447  1.00  0.00    -0.382 C  
HETATM   15  C   UNL     1     -11.891  11.246  70.286  1.00  0.00    -0.446 C  
HETATM   16  H   UNL     1     -12.058  10.027  68.076  1.00  0.00     0.000 HD 
HETATM   17  C   UNL     1      -7.788   7.981  65.657  1.00  0.00    -0.104 A  
HETATM   18  C   UNL     1      -6.782   8.939  65.535  1.00  0.00    -0.072 A  
HETATM   19  C   UNL     1     -10.961  12.161  69.505  1.00  0.00    -0.031 C  
HETATM   20  C   UNL     1      -9.941  11.248  68.819  1.00  0.00    -0.203 C  
HETATM   21  C   UNL     1      -6.531   9.816  66.583  1.00  0.00    -0.070 A  
HETATM   22  C   UNL     1      -7.283   9.732  67.753  1.00  0.00    -0.088 A  
ENDBRANCH   6   7
ENDBRANCH   5   6
ENDBRANCH   4   5
ENDBRANCH   2   4
TORSDOF 4
ENDMDL
MODEL      211
REMARK 921   NORMALIZED FREE ENERGY PREDICTED BY IDOCK:   -2.61 KCAL/MOL
REMARK 922        TOTAL FREE ENERGY PREDICTED BY IDOCK:   -3.52 KCAL/MOL
REMARK 923 INTER-LIGAND FREE ENERGY PREDICTED BY IDOCK:   -3.12 KCAL/MOL
REMARK 924 INTRA-LIGAND FREE ENERGY PREDICTED BY IDOCK:   -0.40 KCAL/MOL
REMARK 927      BINDING AFFINITY PREDICTED BY RF-SCORE:    0.00 PKD
ROOT
HETATM    1  C   UNL     1      -8.643   6.116  66.323  1.00  0.00    -0.136 C  
HETATM    2  N   UNL     1      -9.080   4.766  65.968  1.00  0.00    -0.128 NA 
HETATM    3  C   UNL     1      -8.145   4.186  64.998  1.00  0.00    -0.097 C  
ENDROOT
BRANCH   2   4
HETATM    4  C   UNL     1      -9.230   3.928  67.183  1.00  0.00    -0.176 C  
BRANCH   4   5
HETATM    5  C   UNL     1      -7.920   3.789  67.972  1.00  0.00    -0.076 C  
BRANCH   5   6
HETATM    6  O   UNL     1      -8.074   4.070  69.366  1.00  0.00    -0.056 OA 
BRANCH   6   7
HETATM    7  C   UNL     1      -7.555   5.269  69.748  1.00  0.00    -0.069 C  
HETATM    8  C   UNL     1      -8.682   6.262  70.036  1.00  0.00    -0.141 C  
HETATM    9  O   UNL     1      -6.360   5.533  69.762  1.00  0.00    -0.030 OA 
HETATM   10  C   UNL     1      -9.565   5.850  71.214  1.00  0.00    -0.195 A  
HETATM   11  C   UNL     1      -8.147   7.723  70.128  1.00  0.00    -0.117 C  
HETATM   12  O   UNL     1      -7.249   7.875  71.233  1.00  0.00    -0.056 OA 
HETATM   13  C   UNL     1      -9.043   5.211  72.348  1.00  0.00    -0.145 A  
HETATM   14  C   UNL     1      -7.441   8.207  68.849  1.00  0.00    -0.089 C  
HETATM   15  C   UNL     1      -7.420   9.726  69.001  1.00  0.00    -0.080 C  
HETATM   16  H   UNL     1      -6.922   8.766  71.289  1.00  0.00     0.000 HD 
HETATM   17  C   UNL     1      -9.874   4.893  73.424  1.00  0.00    -0.166 A  
HETATM   18  C   UNL     1     -11.227   5.228  73.394  1.00  0.00    -0.314 A  
HETATM   19  C   UNL     1      -8.759  10.066  69.636  1.00  0.00    -0.210 C  
HETATM   20  C   UNL     1      -9.268   8.773  70.280  1.00  0.00    -0.191 C  
HETATM   21  C   UNL     1     -11.759   5.858  72.275  1.00  0.00    -0.309 A  
HETATM   22  C   UNL     1     -10.939   6.148  71.186  1.00  0.00    -0.343 A  
ENDBRANCH   6   7
ENDBRANCH   5   6
ENDBRANCH   4   5
ENDBRANCH   2   4
TORSDOF 4
ENDMDL
MODEL      212
REMARK 921   NORMALIZED FREE ENERGY PREDICTED BY IDOCK:   -2.59 KCAL/MOL
REMARK 922        TOTAL FREE ENERGY PREDICTED BY IDOCK:   -3.51 KCAL/MOL
REMARK 923 INTER-LIGAND FREE ENERGY PREDICTED BY IDOCK:   -3.07 KCAL/MOL
REMARK 924 INTRA-LIGAND FREE ENERGY PREDICTED BY IDOCK:   -0.43 KCAL/MOL
REMARK 927      BINDING AFFINITY PREDICTED BY RF-SCORE:    0.00 PKD
ROOT
HETATM    1  C   UNL     1     -10.440  10.796  66.123  1.00  0.00    -0.214 C  
HETATM    2  N   UNL     1     -10.579  11.662  67.294  1.00  0.00    -0.219 NA 
HETATM    3  C   UNL     1     -11.298  10.945  68.352  1.00  0.00    -0.304 C  
ENDROOT
BRANCH   2   4
HETATM    4  C   UNL     1      -9.254  12.155  67.741  1.00  0.00    -0.189 C  
BRANCH   4   5
HETATM    5  C   UNL     1      -8.691  11.353  68.922  1.00  0.00    -0.004 C  
BRANCH   5   6
HETATM    6  O   UNL     1      -7.991  10.173  68.515  1.00  0.00    -0.098 OA 
BRANCH   6   7
HETATM    7  C   UNL     1      -7.999   9.178  69.444  1.00  0.00    -0.097 C  
HETATM    8  C   UNL     1      -8.784   7.975  68.920  1.00  0.00    -0.131 C  
HETATM    9  O   UNL     1      -7.527   9.279  70.568  1.00  0.00    -0.099 OA 
HETATM   10  C   UNL     1      -8.148   7.326  67.691  1.00  0.00    -0.114 A  
HETATM   11  C   UNL     1      -9.119   6.969  70.063  1.00  0.00    -0.145 C  
HETATM   12  O   UNL     1      -7.927   6.402  70.617  1.00  0.00    -0.108 OA 
HETATM   13  C   UNL     1      -6.759   7.232  67.533  1.00  0.00    -0.065 A  
HETATM   14  C   UNL     1      -9.949   7.582  71.205  1.00  0.00    -0.196 C  
HETATM   15  C   UNL     1     -10.516   6.365  71.932  1.00  0.00    -0.239 C  
HETATM   16  H   UNL     1      -8.131   5.789  71.314  1.00  0.00     0.000 HD 
HETATM   17  C   UNL     1      -6.216   6.589  66.418  1.00  0.00    -0.037 A  
HETATM   18  C   UNL     1      -7.050   6.014  65.461  1.00  0.00    -0.069 A  
HETATM   19  C   UNL     1     -10.849   5.378  70.825  1.00  0.00    -0.190 C  
HETATM   20  C   UNL     1     -10.029   5.810  69.605  1.00  0.00    -0.249 C  
HETATM   21  C   UNL     1      -8.429   6.104  65.601  1.00  0.00    -0.151 A  
HETATM   22  C   UNL     1      -8.973   6.771  66.697  1.00  0.00    -0.154 A  
ENDBRANCH   6   7
ENDBRANCH   5   6
ENDBRANCH   4   5
ENDBRANCH   2   4
TORSDOF 4
ENDMDL
MODEL      213
REMARK 921   NORMALIZED FREE ENERGY PREDICTED BY IDOCK:   -2.59 KCAL/MOL
REMARK 922        TOTAL FREE ENERGY PREDICTED BY IDOCK:   -3.50 KCAL/MOL
REMARK 923 INTER-LIGAND FREE ENERGY PREDICTED BY IDOCK:   -3.20 KCAL/MOL
REMARK 924 INTRA-LIGAND FREE ENERGY PREDICTED BY IDOCK:   -0.30 KCAL/MOL
REMARK 927      BINDING AFFINITY PREDICTED BY RF-SCORE:    0.00 PKD
ROOT
HETATM    1  C   UNL     1      -5.768   3.041  68.177  1.00  0.00    -0.019 C  
HETATM    2  N   UNL     1      -6.800   4.072  68.080  1.00  0.00    -0.047 NA 
HETATM    3  C   UNL     1      -7.177   4.259  66.675  1.00  0.00    -0.075 C  
ENDROOT
BRANCH   2   4
HETATM    4  C   UNL     1      -7.962   3.733  68.939  1.00  0.00    -0.058 C  
BRANCH   4   5
HETATM    5  C   UNL     1      -9.069   4.794  68.883  1.00  0.00    -0.115 C  
BRANCH   5   6
HETATM    6  O   UNL     1      -9.773   4.935  70.121  1.00  0.00    -0.173 OA 
BRANCH   6   7
HETATM    7  C   UNL     1      -8.999   5.376  71.149  1.00  0.00    -0.141 C  
HETATM    8  C   UNL     1      -8.749   6.879  71.012  1.00  0.00    -0.136 C  
HETATM    9  O   UNL     1      -8.501   4.652  72.000  1.00  0.00    -0.114 OA 
HETATM   10  C   UNL     1     -10.022   7.717  71.123  1.00  0.00    -0.188 A  
HETATM   11  C   UNL     1      -7.596   7.355  71.948  1.00  0.00    -0.084 C  
HETATM   12  O   UNL     1      -7.943   7.177  73.325  1.00  0.00    -0.095 OA 
HETATM   13  C   UNL     1     -11.065   7.375  71.994  1.00  0.00    -0.279 A  
HETATM   14  C   UNL     1      -6.253   6.651  71.684  1.00  0.00    -0.042 C  
HETATM   15  C   UNL     1      -5.231   7.560  72.361  1.00  0.00    -0.036 C  
HETATM   16  H   UNL     1      -7.240   7.466  73.896  1.00  0.00     0.000 HD 
HETATM   17  C   UNL     1     -12.193   8.192  72.102  1.00  0.00    -0.398 A  
HETATM   18  C   UNL     1     -12.283   9.370  71.361  1.00  0.00    -0.438 A  
HETATM   19  C   UNL     1      -5.732   8.970  72.091  1.00  0.00    -0.072 C  
HETATM   20  C   UNL     1      -7.217   8.836  71.741  1.00  0.00    -0.076 C  
HETATM   21  C   UNL     1     -11.259   9.720  70.490  1.00  0.00    -0.381 A  
HETATM   22  C   UNL     1     -10.147   8.890  70.358  1.00  0.00    -0.232 A  
ENDBRANCH   6   7
ENDBRANCH   5   6
ENDBRANCH   4   5
ENDBRANCH   2   4
TORSDOF 4
ENDMDL
MODEL      214
REMARK 921   NORMALIZED FREE ENERGY PREDICTED BY IDOCK:   -2.59 KCAL/MOL
REMARK 922        TOTAL FREE ENERGY PREDICTED BY IDOCK:   -3.50 KCAL/MOL
REMARK 923 INTER-LIGAND FREE ENERGY PREDICTED BY IDOCK:   -3.14 KCAL/MOL
REMARK 924 INTRA-LIGAND FREE ENERGY PREDICTED BY IDOCK:   -0.36 KCAL/MOL
REMARK 927      BINDING AFFINITY PREDICTED BY RF-SCORE:    0.00 PKD
ROOT
HETATM    1  C   UNL     1     -10.498  10.921  65.872  1.00  0.00    -0.221 C  
HETATM    2  N   UNL     1     -10.039  11.392  67.179  1.00  0.00    -0.195 NA 
HETATM    3  C   UNL     1     -10.422  12.796  67.357  1.00  0.00    -0.228 C  
ENDROOT
BRANCH   2   4
HETATM    4  C   UNL     1     -10.557  10.520  68.261  1.00  0.00    -0.206 C  
BRANCH   4   5
HETATM    5  C   UNL     1      -9.446   9.989  69.178  1.00  0.00    -0.207 C  
BRANCH   5   6
HETATM    6  O   UNL     1      -9.948   9.373  70.368  1.00  0.00    -0.216 OA 
BRANCH   6   7
HETATM    7  C   UNL     1     -10.075   8.021  70.278  1.00  0.00    -0.192 C  
HETATM    8  C   UNL     1      -8.697   7.373  70.128  1.00  0.00    -0.143 C  
HETATM    9  O   UNL     1     -11.144   7.428  70.230  1.00  0.00    -0.259 OA 
HETATM   10  C   UNL     1      -7.795   7.580  71.344  1.00  0.00    -0.093 A  
HETATM   11  C   UNL     1      -8.812   5.887  69.671  1.00  0.00    -0.131 C  
HETATM   12  O   UNL     1      -9.473   5.092  70.662  1.00  0.00    -0.151 OA 
HETATM   13  C   UNL     1      -8.298   7.587  72.652  1.00  0.00    -0.146 A  
HETATM   14  C   UNL     1      -9.542   5.705  68.328  1.00  0.00    -0.145 C  
HETATM   15  C   UNL     1      -9.142   4.299  67.889  1.00  0.00    -0.161 C  
HETATM   16  H   UNL     1      -9.543   4.186  70.384  1.00  0.00     0.000 HD 
HETATM   17  C   UNL     1      -7.435   7.731  73.741  1.00  0.00    -0.164 A  
HETATM   18  C   UNL     1      -6.061   7.846  73.540  1.00  0.00    -0.074 A  
HETATM   19  C   UNL     1      -7.684   4.168  68.301  1.00  0.00    -0.070 C  
HETATM   20  C   UNL     1      -7.445   5.235  69.373  1.00  0.00    -0.065 C  
HETATM   21  C   UNL     1      -5.547   7.845  72.249  1.00  0.00    -0.036 A  
HETATM   22  C   UNL     1      -6.410   7.732  71.159  1.00  0.00    -0.034 A  
ENDBRANCH   6   7
ENDBRANCH   5   6
ENDBRANCH   4   5
ENDBRANCH   2   4
TORSDOF 4
ENDMDL
MODEL      215
REMARK 921   NORMALIZED FREE ENERGY PREDICTED BY IDOCK:   -2.56 KCAL/MOL
REMARK 922        TOTAL FREE ENERGY PREDICTED BY IDOCK:   -3.46 KCAL/MOL
REMARK 923 INTER-LIGAND FREE ENERGY PREDICTED BY IDOCK:   -3.61 KCAL/MOL
REMARK 924 INTRA-LIGAND FREE ENERGY PREDICTED BY IDOCK:    0.15 KCAL/MOL
REMARK 927      BINDING AFFINITY PREDICTED BY RF-SCORE:    0.00 PKD
ROOT
HETATM    1  C   UNL     1     -10.385  15.485  67.136  1.00  0.00    -0.272 C  
HETATM    2  N   UNL     1     -11.204  14.809  68.143  1.00  0.00    -0.281 NA 
HETATM    3  C   UNL     1     -11.621  15.774  69.165  1.00  0.00    -0.392 C  
ENDROOT
BRANCH   2   4
HETATM    4  C   UNL     1     -12.355  14.123  67.506  1.00  0.00    -0.071 C  
BRANCH   4   5
HETATM    5  C   UNL     1     -11.954  12.818  66.806  1.00  0.00    -0.319 C  
BRANCH   5   6
HETATM    6  O   UNL     1     -10.945  12.090  67.514  1.00  0.00    -0.229 OA 
BRANCH   6   7
HETATM    7  C   UNL     1      -9.688  12.271  67.025  1.00  0.00    -0.205 C  
HETATM    8  C   UNL     1      -8.653  11.972  68.112  1.00  0.00    -0.173 C  
HETATM    9  O   UNL     1      -9.436  12.703  65.909  1.00  0.00    -0.202 OA 
HETATM   10  C   UNL     1      -8.664  10.515  68.572  1.00  0.00    -0.140 A  
HETATM   11  C   UNL     1      -7.241  12.500  67.716  1.00  0.00    -0.125 C  
HETATM   12  O   UNL     1      -6.743  11.824  66.556  1.00  0.00    -0.351 OA 
HETATM   13  C   UNL     1      -8.905   9.455  67.687  1.00  0.00    -0.118 A  
HETATM   14  C   UNL     1      -7.195  14.017  67.459  1.00  0.00    -0.183 C  
HETATM   15  C   UNL     1      -5.708  14.351  67.541  1.00  0.00     0.145 C  
HETATM   16  H   UNL     1      -5.883  12.145  66.314  1.00  0.00     0.000 HD 
HETATM   17  C   UNL     1      -8.859   8.134  68.138  1.00  0.00    -0.132 A  
HETATM   18  C   UNL     1      -8.550   7.853  69.467  1.00  0.00    -0.137 A  
HETATM   19  C   UNL     1      -5.179  13.475  68.667  1.00  0.00    -0.077 C  
HETATM   20  C   UNL     1      -6.196  12.343  68.841  1.00  0.00    -0.079 C  
HETATM   21  C   UNL     1      -8.312   8.893  70.357  1.00  0.00    -0.160 A  
HETATM   22  C   UNL     1      -8.388  10.213  69.918  1.00  0.00    -0.110 A  
ENDBRANCH   6   7
ENDBRANCH   5   6
ENDBRANCH   4   5
ENDBRANCH   2   4
TORSDOF 4
ENDMDL
MODEL      216
REMARK 921   NORMALIZED FREE ENERGY PREDICTED BY IDOCK:   -2.51 KCAL/MOL
REMARK 922        TOTAL FREE ENERGY PREDICTED BY IDOCK:   -3.41 KCAL/MOL
REMARK 923 INTER-LIGAND FREE ENERGY PREDICTED BY IDOCK:   -3.19 KCAL/MOL
REMARK 924 INTRA-LIGAND FREE ENERGY PREDICTED BY IDOCK:   -0.22 KCAL/MOL
REMARK 927      BINDING AFFINITY PREDICTED BY RF-SCORE:    0.00 PKD
ROOT
HETATM    1  C   UNL     1      -8.919   7.514  73.789  1.00  0.00    -0.248 C  
HETATM    2  N   UNL     1      -8.074   8.421  73.013  1.00  0.00    -0.342 NA 
HETATM    3  C   UNL     1      -6.747   7.822  72.831  1.00  0.00    -0.074 C  
ENDROOT
BRANCH   2   4
HETATM    4  C   UNL     1      -8.722   8.767  71.724  1.00  0.00    -0.153 C  
BRANCH   4   5
HETATM    5  C   UNL     1      -7.719   8.883  70.569  1.00  0.00    -0.104 C  
BRANCH   5   6
HETATM    6  O   UNL     1      -8.080   8.092  69.432  1.00  0.00    -0.114 OA 
BRANCH   6   7
HETATM    7  C   UNL     1      -7.399   8.413  68.298  1.00  0.00    -0.095 C  
HETATM    8  C   UNL     1      -8.380   8.730  67.168  1.00  0.00    -0.103 C  
HETATM    9  O   UNL     1      -6.182   8.359  68.183  1.00  0.00    -0.049 OA 
HETATM   10  C   UNL     1      -9.242   9.962  67.442  1.00  0.00    -0.151 A  
HETATM   11  C   UNL     1      -7.667   8.753  65.782  1.00  0.00    -0.094 C  
HETATM   12  O   UNL     1      -6.698   9.806  65.718  1.00  0.00    -0.084 OA 
HETATM   13  C   UNL     1      -8.742  11.085  68.116  1.00  0.00    -0.141 A  
HETATM   14  C   UNL     1      -6.976   7.427  65.417  1.00  0.00    -0.059 C  
HETATM   15  C   UNL     1      -6.763   7.535  63.909  1.00  0.00    -0.053 C  
HETATM   16  H   UNL     1      -6.263   9.820  64.873  1.00  0.00     0.000 HD 
HETATM   17  C   UNL     1      -9.547  12.211  68.305  1.00  0.00    -0.210 A  
HETATM   18  C   UNL     1     -10.848  12.239  67.807  1.00  0.00    -0.256 A  
HETATM   19  C   UNL     1      -8.014   8.227  63.393  1.00  0.00    -0.155 C  
HETATM   20  C   UNL     1      -8.642   8.932  64.599  1.00  0.00    -0.169 C  
HETATM   21  C   UNL     1     -11.358  11.132  67.141  1.00  0.00    -0.257 A  
HETATM   22  C   UNL     1     -10.568   9.995  66.978  1.00  0.00    -0.279 A  
ENDBRANCH   6   7
ENDBRANCH   5   6
ENDBRANCH   4   5
ENDBRANCH   2   4
TORSDOF 4
ENDMDL
MODEL      217
REMARK 921   NORMALIZED FREE ENERGY PREDICTED BY IDOCK:   -2.49 KCAL/MOL
REMARK 922        TOTAL FREE ENERGY PREDICTED BY IDOCK:   -3.38 KCAL/MOL
REMARK 923 INTER-LIGAND FREE ENERGY PREDICTED BY IDOCK:   -3.12 KCAL/MOL
REMARK 924 INTRA-LIGAND FREE ENERGY PREDICTED BY IDOCK:   -0.27 KCAL/MOL
REMARK 927      BINDING AFFINITY PREDICTED BY RF-SCORE:    0.00 PKD
ROOT
HETATM    1  C   UNL     1      -5.560   3.839  73.099  1.00  0.00     0.000 C  
HETATM    2  N   UNL     1      -6.213   4.126  71.823  1.00  0.00    -0.017 NA 
HETATM    3  C   UNL     1      -5.198   4.320  70.783  1.00  0.00     0.000 C  
ENDROOT
BRANCH   2   4
HETATM    4  C   UNL     1      -7.181   3.056  71.478  1.00  0.00    -0.032 C  
BRANCH   4   5
HETATM    5  C   UNL     1      -8.536   3.609  71.014  1.00  0.00    -0.071 C  
BRANCH   5   6
HETATM    6  O   UNL     1      -8.412   4.661  70.053  1.00  0.00    -0.073 OA 
BRANCH   6   7
HETATM    7  C   UNL     1      -9.516   5.451  69.953  1.00  0.00    -0.159 C  
HETATM    8  C   UNL     1      -9.264   6.586  68.959  1.00  0.00    -0.130 C  
HETATM    9  O   UNL     1     -10.523   5.320  70.635  1.00  0.00    -0.260 OA 
HETATM   10  C   UNL     1      -9.029   6.097  67.530  1.00  0.00    -0.111 A  
HETATM   11  C   UNL     1     -10.347   7.700  69.077  1.00  0.00    -0.213 C  
HETATM   12  O   UNL     1     -11.642   7.200  68.724  1.00  0.00    -0.298 OA 
HETATM   13  C   UNL     1      -9.712   4.995  66.998  1.00  0.00    -0.180 A  
HETATM   14  C   UNL     1     -10.432   8.339  70.475  1.00  0.00    -0.225 C  
HETATM   15  C   UNL     1     -11.190   9.641  70.230  1.00  0.00    -0.324 C  
HETATM   16  H   UNL     1     -12.303   7.879  68.796  1.00  0.00     0.000 HD 
HETATM   17  C   UNL     1      -9.505   4.608  65.672  1.00  0.00    -0.178 A  
HETATM   18  C   UNL     1      -8.635   5.329  64.855  1.00  0.00    -0.145 A  
HETATM   19  C   UNL     1     -10.671  10.142  68.892  1.00  0.00    -0.249 C  
HETATM   20  C   UNL     1     -10.055   8.929  68.190  1.00  0.00    -0.227 C  
HETATM   21  C   UNL     1      -7.948   6.421  65.370  1.00  0.00    -0.116 A  
HETATM   22  C   UNL     1      -8.128   6.790  66.702  1.00  0.00    -0.110 A  
ENDBRANCH   6   7
ENDBRANCH   5   6
ENDBRANCH   4   5
ENDBRANCH   2   4
TORSDOF 4
ENDMDL
MODEL      218
REMARK 921   NORMALIZED FREE ENERGY PREDICTED BY IDOCK:   -2.46 KCAL/MOL
REMARK 922        TOTAL FREE ENERGY PREDICTED BY IDOCK:   -3.34 KCAL/MOL
REMARK 923 INTER-LIGAND FREE ENERGY PREDICTED BY IDOCK:   -3.41 KCAL/MOL
REMARK 924 INTRA-LIGAND FREE ENERGY PREDICTED BY IDOCK:    0.07 KCAL/MOL
REMARK 927      BINDING AFFINITY PREDICTED BY RF-SCORE:    0.00 PKD
ROOT
HETATM    1  C   UNL     1     -11.800   6.785  72.148  1.00  0.00    -0.290 C  
HETATM    2  N   UNL     1     -10.947   6.534  73.310  1.00  0.00    -0.238 NA 
HETATM    3  C   UNL     1     -10.855   5.090  73.549  1.00  0.00    -0.308 C  
ENDROOT
BRANCH   2   4
HETATM    4  C   UNL     1      -9.617   7.166  73.130  1.00  0.00    -0.174 C  
BRANCH   4   5
HETATM    5  C   UNL     1      -9.450   7.811  71.747  1.00  0.00    -0.151 C  
BRANCH   5   6
HETATM    6  O   UNL     1      -8.087   7.869  71.317  1.00  0.00    -0.091 OA 
BRANCH   6   7
HETATM    7  C   UNL     1      -7.536   6.650  71.062  1.00  0.00    -0.085 C  
HETATM    8  C   UNL     1      -8.597   5.700  70.503  1.00  0.00    -0.129 C  
HETATM    9  O   UNL     1      -6.384   6.341  71.334  1.00  0.00    -0.046 OA 
HETATM   10  C   UNL     1      -9.154   6.144  69.150  1.00  0.00    -0.128 A  
HETATM   11  C   UNL     1      -8.110   4.220  70.531  1.00  0.00    -0.066 C  
HETATM   12  O   UNL     1      -6.978   4.032  69.674  1.00  0.00    -0.041 OA 
HETATM   13  C   UNL     1      -8.352   6.761  68.181  1.00  0.00    -0.118 A  
HETATM   14  C   UNL     1      -7.751   3.711  71.938  1.00  0.00    -0.058 C  
HETATM   15  C   UNL     1      -7.751   2.193  71.784  1.00  0.00    -0.041 C  
HETATM   16  H   UNL     1      -6.681   3.130  69.691  1.00  0.00     0.000 HD 
HETATM   17  C   UNL     1      -8.887   7.109  66.938  1.00  0.00    -0.132 A  
HETATM   18  C   UNL     1     -10.219   6.826  66.640  1.00  0.00    -0.211 A  
HETATM   19  C   UNL     1      -8.909   1.903  70.842  1.00  0.00    -0.117 C  
HETATM   20  C   UNL     1      -9.200   3.213  70.105  1.00  0.00    -0.219 C  
HETATM   21  C   UNL     1     -11.027   6.218  67.593  1.00  0.00    -0.438 A  
HETATM   22  C   UNL     1     -10.504   5.898  68.844  1.00  0.00    -0.325 A  
ENDBRANCH   6   7
ENDBRANCH   5   6
ENDBRANCH   4   5
ENDBRANCH   2   4
TORSDOF 4
ENDMDL
MODEL      219
REMARK 921   NORMALIZED FREE ENERGY PREDICTED BY IDOCK:   -2.44 KCAL/MOL
REMARK 922        TOTAL FREE ENERGY PREDICTED BY IDOCK:   -3.31 KCAL/MOL
REMARK 923 INTER-LIGAND FREE ENERGY PREDICTED BY IDOCK:   -3.15 KCAL/MOL
REMARK 924 INTRA-LIGAND FREE ENERGY PREDICTED BY IDOCK:   -0.17 KCAL/MOL
REMARK 927      BINDING AFFINITY PREDICTED BY RF-SCORE:    0.00 PKD
ROOT
HETATM    1  C   UNL     1     -12.805   7.707  71.628  1.00  0.00    -0.349 C  
HETATM    2  N   UNL     1     -11.375   7.982  71.483  1.00  0.00    -0.252 NA 
HETATM    3  C   UNL     1     -10.807   7.101  70.457  1.00  0.00    -0.246 C  
ENDROOT
BRANCH   2   4
HETATM    4  C   UNL     1     -11.145   9.417  71.190  1.00  0.00    -0.362 C  
BRANCH   4   5
HETATM    5  C   UNL     1     -11.238   9.738  69.692  1.00  0.00    -0.178 C  
BRANCH   5   6
HETATM    6  O   UNL     1     -10.668  11.006  69.353  1.00  0.00    -0.229 OA 
BRANCH   6   7
HETATM    7  C   UNL     1      -9.343  10.950  69.043  1.00  0.00    -0.131 C  
HETATM    8  C   UNL     1      -9.109  11.506  67.637  1.00  0.00    -0.168 C  
HETATM    9  O   UNL     1      -8.488  10.439  69.753  1.00  0.00    -0.122 OA 
HETATM   10  C   UNL     1      -9.456  12.989  67.508  1.00  0.00    -0.198 A  
HETATM   11  C   UNL     1      -7.689  11.141  67.108  1.00  0.00    -0.136 C  
HETATM   12  O   UNL     1      -6.668  11.749  67.906  1.00  0.00    -0.064 OA 
HETATM   13  C   UNL     1      -9.221  13.902  68.545  1.00  0.00    -0.154 A  
HETATM   14  C   UNL     1      -7.422   9.626  67.041  1.00  0.00    -0.091 C  
HETATM   15  C   UNL     1      -6.218   9.513  66.109  1.00  0.00    -0.068 C  
HETATM   16  H   UNL     1      -5.802  11.526  67.584  1.00  0.00     0.000 HD 
HETATM   17  C   UNL     1      -9.508  15.258  68.371  1.00  0.00    -0.206 A  
HETATM   18  C   UNL     1     -10.009  15.722  67.155  1.00  0.00    -0.242 A  
HETATM   19  C   UNL     1      -6.457  10.571  65.043  1.00  0.00    -0.030 C  
HETATM   20  C   UNL     1      -7.460  11.562  65.641  1.00  0.00     0.686 C  
HETATM   21  C   UNL     1     -10.250  14.828  66.120  1.00  0.00    -0.310 A  
HETATM   22  C   UNL     1      -9.994  13.470  66.301  1.00  0.00    -0.302 A  
ENDBRANCH   6   7
ENDBRANCH   5   6
ENDBRANCH   4   5
ENDBRANCH   2   4
TORSDOF 4
ENDMDL
MODEL      220
REMARK 921   NORMALIZED FREE ENERGY PREDICTED BY IDOCK:   -2.42 KCAL/MOL
REMARK 922        TOTAL FREE ENERGY PREDICTED BY IDOCK:   -3.29 KCAL/MOL
REMARK 923 INTER-LIGAND FREE ENERGY PREDICTED BY IDOCK:   -2.94 KCAL/MOL
REMARK 924 INTRA-LIGAND FREE ENERGY PREDICTED BY IDOCK:   -0.35 KCAL/MOL
REMARK 927      BINDING AFFINITY PREDICTED BY RF-SCORE:    0.00 PKD
ROOT
HETATM    1  C   UNL     1      -7.387  19.455  66.804  1.00  0.00    -0.220 C  
HETATM    2  N   UNL     1      -8.616  19.234  67.565  1.00  0.00    -0.287 NA 
HETATM    3  C   UNL     1      -9.750  19.835  66.855  1.00  0.00    -0.385 C  
ENDROOT
BRANCH   2   4
HETATM    4  C   UNL     1      -8.815  17.788  67.831  1.00  0.00    -0.251 C  
BRANCH   4   5
HETATM    5  C   UNL     1      -8.099  17.315  69.103  1.00  0.00    -0.006 C  
BRANCH   5   6
HETATM    6  O   UNL     1      -8.395  15.957  69.441  1.00  0.00    -0.244 OA 
BRANCH   6   7
HETATM    7  C   UNL     1      -7.356  15.099  69.244  1.00  0.00    -0.188 C  
HETATM    8  C   UNL     1      -7.867  13.659  69.184  1.00  0.00     0.239 C  
HETATM    9  O   UNL     1      -6.180  15.434  69.217  1.00  0.00    -0.113 OA 
HETATM   10  C   UNL     1      -8.794  13.395  67.997  1.00  0.00    -0.183 A  
HETATM   11  C   UNL     1      -6.701  12.633  69.315  1.00  0.00    -0.054 C  
HETATM   12  O   UNL     1      -5.796  12.736  68.210  1.00  0.00    -0.061 OA 
HETATM   13  C   UNL     1      -8.595  13.998  66.748  1.00  0.00    -0.081 A  
HETATM   14  C   UNL     1      -5.899  12.769  70.622  1.00  0.00    -0.095 C  
HETATM   15  C   UNL     1      -5.156  11.440  70.729  1.00  0.00    -0.113 C  
HETATM   16  H   UNL     1      -5.085  12.111  68.291  1.00  0.00     0.000 HD 
HETATM   17  C   UNL     1      -9.436  13.694  65.675  1.00  0.00     0.086 A  
HETATM   18  C   UNL     1     -10.468  12.770  65.828  1.00  0.00    -0.294 A  
HETATM   19  C   UNL     1      -6.149  10.404  70.227  1.00  0.00    -0.107 C  
HETATM   20  C   UNL     1      -7.185  11.170  69.399  1.00  0.00    -0.091 C  
HETATM   21  C   UNL     1     -10.681  12.168  67.062  1.00  0.00    -0.272 A  
HETATM   22  C   UNL     1      -9.863  12.493  68.142  1.00  0.00    -0.221 A  
ENDBRANCH   6   7
ENDBRANCH   5   6
ENDBRANCH   4   5
ENDBRANCH   2   4
TORSDOF 4
ENDMDL
MODEL      221
REMARK 921   NORMALIZED FREE ENERGY PREDICTED BY IDOCK:   -2.38 KCAL/MOL
REMARK 922        TOTAL FREE ENERGY PREDICTED BY IDOCK:   -3.24 KCAL/MOL
REMARK 923 INTER-LIGAND FREE ENERGY PREDICTED BY IDOCK:   -2.73 KCAL/MOL
REMARK 924 INTRA-LIGAND FREE ENERGY PREDICTED BY IDOCK:   -0.51 KCAL/MOL
REMARK 927      BINDING AFFINITY PREDICTED BY RF-SCORE:    0.00 PKD
ROOT
HETATM    1  C   UNL     1      -9.633  10.603  68.932  1.00  0.00    -0.196 C  
HETATM    2  N   UNL     1      -9.709   9.182  68.593  1.00  0.00    -0.152 NA 
HETATM    3  C   UNL     1     -10.197   9.030  67.219  1.00  0.00    -0.256 C  
ENDROOT
BRANCH   2   4
HETATM    4  C   UNL     1      -8.398   8.522  68.806  1.00  0.00    -0.122 C  
BRANCH   4   5
HETATM    5  C   UNL     1      -8.414   7.539  69.984  1.00  0.00    -0.137 C  
BRANCH   5   6
HETATM    6  O   UNL     1      -9.650   6.829  70.105  1.00  0.00    -0.161 OA 
BRANCH   6   7
HETATM    7  C   UNL     1      -9.698   5.676  69.382  1.00  0.00    -0.157 C  
HETATM    8  C   UNL     1      -8.642   4.692  69.890  1.00  0.00    -0.096 C  
HETATM    9  O   UNL     1     -10.417   5.500  68.408  1.00  0.00    -0.189 OA 
HETATM   10  C   UNL     1      -8.884   4.236  71.328  1.00  0.00    -0.150 A  
HETATM   11  C   UNL     1      -8.421   3.522  68.884  1.00  0.00    -0.078 C  
HETATM   12  O   UNL     1      -9.606   2.731  68.743  1.00  0.00    -0.153 OA 
HETATM   13  C   UNL     1     -10.173   4.025  71.836  1.00  0.00    -0.160 A  
HETATM   14  C   UNL     1      -7.968   3.983  67.486  1.00  0.00    -0.091 C  
HETATM   15  C   UNL     1      -7.399   2.715  66.856  1.00  0.00    -0.065 C  
HETATM   16  H   UNL     1      -9.471   2.018  68.129  1.00  0.00     0.000 HD 
HETATM   17  C   UNL     1     -10.351   3.561  73.142  1.00  0.00    -0.242 A  
HETATM   18  C   UNL     1      -9.248   3.281  73.947  1.00  0.00    -0.099 A  
HETATM   19  C   UNL     1      -6.682   2.008  67.996  1.00  0.00    -0.032 C  
HETATM   20  C   UNL     1      -7.267   2.582  69.290  1.00  0.00    -0.044 C  
HETATM   21  C   UNL     1      -7.964   3.489  73.458  1.00  0.00    -0.074 A  
HETATM   22  C   UNL     1      -7.784   3.981  72.166  1.00  0.00    -0.075 A  
ENDBRANCH   6   7
ENDBRANCH   5   6
ENDBRANCH   4   5
ENDBRANCH   2   4
TORSDOF 4
ENDMDL
MODEL      222
REMARK 921   NORMALIZED FREE ENERGY PREDICTED BY IDOCK:   -2.36 KCAL/MOL
REMARK 922        TOTAL FREE ENERGY PREDICTED BY IDOCK:   -3.22 KCAL/MOL
REMARK 923 INTER-LIGAND FREE ENERGY PREDICTED BY IDOCK:   -2.84 KCAL/MOL
REMARK 924 INTRA-LIGAND FREE ENERGY PREDICTED BY IDOCK:   -0.38 KCAL/MOL
REMARK 927      BINDING AFFINITY PREDICTED BY RF-SCORE:    0.00 PKD
ROOT
HETATM    1  C   UNL     1      -9.101   8.825  71.698  1.00  0.00    -0.244 C  
HETATM    2  N   UNL     1      -9.049   9.237  70.296  1.00  0.00    -0.217 NA 
HETATM    3  C   UNL     1     -10.046  10.284  70.053  1.00  0.00    -0.115 C  
ENDROOT
BRANCH   2   4
HETATM    4  C   UNL     1      -7.677   9.663  69.926  1.00  0.00    -0.144 C  
BRANCH   4   5
HETATM    5  C   UNL     1      -7.634  10.437  68.601  1.00  0.00    -0.092 C  
BRANCH   5   6
HETATM    6  O   UNL     1      -6.663   9.924  67.683  1.00  0.00    -0.071 OA 
BRANCH   6   7
HETATM    7  C   UNL     1      -6.846   8.614  67.361  1.00  0.00    -0.071 C  
HETATM    8  C   UNL     1      -8.225   8.415  66.730  1.00  0.00    -0.102 C  
HETATM    9  O   UNL     1      -6.056   7.719  67.629  1.00  0.00    -0.046 OA 
HETATM   10  C   UNL     1      -8.393   9.150  65.400  1.00  0.00    -0.147 A  
HETATM   11  C   UNL     1      -8.615   6.907  66.673  1.00  0.00    -0.124 C  
HETATM   12  O   UNL     1      -7.726   6.176  65.822  1.00  0.00    -0.088 OA 
HETATM   13  C   UNL     1      -7.343   9.278  64.482  1.00  0.00    -0.101 A  
HETATM   14  C   UNL     1      -8.650   6.223  68.052  1.00  0.00    -0.116 C  
HETATM   15  C   UNL     1      -9.462   4.954  67.803  1.00  0.00    -0.168 C  
HETATM   16  H   UNL     1      -7.964   5.256  65.787  1.00  0.00     0.000 HD 
HETATM   17  C   UNL     1      -7.549   9.915  63.256  1.00  0.00    -0.137 A  
HETATM   18  C   UNL     1      -8.809  10.410  62.923  1.00  0.00    -0.237 A  
HETATM   19  C   UNL     1     -10.551   5.380  66.830  1.00  0.00    -0.320 C  
HETATM   20  C   UNL     1     -10.055   6.670  66.172  1.00  0.00     0.197 C  
HETATM   21  C   UNL     1      -9.859  10.295  63.825  1.00  0.00    -0.219 A  
HETATM   22  C   UNL     1      -9.648   9.687  65.062  1.00  0.00    -0.284 A  
ENDBRANCH   6   7
ENDBRANCH   5   6
ENDBRANCH   4   5
ENDBRANCH   2   4
TORSDOF 4
ENDMDL
MODEL      223
REMARK 921   NORMALIZED FREE ENERGY PREDICTED BY IDOCK:   -2.35 KCAL/MOL
REMARK 922        TOTAL FREE ENERGY PREDICTED BY IDOCK:   -3.21 KCAL/MOL
REMARK 923 INTER-LIGAND FREE ENERGY PREDICTED BY IDOCK:   -2.98 KCAL/MOL
REMARK 924 INTRA-LIGAND FREE ENERGY PREDICTED BY IDOCK:   -0.23 KCAL/MOL
REMARK 927      BINDING AFFINITY PREDICTED BY RF-SCORE:    0.00 PKD
ROOT
HETATM    1  C   UNL     1     -11.675   7.531  72.251  1.00  0.00    -0.304 C  
HETATM    2  N   UNL     1     -10.316   7.411  72.780  1.00  0.00    -0.232 NA 
HETATM    3  C   UNL     1     -10.339   6.628  74.020  1.00  0.00    -0.351 C  
ENDROOT
BRANCH   2   4
HETATM    4  C   UNL     1      -9.407   6.832  71.760  1.00  0.00    -0.147 C  
BRANCH   4   5
HETATM    5  C   UNL     1      -7.927   6.970  72.140  1.00  0.00    -0.093 C  
BRANCH   5   6
HETATM    6  O   UNL     1      -7.097   7.345  71.036  1.00  0.00    -0.058 OA 
BRANCH   6   7
HETATM    7  C   UNL     1      -7.307   8.616  70.595  1.00  0.00    -0.064 C  
HETATM    8  C   UNL     1      -6.987   8.715  69.103  1.00  0.00    -0.063 C  
HETATM    9  O   UNL     1      -7.613   9.556  71.316  1.00  0.00    -0.327 OA 
HETATM   10  C   UNL     1      -7.909   7.864  68.229  1.00  0.00    -0.120 A  
HETATM   11  C   UNL     1      -6.870  10.199  68.640  1.00  0.00    -0.057 C  
HETATM   12  O   UNL     1      -8.119  10.884  68.782  1.00  0.00    -0.130 OA 
HETATM   13  C   UNL     1      -9.268   7.693  68.526  1.00  0.00    -0.143 A  
HETATM   14  C   UNL     1      -5.784  10.997  69.385  1.00  0.00    -0.043 C  
HETATM   15  C   UNL     1      -5.554  12.212  68.490  1.00  0.00    -0.053 C  
HETATM   16  H   UNL     1      -8.048  11.788  68.501  1.00  0.00     0.000 HD 
HETATM   17  C   UNL     1     -10.089   6.948  67.677  1.00  0.00    -0.204 A  
HETATM   18  C   UNL     1      -9.571   6.384  66.512  1.00  0.00    -0.185 A  
HETATM   19  C   UNL     1      -5.652  11.670  67.073  1.00  0.00    -0.124 C  
HETATM   20  C   UNL     1      -6.412  10.344  67.174  1.00  0.00    -0.072 C  
HETATM   21  C   UNL     1      -8.224   6.541  66.206  1.00  0.00    -0.119 A  
HETATM   22  C   UNL     1      -7.397   7.259  67.068  1.00  0.00    -0.093 A  
ENDBRANCH   6   7
ENDBRANCH   5   6
ENDBRANCH   4   5
ENDBRANCH   2   4
TORSDOF 4
ENDMDL
MODEL      224
REMARK 921   NORMALIZED FREE ENERGY PREDICTED BY IDOCK:   -2.31 KCAL/MOL
REMARK 922        TOTAL FREE ENERGY PREDICTED BY IDOCK:   -3.15 KCAL/MOL
REMARK 923 INTER-LIGAND FREE ENERGY PREDICTED BY IDOCK:   -2.94 KCAL/MOL
REMARK 924 INTRA-LIGAND FREE ENERGY PREDICTED BY IDOCK:   -0.21 KCAL/MOL
REMARK 927      BINDING AFFINITY PREDICTED BY RF-SCORE:    0.00 PKD
ROOT
HETATM    1  C   UNL     1     -12.275   9.967  70.636  1.00  0.00    -0.269 C  
HETATM    2  N   UNL     1     -12.558   8.843  71.527  1.00  0.00    -0.321 NA 
HETATM    3  C   UNL     1     -14.009   8.678  71.665  1.00  0.00    -0.401 C  
ENDROOT
BRANCH   2   4
HETATM    4  C   UNL     1     -11.891   7.610  71.042  1.00  0.00    -0.285 C  
BRANCH   4   5
HETATM    5  C   UNL     1     -10.811   7.895  69.990  1.00  0.00    -0.238 C  
BRANCH   5   6
HETATM    6  O   UNL     1      -9.550   8.252  70.564  1.00  0.00    -0.165 OA 
BRANCH   6   7
HETATM    7  C   UNL     1      -8.642   7.237  70.576  1.00  0.00    -0.143 C  
HETATM    8  C   UNL     1      -8.427   6.707  69.157  1.00  0.00    -0.124 C  
HETATM    9  O   UNL     1      -8.148   6.763  71.590  1.00  0.00    -0.105 OA 
HETATM   10  C   UNL     1      -7.814   7.741  68.212  1.00  0.00    -0.121 A  
HETATM   11  C   UNL     1      -7.682   5.338  69.166  1.00  0.00    -0.081 C  
HETATM   12  O   UNL     1      -6.360   5.473  69.698  1.00  0.00    -0.030 OA 
HETATM   13  C   UNL     1      -6.855   8.667  68.642  1.00  0.00    -0.063 A  
HETATM   14  C   UNL     1      -8.418   4.236  69.949  1.00  0.00    -0.085 C  
HETATM   15  C   UNL     1      -7.770   2.947  69.451  1.00  0.00    -0.045 C  
HETATM   16  H   UNL     1      -5.906   4.638  69.704  1.00  0.00     0.000 HD 
HETATM   17  C   UNL     1      -6.283   9.564  67.737  1.00  0.00    -0.053 A  
HETATM   18  C   UNL     1      -6.644   9.533  66.391  1.00  0.00    -0.071 A  
HETATM   19  C   UNL     1      -7.537   3.182  67.967  1.00  0.00    -0.057 C  
HETATM   20  C   UNL     1      -7.567   4.700  67.765  1.00  0.00    -0.078 C  
HETATM   21  C   UNL     1      -7.597   8.623  65.950  1.00  0.00    -0.089 A  
HETATM   22  C   UNL     1      -8.192   7.748  66.857  1.00  0.00    -0.116 A  
ENDBRANCH   6   7
ENDBRANCH   5   6
ENDBRANCH   4   5
ENDBRANCH   2   4
TORSDOF 4
ENDMDL
MODEL      225
REMARK 921   NORMALIZED FREE ENERGY PREDICTED BY IDOCK:   -2.31 KCAL/MOL
REMARK 922        TOTAL FREE ENERGY PREDICTED BY IDOCK:   -3.15 KCAL/MOL
REMARK 923 INTER-LIGAND FREE ENERGY PREDICTED BY IDOCK:   -2.80 KCAL/MOL
REMARK 924 INTRA-LIGAND FREE ENERGY PREDICTED BY IDOCK:   -0.35 KCAL/MOL
REMARK 927      BINDING AFFINITY PREDICTED BY RF-SCORE:    0.00 PKD
ROOT
HETATM    1  C   UNL     1     -12.751  12.527  66.959  1.00  0.00     1.747 C  
HETATM    2  N   UNL     1     -11.607  11.779  67.478  1.00  0.00    -0.506 NA 
HETATM    3  C   UNL     1     -11.262  10.699  66.547  1.00  0.00     0.208 C  
ENDROOT
BRANCH   2   4
HETATM    4  C   UNL     1     -10.464  12.687  67.741  1.00  0.00    -0.221 C  
BRANCH   4   5
HETATM    5  C   UNL     1     -10.521  13.970  66.902  1.00  0.00    -0.276 C  
BRANCH   5   6
HETATM    6  O   UNL     1      -9.249  14.347  66.365  1.00  0.00    -0.267 OA 
BRANCH   6   7
HETATM    7  C   UNL     1      -9.174  15.652  65.987  1.00  0.00    -0.339 C  
HETATM    8  C   UNL     1      -8.930  16.541  67.207  1.00  0.00    -0.212 C  
HETATM    9  O   UNL     1      -9.371  16.054  64.848  1.00  0.00     0.331 OA 
HETATM   10  C   UNL     1      -7.588  16.276  67.889  1.00  0.00    -0.148 A  
HETATM   11  C   UNL     1      -9.188  18.043  66.882  1.00  0.00    -0.269 C  
HETATM   12  O   UNL     1      -8.263  18.525  65.901  1.00  0.00    -0.497 OA 
HETATM   13  C   UNL     1      -6.434  15.951  67.162  1.00  0.00    -0.096 A  
HETATM   14  C   UNL     1     -10.619  18.335  66.394  1.00  0.00    -0.318 C  
HETATM   15  C   UNL     1     -10.760  19.844  66.576  1.00  0.00    -0.447 C  
HETATM   16  H   UNL     1      -8.421  19.441  65.701  1.00  0.00     0.000 HD 
HETATM   17  C   UNL     1      -5.215  15.764  67.818  1.00  0.00    -0.135 A  
HETATM   18  C   UNL     1      -5.127  15.921  69.200  1.00  0.00    -0.104 A  
HETATM   19  C   UNL     1     -10.027  20.145  67.874  1.00  0.00    -0.537 C  
HETATM   20  C   UNL     1      -9.089  18.960  68.119  1.00  0.00    -0.351 C  
HETATM   21  C   UNL     1      -6.263  16.239  69.935  1.00  0.00    -0.161 A  
HETATM   22  C   UNL     1      -7.487  16.396  69.287  1.00  0.00    -0.202 A  
ENDBRANCH   6   7
ENDBRANCH   5   6
ENDBRANCH   4   5
ENDBRANCH   2   4
TORSDOF 4
ENDMDL
MODEL      226
REMARK 921   NORMALIZED FREE ENERGY PREDICTED BY IDOCK:   -2.30 KCAL/MOL
REMARK 922        TOTAL FREE ENERGY PREDICTED BY IDOCK:   -3.14 KCAL/MOL
REMARK 923 INTER-LIGAND FREE ENERGY PREDICTED BY IDOCK:   -2.72 KCAL/MOL
REMARK 924 INTRA-LIGAND FREE ENERGY PREDICTED BY IDOCK:   -0.42 KCAL/MOL
REMARK 927      BINDING AFFINITY PREDICTED BY RF-SCORE:    0.00 PKD
ROOT
HETATM    1  C   UNL     1      -7.705   2.745  74.044  1.00  0.00    -0.059 C  
HETATM    2  N   UNL     1      -7.444   3.784  73.049  1.00  0.00    -0.066 NA 
HETATM    3  C   UNL     1      -6.009   4.086  73.018  1.00  0.00    -0.015 C  
ENDROOT
BRANCH   2   4
HETATM    4  C   UNL     1      -7.968   3.380  71.721  1.00  0.00    -0.062 C  
BRANCH   4   5
HETATM    5  C   UNL     1      -7.329   4.166  70.568  1.00  0.00    -0.041 C  
BRANCH   5   6
HETATM    6  O   UNL     1      -8.291   4.701  69.654  1.00  0.00    -0.070 OA 
BRANCH   6   7
HETATM    7  C   UNL     1      -8.128   6.027  69.394  1.00  0.00    -0.111 C  
HETATM    8  C   UNL     1      -9.488   6.725  69.346  1.00  0.00    -0.147 C  
HETATM    9  O   UNL     1      -7.053   6.555  69.143  1.00  0.00    -0.082 OA 
HETATM   10  C   UNL     1     -10.230   6.699  70.682  1.00  0.00    -0.215 A  
HETATM   11  C   UNL     1      -9.380   8.145  68.711  1.00  0.00    -0.143 C  
HETATM   12  O   UNL     1      -8.566   9.008  69.512  1.00  0.00    -0.129 OA 
HETATM   13  C   UNL     1      -9.560   6.809  71.908  1.00  0.00    -0.150 A  
HETATM   14  C   UNL     1      -8.826   8.142  67.274  1.00  0.00    -0.136 C  
HETATM   15  C   UNL     1      -9.229   9.510  66.730  1.00  0.00    -0.184 C  
HETATM   16  H   UNL     1      -8.499   9.873  69.125  1.00  0.00     0.000 HD 
HETATM   17  C   UNL     1     -10.277   6.829  73.106  1.00  0.00    -0.253 A  
HETATM   18  C   UNL     1     -11.669   6.763  73.095  1.00  0.00     0.377 A  
HETATM   19  C   UNL     1     -10.614   9.760  67.306  1.00  0.00    -0.320 C  
HETATM   20  C   UNL     1     -10.749   8.830  68.515  1.00  0.00    -0.108 C  
HETATM   21  C   UNL     1     -12.347   6.650  71.888  1.00  0.00    -0.364 A  
HETATM   22  C   UNL     1     -11.632   6.599  70.693  1.00  0.00    -0.439 A  
ENDBRANCH   6   7
ENDBRANCH   5   6
ENDBRANCH   4   5
ENDBRANCH   2   4
TORSDOF 4
ENDMDL
MODEL      227
REMARK 921   NORMALIZED FREE ENERGY PREDICTED BY IDOCK:   -2.27 KCAL/MOL
REMARK 922        TOTAL FREE ENERGY PREDICTED BY IDOCK:   -3.10 KCAL/MOL
REMARK 923 INTER-LIGAND FREE ENERGY PREDICTED BY IDOCK:   -2.96 KCAL/MOL
REMARK 924 INTRA-LIGAND FREE ENERGY PREDICTED BY IDOCK:   -0.14 KCAL/MOL
REMARK 927      BINDING AFFINITY PREDICTED BY RF-SCORE:    0.00 PKD
ROOT
HETATM    1  C   UNL     1      -6.842  10.765  69.496  1.00  0.00    -0.116 C  
HETATM    2  N   UNL     1      -5.978  10.914  68.325  1.00  0.00    -0.046 NA 
HETATM    3  C   UNL     1      -6.459  10.045  67.245  1.00  0.00    -0.068 C  
ENDROOT
BRANCH   2   4
HETATM    4  C   UNL     1      -5.895  12.337  67.914  1.00  0.00    -0.079 C  
BRANCH   4   5
HETATM    5  C   UNL     1      -7.199  13.104  68.167  1.00  0.00    -0.117 C  
BRANCH   5   6
HETATM    6  O   UNL     1      -7.324  14.280  67.360  1.00  0.00    -0.181 OA 
BRANCH   6   7
HETATM    7  C   UNL     1      -6.771  15.392  67.918  1.00  0.00    -0.160 C  
HETATM    8  C   UNL     1      -7.630  16.619  67.605  1.00  0.00    -0.170 C  
HETATM    9  O   UNL     1      -5.695  15.412  68.499  1.00  0.00    -0.090 OA 
HETATM   10  C   UNL     1      -9.027  16.552  68.221  1.00  0.00    -0.214 A  
HETATM   11  C   UNL     1      -6.867  17.943  67.911  1.00  0.00    -0.194 C  
HETATM   12  O   UNL     1      -6.575  18.060  69.308  1.00  0.00    -0.250 OA 
HETATM   13  C   UNL     1      -9.260  15.980  69.479  1.00  0.00    -0.124 A  
HETATM   14  C   UNL     1      -5.556  18.101  67.120  1.00  0.00    -0.150 C  
HETATM   15  C   UNL     1      -5.246  19.592  67.229  1.00  0.00    -0.165 C  
HETATM   16  H   UNL     1      -6.110  18.867  69.494  1.00  0.00     0.000 HD 
HETATM   17  C   UNL     1     -10.544  15.981  70.030  1.00  0.00    -0.297 A  
HETATM   18  C   UNL     1     -11.604  16.571  69.343  1.00  0.00     0.090 A  
HETATM   19  C   UNL     1      -6.602  20.273  67.133  1.00  0.00    -0.265 C  
HETATM   20  C   UNL     1      -7.643  19.205  67.481  1.00  0.00    -0.260 C  
HETATM   21  C   UNL     1     -11.389  17.138  68.093  1.00  0.00     0.197 A  
HETATM   22  C   UNL     1     -10.116  17.111  67.528  1.00  0.00    -0.301 A  
ENDBRANCH   6   7
ENDBRANCH   5   6
ENDBRANCH   4   5
ENDBRANCH   2   4
TORSDOF 4
ENDMDL
MODEL      228
REMARK 921   NORMALIZED FREE ENERGY PREDICTED BY IDOCK:   -2.14 KCAL/MOL
REMARK 922        TOTAL FREE ENERGY PREDICTED BY IDOCK:   -2.94 KCAL/MOL
REMARK 923 INTER-LIGAND FREE ENERGY PREDICTED BY IDOCK:   -2.71 KCAL/MOL
REMARK 924 INTRA-LIGAND FREE ENERGY PREDICTED BY IDOCK:   -0.23 KCAL/MOL
REMARK 927      BINDING AFFINITY PREDICTED BY RF-SCORE:    0.00 PKD
ROOT
HETATM    1  C   UNL     1     -10.312  10.976  63.674  1.00  0.00    -0.352 C  
HETATM    2  N   UNL     1     -11.103  12.203  63.579  1.00  0.00    -0.441 NA 
HETATM    3  C   UNL     1     -12.531  11.869  63.577  1.00  0.00    -0.492 C  
ENDROOT
BRANCH   2   4
HETATM    4  C   UNL     1     -10.741  13.145  64.666  1.00  0.00    -0.380 C  
BRANCH   4   5
HETATM    5  C   UNL     1     -10.601  12.451  66.028  1.00  0.00    -0.256 C  
BRANCH   5   6
HETATM    6  O   UNL     1     -10.633  13.365  67.129  1.00  0.00    -0.257 OA 
BRANCH   6   7
HETATM    7  C   UNL     1      -9.548  14.184  67.199  1.00  0.00    -0.244 C  
HETATM    8  C   UNL     1      -9.976  15.592  67.615  1.00  0.00    -0.233 C  
HETATM    9  O   UNL     1      -8.413  13.855  66.882  1.00  0.00    -0.174 OA 
HETATM   10  C   UNL     1     -10.576  15.652  69.020  1.00  0.00    -0.234 A  
HETATM   11  C   UNL     1      -8.841  16.631  67.368  1.00  0.00    -0.188 C  
HETATM   12  O   UNL     1      -7.699  16.352  68.184  1.00  0.00    -0.153 OA 
HETATM   13  C   UNL     1     -10.100  14.852  70.068  1.00  0.00     0.091 A  
HETATM   14  C   UNL     1      -8.387  16.716  65.899  1.00  0.00     0.025 C  
HETATM   15  C   UNL     1      -7.645  18.048  65.828  1.00  0.00    -0.070 C  
HETATM   16  H   UNL     1      -7.006  16.985  68.033  1.00  0.00     0.000 HD 
HETATM   17  C   UNL     1     -10.642  14.970  71.349  1.00  0.00     0.553 A  
HETATM   18  C   UNL     1     -11.647  15.901  71.606  1.00  0.00    -0.541 A  
HETATM   19  C   UNL     1      -8.448  18.983  66.720  1.00  0.00    -0.307 C  
HETATM   20  C   UNL     1      -9.277  18.085  67.643  1.00  0.00    -0.259 C  
HETATM   21  C   UNL     1     -12.132  16.698  70.576  1.00  0.00     1.149 A  
HETATM   22  C   UNL     1     -11.614  16.560  69.290  1.00  0.00     0.051 A  
ENDBRANCH   6   7
ENDBRANCH   5   6
ENDBRANCH   4   5
ENDBRANCH   2   4
TORSDOF 4
ENDMDL
MODEL      229
REMARK 921   NORMALIZED FREE ENERGY PREDICTED BY IDOCK:   -2.11 KCAL/MOL
REMARK 922        TOTAL FREE ENERGY PREDICTED BY IDOCK:   -2.90 KCAL/MOL
REMARK 923 INTER-LIGAND FREE ENERGY PREDICTED BY IDOCK:   -2.98 KCAL/MOL
REMARK 924 INTRA-LIGAND FREE ENERGY PREDICTED BY IDOCK:    0.08 KCAL/MOL
REMARK 927      BINDING AFFINITY PREDICTED BY RF-SCORE:    0.00 PKD
ROOT
HETATM    1  C   UNL     1      -9.814  17.121  67.770  1.00  0.00    -0.274 C  
HETATM    2  N   UNL     1      -9.682  16.783  66.353  1.00  0.00    -0.275 NA 
HETATM    3  C   UNL     1      -8.337  16.257  66.095  1.00  0.00    -0.225 C  
ENDROOT
BRANCH   2   4
HETATM    4  C   UNL     1     -10.749  15.839  65.939  1.00  0.00    -0.313 C  
BRANCH   4   5
HETATM    5  C   UNL     1     -10.357  14.371  66.153  1.00  0.00    -0.298 C  
BRANCH   5   6
HETATM    6  O   UNL     1     -10.111  14.051  67.526  1.00  0.00    -0.233 OA 
BRANCH   6   7
HETATM    7  C   UNL     1      -9.619  12.796  67.721  1.00  0.00    -0.204 C  
HETATM    8  C   UNL     1      -8.140  12.745  67.332  1.00  0.00    -0.185 C  
HETATM    9  O   UNL     1     -10.293  11.835  68.064  1.00  0.00    -0.187 OA 
HETATM   10  C   UNL     1      -7.254  13.630  68.209  1.00  0.00    -0.111 A  
HETATM   11  C   UNL     1      -7.635  11.276  67.201  1.00  0.00    -0.137 C  
HETATM   12  O   UNL     1      -7.696  10.595  68.459  1.00  0.00    -0.096 OA 
HETATM   13  C   UNL     1      -7.493  13.799  69.579  1.00  0.00     0.339 A  
HETATM   14  C   UNL     1      -8.401  10.447  66.155  1.00  0.00    -0.149 C  
HETATM   15  C   UNL     1      -7.479   9.261  65.889  1.00  0.00    -0.095 C  
HETATM   16  H   UNL     1      -7.388   9.699  68.378  1.00  0.00     0.000 HD 
HETATM   17  C   UNL     1      -6.633  14.577  70.356  1.00  0.00    -0.044 A  
HETATM   18  C   UNL     1      -5.512  15.176  69.782  1.00  0.00    -0.105 A  
HETATM   19  C   UNL     1      -6.077   9.850  65.918  1.00  0.00    -0.074 C  
HETATM   20  C   UNL     1      -6.187  11.176  66.676  1.00  0.00    -0.136 C  
HETATM   21  C   UNL     1      -5.264  15.020  68.424  1.00  0.00    -0.110 A  
HETATM   22  C   UNL     1      -6.139  14.270  67.640  1.00  0.00    -0.071 A  
ENDBRANCH   6   7
ENDBRANCH   5   6
ENDBRANCH   4   5
ENDBRANCH   2   4
TORSDOF 4
ENDMDL
MODEL      230
REMARK 921   NORMALIZED FREE ENERGY PREDICTED BY IDOCK:   -2.01 KCAL/MOL
REMARK 922        TOTAL FREE ENERGY PREDICTED BY IDOCK:   -2.78 KCAL/MOL
REMARK 923 INTER-LIGAND FREE ENERGY PREDICTED BY IDOCK:   -2.55 KCAL/MOL
REMARK 924 INTRA-LIGAND FREE ENERGY PREDICTED BY IDOCK:   -0.23 KCAL/MOL
REMARK 927      BINDING AFFINITY PREDICTED BY RF-SCORE:    0.00 PKD
ROOT
HETATM    1  C   UNL     1      -7.361   3.941  72.419  1.00  0.00    -0.058 C  
HETATM    2  N   UNL     1      -7.080   5.375  72.480  1.00  0.00    -0.085 NA 
HETATM    3  C   UNL     1      -5.839   5.601  73.228  1.00  0.00    -0.036 C  
ENDROOT
BRANCH   2   4
HETATM    4  C   UNL     1      -7.035   5.958  71.117  1.00  0.00    -0.068 C  
BRANCH   4   5
HETATM    5  C   UNL     1      -6.705   7.457  71.124  1.00  0.00    -0.047 C  
BRANCH   5   6
HETATM    6  O   UNL     1      -6.959   8.093  69.868  1.00  0.00    -0.046 OA 
BRANCH   6   7
HETATM    7  C   UNL     1      -7.307   9.405  69.974  1.00  0.00    -0.101 C  
HETATM    8  C   UNL     1      -6.850  10.173  68.733  1.00  0.00    -0.061 C  
HETATM    9  O   UNL     1      -7.823   9.905  70.964  1.00  0.00    -0.172 OA 
HETATM   10  C   UNL     1      -7.538   9.711  67.448  1.00  0.00    -0.095 A  
HETATM   11  C   UNL     1      -6.906  11.713  68.961  1.00  0.00    -0.105 C  
HETATM   12  O   UNL     1      -8.250  12.155  69.176  1.00  0.00    -0.336 OA 
HETATM   13  C   UNL     1      -8.881   9.309  67.426  1.00  0.00    -0.124 A  
HETATM   14  C   UNL     1      -6.035  12.199  70.133  1.00  0.00    -0.154 C  
HETATM   15  C   UNL     1      -5.893  13.698  69.881  1.00  0.00    -0.124 C  
HETATM   16  H   UNL     1      -8.284  13.094  69.316  1.00  0.00     0.000 HD 
HETATM   17  C   UNL     1      -9.488   8.939  66.224  1.00  0.00    -0.304 A  
HETATM   18  C   UNL     1      -8.772   8.988  65.028  1.00  0.00    -0.217 A  
HETATM   19  C   UNL     1      -5.760  13.822  68.371  1.00  0.00    -0.101 C  
HETATM   20  C   UNL     1      -6.322  12.524  67.784  1.00  0.00    -0.121 C  
HETATM   21  C   UNL     1      -7.439   9.381  65.036  1.00  0.00    -0.106 A  
HETATM   22  C   UNL     1      -6.822   9.720  66.238  1.00  0.00    -0.092 A  
ENDBRANCH   6   7
ENDBRANCH   5   6
ENDBRANCH   4   5
ENDBRANCH   2   4
TORSDOF 4
ENDMDL
MODEL      231
REMARK 921   NORMALIZED FREE ENERGY PREDICTED BY IDOCK:   -1.96 KCAL/MOL
REMARK 922        TOTAL FREE ENERGY PREDICTED BY IDOCK:   -2.72 KCAL/MOL
REMARK 923 INTER-LIGAND FREE ENERGY PREDICTED BY IDOCK:   -2.57 KCAL/MOL
REMARK 924 INTRA-LIGAND FREE ENERGY PREDICTED BY IDOCK:   -0.16 KCAL/MOL
REMARK 927      BINDING AFFINITY PREDICTED BY RF-SCORE:    0.00 PKD
ROOT
HETATM    1  C   UNL     1     -10.555   6.520  71.014  1.00  0.00    -0.231 C  
HETATM    2  N   UNL     1      -9.556   6.847  72.030  1.00  0.00    -0.144 NA 
HETATM    3  C   UNL     1      -9.267   5.656  72.836  1.00  0.00    -0.135 C  
ENDROOT
BRANCH   2   4
HETATM    4  C   UNL     1      -8.339   7.417  71.404  1.00  0.00    -0.112 C  
BRANCH   4   5
HETATM    5  C   UNL     1      -8.616   8.730  70.658  1.00  0.00    -0.178 C  
BRANCH   5   6
HETATM    6  O   UNL     1      -7.425   9.373  70.193  1.00  0.00    -0.086 OA 
BRANCH   6   7
HETATM    7  C   UNL     1      -6.770   8.683  69.219  1.00  0.00    -0.050 C  
HETATM    8  C   UNL     1      -7.755   8.235  68.138  1.00  0.00    -0.106 C  
HETATM    9  O   UNL     1      -5.583   8.388  69.259  1.00  0.00    -0.030 OA 
HETATM   10  C   UNL     1      -8.407   9.399  67.393  1.00  0.00    -0.125 A  
HETATM   11  C   UNL     1      -7.127   7.158  67.203  1.00  0.00    -0.087 C  
HETATM   12  O   UNL     1      -6.018   7.693  66.473  1.00  0.00    -0.038 OA 
HETATM   13  C   UNL     1      -7.708  10.577  67.095  1.00  0.00    -0.101 A  
HETATM   14  C   UNL     1      -6.663   5.889  67.941  1.00  0.00    -0.058 C  
HETATM   15  C   UNL     1      -6.523   4.855  66.827  1.00  0.00    -0.041 C  
HETATM   16  H   UNL     1      -5.634   7.036  65.903  1.00  0.00     0.000 HD 
HETATM   17  C   UNL     1      -8.324  11.600  66.369  1.00  0.00    -0.084 A  
HETATM   18  C   UNL     1      -9.633  11.451  65.914  1.00  0.00    -0.254 A  
HETATM   19  C   UNL     1      -7.685   5.141  65.889  1.00  0.00    -0.091 C  
HETATM   20  C   UNL     1      -8.130   6.576  66.185  1.00  0.00    -0.118 C  
HETATM   21  C   UNL     1     -10.340  10.291  66.206  1.00  0.00    -0.256 A  
HETATM   22  C   UNL     1      -9.738   9.282  66.956  1.00  0.00    -0.241 A  
ENDBRANCH   6   7
ENDBRANCH   5   6
ENDBRANCH   4   5
ENDBRANCH   2   4
TORSDOF 4
ENDMDL
MODEL      232
REMARK 921   NORMALIZED FREE ENERGY PREDICTED BY IDOCK:   -1.95 KCAL/MOL
REMARK 922        TOTAL FREE ENERGY PREDICTED BY IDOCK:   -2.70 KCAL/MOL
REMARK 923 INTER-LIGAND FREE ENERGY PREDICTED BY IDOCK:   -3.22 KCAL/MOL
REMARK 924 INTRA-LIGAND FREE ENERGY PREDICTED BY IDOCK:    0.52 KCAL/MOL
REMARK 927      BINDING AFFINITY PREDICTED BY RF-SCORE:    0.00 PKD
ROOT
HETATM    1  C   UNL     1      -9.679  10.090  64.800  1.00  0.00    -0.293 C  
HETATM    2  N   UNL     1      -8.440  10.158  65.573  1.00  0.00    -0.146 NA 
HETATM    3  C   UNL     1      -7.291  10.165  64.661  1.00  0.00    -0.129 C  
ENDROOT
BRANCH   2   4
HETATM    4  C   UNL     1      -8.452  11.332  66.480  1.00  0.00    -0.171 C  
BRANCH   4   5
HETATM    5  C   UNL     1      -9.649  11.328  67.439  1.00  0.00    -0.169 C  
BRANCH   5   6
HETATM    6  O   UNL     1      -9.263  11.294  68.817  1.00  0.00    -0.182 OA 
BRANCH   6   7
HETATM    7  C   UNL     1      -8.149  10.551  69.060  1.00  0.00    -0.143 C  
HETATM    8  C   UNL     1      -8.472   9.425  70.044  1.00  0.00    -0.202 C  
HETATM    9  O   UNL     1      -7.036  10.811  68.625  1.00  0.00    -0.064 OA 
HETATM   10  C   UNL     1      -9.479   8.413  69.497  1.00  0.00    -0.166 A  
HETATM   11  C   UNL     1      -7.175   8.778  70.618  1.00  0.00    -0.066 C  
HETATM   12  O   UNL     1      -6.415   8.141  69.586  1.00  0.00    -0.036 OA 
HETATM   13  C   UNL     1      -9.495   8.034  68.148  1.00  0.00    -0.152 A  
HETATM   14  C   UNL     1      -6.261   9.772  71.358  1.00  0.00     0.086 C  
HETATM   15  C   UNL     1      -5.345   8.873  72.183  1.00  0.00    -0.055 C  
HETATM   16  H   UNL     1      -5.624   7.747  69.935  1.00  0.00     0.000 HD 
HETATM   17  C   UNL     1     -10.400   7.070  67.696  1.00  0.00    -0.270 A  
HETATM   18  C   UNL     1     -11.281   6.459  68.586  1.00  0.00    -0.338 A  
HETATM   19  C   UNL     1      -6.243   7.741  72.658  1.00  0.00    -0.061 C  
HETATM   20  C   UNL     1      -7.452   7.733  71.719  1.00  0.00    -0.074 C  
HETATM   21  C   UNL     1     -11.280   6.828  69.926  1.00  0.00    -0.379 A  
HETATM   22  C   UNL     1     -10.399   7.811  70.373  1.00  0.00    -0.212 A  
ENDBRANCH   6   7
ENDBRANCH   5   6
ENDBRANCH   4   5
ENDBRANCH   2   4
TORSDOF 4
ENDMDL
MODEL      233
REMARK 921   NORMALIZED FREE ENERGY PREDICTED BY IDOCK:   -1.93 KCAL/MOL
REMARK 922        TOTAL FREE ENERGY PREDICTED BY IDOCK:   -2.69 KCAL/MOL
REMARK 923 INTER-LIGAND FREE ENERGY PREDICTED BY IDOCK:   -2.66 KCAL/MOL
REMARK 924 INTRA-LIGAND FREE ENERGY PREDICTED BY IDOCK:   -0.03 KCAL/MOL
REMARK 927      BINDING AFFINITY PREDICTED BY RF-SCORE:    0.00 PKD
ROOT
HETATM    1  C   UNL     1      -6.438   5.970  73.605  1.00  0.00    -0.070 C  
HETATM    2  N   UNL     1      -6.093   5.421  72.294  1.00  0.00    -0.033 NA 
HETATM    3  C   UNL     1      -7.245   4.700  71.744  1.00  0.00    -0.064 C  
ENDROOT
BRANCH   2   4
HETATM    4  C   UNL     1      -5.609   6.493  71.389  1.00  0.00    -0.027 C  
BRANCH   4   5
HETATM    5  C   UNL     1      -6.535   6.715  70.186  1.00  0.00    -0.040 C  
BRANCH   5   6
HETATM    6  O   UNL     1      -7.663   7.540  70.492  1.00  0.00    -0.091 OA 
BRANCH   6   7
HETATM    7  C   UNL     1      -7.817   8.600  69.651  1.00  0.00    -0.094 C  
HETATM    8  C   UNL     1      -7.646   8.148  68.199  1.00  0.00    -0.105 C  
HETATM    9  O   UNL     1      -7.973   9.756  70.017  1.00  0.00    -0.154 OA 
HETATM   10  C   UNL     1      -8.717   7.156  67.744  1.00  0.00    -0.125 A  
HETATM   11  C   UNL     1      -7.462   9.362  67.240  1.00  0.00    -0.091 C  
HETATM   12  O   UNL     1      -8.632  10.187  67.220  1.00  0.00    -0.125 OA 
HETATM   13  C   UNL     1     -10.047   7.246  68.176  1.00  0.00    -0.201 A  
HETATM   14  C   UNL     1      -6.246  10.243  67.581  1.00  0.00    -0.057 C  
HETATM   15  C   UNL     1      -6.014  11.047  66.305  1.00  0.00    -0.143 C  
HETATM   16  H   UNL     1      -8.520  10.928  66.636  1.00  0.00     0.000 HD 
HETATM   17  C   UNL     1     -11.007   6.350  67.701  1.00  0.00    -0.441 A  
HETATM   18  C   UNL     1     -10.658   5.370  66.773  1.00  0.00    -0.339 A  
HETATM   19  C   UNL     1      -6.300  10.068  65.177  1.00  0.00    -0.114 C  
HETATM   20  C   UNL     1      -7.148   8.948  65.787  1.00  0.00    -0.084 C  
HETATM   21  C   UNL     1      -9.342   5.265  66.339  1.00  0.00    -0.153 A  
HETATM   22  C   UNL     1      -8.376   6.139  66.836  1.00  0.00    -0.106 A  
ENDBRANCH   6   7
ENDBRANCH   5   6
ENDBRANCH   4   5
ENDBRANCH   2   4
TORSDOF 4
ENDMDL
MODEL      234
REMARK 921   NORMALIZED FREE ENERGY PREDICTED BY IDOCK:   -1.92 KCAL/MOL
REMARK 922        TOTAL FREE ENERGY PREDICTED BY IDOCK:   -2.67 KCAL/MOL
REMARK 923 INTER-LIGAND FREE ENERGY PREDICTED BY IDOCK:   -2.61 KCAL/MOL
REMARK 924 INTRA-LIGAND FREE ENERGY PREDICTED BY IDOCK:   -0.05 KCAL/MOL
REMARK 927      BINDING AFFINITY PREDICTED BY RF-SCORE:    0.00 PKD
ROOT
HETATM    1  C   UNL     1     -12.263   9.976  70.605  1.00  0.00    -0.269 C  
HETATM    2  N   UNL     1     -12.448   8.891  71.569  1.00  0.00    -0.312 NA 
HETATM    3  C   UNL     1     -13.879   8.620  71.736  1.00  0.00    -0.425 C  
ENDROOT
BRANCH   2   4
HETATM    4  C   UNL     1     -11.686   7.688  71.155  1.00  0.00    -0.290 C  
BRANCH   4   5
HETATM    5  C   UNL     1     -10.698   7.975  70.016  1.00  0.00    -0.244 C  
BRANCH   5   6
HETATM    6  O   UNL     1      -9.511   8.641  70.458  1.00  0.00    -0.163 OA 
BRANCH   6   7
HETATM    7  C   UNL     1      -8.539   8.726  69.509  1.00  0.00    -0.130 C  
HETATM    8  C   UNL     1      -9.120   9.291  68.211  1.00  0.00    -0.128 C  
HETATM    9  O   UNL     1      -7.395   8.318  69.652  1.00  0.00    -0.069 OA 
HETATM   10  C   UNL     1      -9.628  10.727  68.351  1.00  0.00    -0.177 A  
HETATM   11  C   UNL     1      -8.150   9.078  67.010  1.00  0.00    -0.106 C  
HETATM   12  O   UNL     1      -6.929   9.802  67.198  1.00  0.00    -0.083 OA 
HETATM   13  C   UNL     1      -8.982  11.669  69.162  1.00  0.00     0.335 A  
HETATM   14  C   UNL     1      -7.809   7.601  66.743  1.00  0.00    -0.107 C  
HETATM   15  C   UNL     1      -7.255   7.611  65.320  1.00  0.00    -0.065 C  
HETATM   16  H   UNL     1      -6.337   9.671  66.466  1.00  0.00     0.000 HD 
HETATM   17  C   UNL     1      -9.449  12.984  69.226  1.00  0.00     0.823 A  
HETATM   18  C   UNL     1     -10.548  13.380  68.465  1.00  0.00    -0.264 A  
HETATM   19  C   UNL     1      -8.112   8.626  64.581  1.00  0.00    -0.156 C  
HETATM   20  C   UNL     1      -8.754   9.508  65.657  1.00  0.00    -0.173 C  
HETATM   21  C   UNL     1     -11.201  12.455  67.659  1.00  0.00    -0.340 A  
HETATM   22  C   UNL     1     -10.756  11.135  67.618  1.00  0.00    -0.273 A  
ENDBRANCH   6   7
ENDBRANCH   5   6
ENDBRANCH   4   5
ENDBRANCH   2   4
TORSDOF 4
ENDMDL
MODEL      235
REMARK 921   NORMALIZED FREE ENERGY PREDICTED BY IDOCK:   -1.87 KCAL/MOL
REMARK 922        TOTAL FREE ENERGY PREDICTED BY IDOCK:   -2.61 KCAL/MOL
REMARK 923 INTER-LIGAND FREE ENERGY PREDICTED BY IDOCK:   -2.50 KCAL/MOL
REMARK 924 INTRA-LIGAND FREE ENERGY PREDICTED BY IDOCK:   -0.11 KCAL/MOL
REMARK 927      BINDING AFFINITY PREDICTED BY RF-SCORE:    0.00 PKD
ROOT
HETATM    1  C   UNL     1     -12.662   7.275  70.836  1.00  0.00    -0.154 C  
HETATM    2  N   UNL     1     -12.142   7.094  72.191  1.00  0.00    -0.276 NA 
HETATM    3  C   UNL     1     -12.438   5.734  72.653  1.00  0.00     0.301 C  
ENDROOT
BRANCH   2   4
HETATM    4  C   UNL     1     -10.693   7.409  72.243  1.00  0.00    -0.235 C  
BRANCH   4   5
HETATM    5  C   UNL     1     -10.401   8.895  71.995  1.00  0.00    -0.307 C  
BRANCH   5   6
HETATM    6  O   UNL     1      -9.775   9.141  70.732  1.00  0.00    -0.228 OA 
BRANCH   6   7
HETATM    7  C   UNL     1      -8.443   8.865  70.713  1.00  0.00    -0.182 C  
HETATM    8  C   UNL     1      -8.211   7.422  70.260  1.00  0.00    -0.132 C  
HETATM    9  O   UNL     1      -7.571   9.634  71.095  1.00  0.00    -0.318 OA 
HETATM   10  C   UNL     1      -8.664   7.158  68.824  1.00  0.00    -0.124 A  
HETATM   11  C   UNL     1      -6.754   6.957  70.559  1.00  0.00    -0.053 C  
HETATM   12  O   UNL     1      -5.803   7.721  69.809  1.00  0.00    -0.023 OA 
HETATM   13  C   UNL     1      -8.527   8.117  67.812  1.00  0.00    -0.132 A  
HETATM   14  C   UNL     1      -6.373   7.025  72.049  1.00  0.00    -0.044 C  
HETATM   15  C   UNL     1      -5.139   6.133  72.148  1.00  0.00    -0.022 C  
HETATM   16  H   UNL     1      -4.915   7.438  69.992  1.00  0.00     0.000 HD 
HETATM   17  C   UNL     1      -8.908   7.821  66.502  1.00  0.00    -0.175 A  
HETATM   18  C   UNL     1      -9.408   6.560  66.181  1.00  0.00    -0.101 A  
HETATM   19  C   UNL     1      -5.426   4.975  71.205  1.00  0.00    -0.004 C  
HETATM   20  C   UNL     1      -6.516   5.464  70.247  1.00  0.00    -0.034 C  
HETATM   21  C   UNL     1      -9.553   5.600  67.175  1.00  0.00    -0.137 A  
HETATM   22  C   UNL     1      -9.202   5.903  68.489  1.00  0.00    -0.119 A  
ENDBRANCH   6   7
ENDBRANCH   5   6
ENDBRANCH   4   5
ENDBRANCH   2   4
TORSDOF 4
ENDMDL
MODEL      236
REMARK 921   NORMALIZED FREE ENERGY PREDICTED BY IDOCK:   -1.82 KCAL/MOL
REMARK 922        TOTAL FREE ENERGY PREDICTED BY IDOCK:   -2.56 KCAL/MOL
REMARK 923 INTER-LIGAND FREE ENERGY PREDICTED BY IDOCK:   -2.20 KCAL/MOL
REMARK 924 INTRA-LIGAND FREE ENERGY PREDICTED BY IDOCK:   -0.36 KCAL/MOL
REMARK 927      BINDING AFFINITY PREDICTED BY RF-SCORE:    0.00 PKD
ROOT
HETATM    1  C   UNL     1      -6.739  13.692  69.699  1.00  0.00     0.011 C  
HETATM    2  N   UNL     1      -5.800  12.671  69.237  1.00  0.00    -0.080 NA 
HETATM    3  C   UNL     1      -5.328  11.884  70.381  1.00  0.00    -0.131 C  
ENDROOT
BRANCH   2   4
HETATM    4  C   UNL     1      -6.418  11.828  68.185  1.00  0.00    -0.051 C  
BRANCH   4   5
HETATM    5  C   UNL     1      -7.082  10.565  68.751  1.00  0.00    -0.073 C  
BRANCH   5   6
HETATM    6  O   UNL     1      -7.073   9.468  67.833  1.00  0.00    -0.079 OA 
BRANCH   6   7
HETATM    7  C   UNL     1      -6.500   8.337  68.330  1.00  0.00    -0.059 C  
HETATM    8  C   UNL     1      -7.495   7.592  69.222  1.00  0.00    -0.094 C  
HETATM    9  O   UNL     1      -5.330   8.022  68.160  1.00  0.00    -0.031 OA 
HETATM   10  C   UNL     1      -8.722   7.083  68.466  1.00  0.00    -0.122 A  
HETATM   11  C   UNL     1      -6.786   6.503  70.083  1.00  0.00    -0.058 C  
HETATM   12  O   UNL     1      -6.217   5.482  69.257  1.00  0.00    -0.026 OA 
HETATM   13  C   UNL     1      -8.641   6.602  67.152  1.00  0.00    -0.112 A  
HETATM   14  C   UNL     1      -5.687   7.059  71.005  1.00  0.00    -0.028 C  
HETATM   15  C   UNL     1      -5.474   5.944  72.025  1.00  0.00    -0.022 C  
HETATM   16  H   UNL     1      -5.784   4.818  69.781  1.00  0.00     0.000 HD 
HETATM   17  C   UNL     1      -9.776   6.101  66.511  1.00  0.00    -0.184 A  
HETATM   18  C   UNL     1     -10.999   6.052  67.180  1.00  0.00    -0.360 A  
HETATM   19  C   UNL     1      -6.867   5.394  72.289  1.00  0.00    -0.078 C  
HETATM   20  C   UNL     1      -7.729   5.822  71.098  1.00  0.00    -0.109 C  
HETATM   21  C   UNL     1     -11.095   6.529  68.481  1.00  0.00    -0.347 A  
HETATM   22  C   UNL     1      -9.971   7.058  69.112  1.00  0.00    -0.165 A  
ENDBRANCH   6   7
ENDBRANCH   5   6
ENDBRANCH   4   5
ENDBRANCH   2   4
TORSDOF 4
ENDMDL
MODEL      237
REMARK 921   NORMALIZED FREE ENERGY PREDICTED BY IDOCK:   -1.78 KCAL/MOL
REMARK 922        TOTAL FREE ENERGY PREDICTED BY IDOCK:   -2.50 KCAL/MOL
REMARK 923 INTER-LIGAND FREE ENERGY PREDICTED BY IDOCK:   -2.18 KCAL/MOL
REMARK 924 INTRA-LIGAND FREE ENERGY PREDICTED BY IDOCK:   -0.32 KCAL/MOL
REMARK 927      BINDING AFFINITY PREDICTED BY RF-SCORE:    0.00 PKD
ROOT
HETATM    1  C   UNL     1      -7.346   2.985  73.564  1.00  0.00    -0.050 C  
HETATM    2  N   UNL     1      -6.740   4.173  72.964  1.00  0.00    -0.045 NA 
HETATM    3  C   UNL     1      -5.306   4.202  73.271  1.00  0.00    -0.003 C  
ENDROOT
BRANCH   2   4
HETATM    4  C   UNL     1      -7.009   4.218  71.506  1.00  0.00    -0.038 C  
BRANCH   4   5
HETATM    5  C   UNL     1      -5.984   5.065  70.740  1.00  0.00    -0.018 C  
BRANCH   5   6
HETATM    6  O   UNL     1      -6.582   5.922  69.763  1.00  0.00    -0.043 OA 
BRANCH   6   7
HETATM    7  C   UNL     1      -6.283   7.239  69.927  1.00  0.00    -0.027 C  
HETATM    8  C   UNL     1      -7.564   8.075  69.920  1.00  0.00    -0.087 C  
HETATM    9  O   UNL     1      -5.146   7.689  69.975  1.00  0.00    -0.022 OA 
HETATM   10  C   UNL     1      -8.498   7.760  71.089  1.00  0.00    -0.115 A  
HETATM   11  C   UNL     1      -7.255   9.593  69.749  1.00  0.00    -0.094 C  
HETATM   12  O   UNL     1      -6.509  10.097  70.863  1.00  0.00    -0.281 OA 
HETATM   13  C   UNL     1      -8.013   7.443  72.365  1.00  0.00    -0.112 A  
HETATM   14  C   UNL     1      -6.494   9.930  68.454  1.00  0.00    -0.054 C  
HETATM   15  C   UNL     1      -6.707  11.432  68.292  1.00  0.00    -0.059 C  
HETATM   16  H   UNL     1      -6.320  11.022  70.758  1.00  0.00     0.000 HD 
HETATM   17  C   UNL     1      -8.899   7.208  73.419  1.00  0.00    -0.175 A  
HETATM   18  C   UNL     1     -10.275   7.309  73.219  1.00  0.00    -0.365 A  
HETATM   19  C   UNL     1      -8.140  11.669  68.742  1.00  0.00    -0.072 C  
HETATM   20  C   UNL     1      -8.524  10.458  69.598  1.00  0.00    -0.068 C  
HETATM   21  C   UNL     1     -10.770   7.618  71.959  1.00  0.00    -0.270 A  
HETATM   22  C   UNL     1      -9.889   7.823  70.898  1.00  0.00    -0.182 A  
ENDBRANCH   6   7
ENDBRANCH   5   6
ENDBRANCH   4   5
ENDBRANCH   2   4
TORSDOF 4
ENDMDL
MODEL      238
REMARK 921   NORMALIZED FREE ENERGY PREDICTED BY IDOCK:   -1.67 KCAL/MOL
REMARK 922        TOTAL FREE ENERGY PREDICTED BY IDOCK:   -2.37 KCAL/MOL
REMARK 923 INTER-LIGAND FREE ENERGY PREDICTED BY IDOCK:   -3.13 KCAL/MOL
REMARK 924 INTRA-LIGAND FREE ENERGY PREDICTED BY IDOCK:    0.76 KCAL/MOL
REMARK 927      BINDING AFFINITY PREDICTED BY RF-SCORE:    0.00 PKD
ROOT
HETATM    1  C   UNL     1     -10.178  10.620  64.744  1.00  0.00    -0.331 C  
HETATM    2  N   UNL     1      -9.888  11.418  65.936  1.00  0.00    -0.217 NA 
HETATM    3  C   UNL     1      -9.922  12.844  65.593  1.00  0.00    -0.235 C  
ENDROOT
BRANCH   2   4
HETATM    4  C   UNL     1     -10.824  11.076  67.035  1.00  0.00    -0.279 C  
BRANCH   4   5
HETATM    5  C   UNL     1     -10.375  11.636  68.391  1.00  0.00    -0.204 C  
BRANCH   5   6
HETATM    6  O   UNL     1     -10.267  10.632  69.405  1.00  0.00    -0.220 OA 
BRANCH   6   7
HETATM    7  C   UNL     1      -9.673   9.482  68.982  1.00  0.00    -0.170 C  
HETATM    8  C   UNL     1      -8.479   9.807  68.082  1.00  0.00    -0.114 C  
HETATM    9  O   UNL     1     -10.097   8.358  69.214  1.00  0.00    -0.191 OA 
HETATM   10  C   UNL     1      -7.361  10.555  68.808  1.00  0.00    -0.092 A  
HETATM   11  C   UNL     1      -7.994   8.549  67.300  1.00  0.00    -0.102 C  
HETATM   12  O   UNL     1      -7.502   7.544  68.193  1.00  0.00    -0.099 OA 
HETATM   13  C   UNL     1      -7.031  10.289  70.144  1.00  0.00    -0.159 A  
HETATM   14  C   UNL     1      -9.074   7.923  66.401  1.00  0.00    -0.221 C  
HETATM   15  C   UNL     1      -8.278   7.043  65.440  1.00  0.00    -0.133 C  
HETATM   16  H   UNL     1      -7.207   6.777  67.716  1.00  0.00     0.000 HD 
HETATM   17  C   UNL     1      -5.971  10.960  70.758  1.00  0.00    -0.034 A  
HETATM   18  C   UNL     1      -5.214  11.886  70.042  1.00  0.00    -0.086 A  
HETATM   19  C   UNL     1      -7.019   7.842  65.142  1.00  0.00    -0.059 C  
HETATM   20  C   UNL     1      -6.881   8.861  66.277  1.00  0.00    -0.074 C  
HETATM   21  C   UNL     1      -5.532  12.163  68.718  1.00  0.00    -0.050 A  
HETATM   22  C   UNL     1      -6.608  11.518  68.112  1.00  0.00    -0.057 A  
ENDBRANCH   6   7
ENDBRANCH   5   6
ENDBRANCH   4   5
ENDBRANCH   2   4
TORSDOF 4
ENDMDL
MODEL      239
REMARK 921   NORMALIZED FREE ENERGY PREDICTED BY IDOCK:   -1.67 KCAL/MOL
REMARK 922        TOTAL FREE ENERGY PREDICTED BY IDOCK:   -2.37 KCAL/MOL
REMARK 923 INTER-LIGAND FREE ENERGY PREDICTED BY IDOCK:   -2.03 KCAL/MOL
REMARK 924 INTRA-LIGAND FREE ENERGY PREDICTED BY IDOCK:   -0.34 KCAL/MOL
REMARK 927      BINDING AFFINITY PREDICTED BY RF-SCORE:    0.00 PKD
ROOT
HETATM    1  C   UNL     1      -6.644   6.972  74.546  1.00  0.00    -0.087 C  
HETATM    2  N   UNL     1      -6.285   6.107  73.422  1.00  0.00    -0.062 NA 
HETATM    3  C   UNL     1      -6.705   4.731  73.708  1.00  0.00    -0.068 C  
ENDROOT
BRANCH   2   4
HETATM    4  C   UNL     1      -6.861   6.625  72.157  1.00  0.00    -0.067 C  
BRANCH   4   5
HETATM    5  C   UNL     1      -8.343   7.000  72.291  1.00  0.00    -0.110 C  
BRANCH   5   6
HETATM    6  O   UNL     1      -9.223   6.009  71.753  1.00  0.00    -0.145 OA 
BRANCH   6   7
HETATM    7  C   UNL     1     -10.273   6.523  71.055  1.00  0.00    -0.189 C  
HETATM    8  C   UNL     1      -9.771   7.514  70.004  1.00  0.00    -0.172 C  
HETATM    9  O   UNL     1     -11.449   6.292  71.304  1.00  0.00    -0.298 OA 
HETATM   10  C   UNL     1      -8.896   6.867  68.931  1.00  0.00    -0.129 A  
HETATM   11  C   UNL     1     -10.935   8.379  69.433  1.00  0.00    -0.002 C  
HETATM   12  O   UNL     1     -11.885   7.569  68.732  1.00  0.00     0.458 OA 
HETATM   13  C   UNL     1      -9.145   5.576  68.446  1.00  0.00    -0.117 A  
HETATM   14  C   UNL     1     -11.681   9.199  70.501  1.00  0.00    -0.193 C  
HETATM   15  C   UNL     1     -12.424  10.257  69.690  1.00  0.00     0.127 C  
HETATM   16  H   UNL     1     -12.595   8.097  68.384  1.00  0.00     0.000 HD 
HETATM   17  C   UNL     1      -8.351   5.037  67.431  1.00  0.00    -0.106 A  
HETATM   18  C   UNL     1      -7.317   5.786  66.872  1.00  0.00    -0.079 A  
HETATM   19  C   UNL     1     -11.457  10.639  68.580  1.00  0.00    -0.332 C  
HETATM   20  C   UNL     1     -10.454   9.487  68.472  1.00  0.00    -0.247 C  
HETATM   21  C   UNL     1      -7.055   7.066  67.346  1.00  0.00    -0.088 A  
HETATM   22  C   UNL     1      -7.826   7.594  68.381  1.00  0.00    -0.121 A  
ENDBRANCH   6   7
ENDBRANCH   5   6
ENDBRANCH   4   5
ENDBRANCH   2   4
TORSDOF 4
ENDMDL
MODEL      240
REMARK 921   NORMALIZED FREE ENERGY PREDICTED BY IDOCK:   -1.57 KCAL/MOL
REMARK 922        TOTAL FREE ENERGY PREDICTED BY IDOCK:   -2.24 KCAL/MOL
REMARK 923 INTER-LIGAND FREE ENERGY PREDICTED BY IDOCK:   -2.23 KCAL/MOL
REMARK 924 INTRA-LIGAND FREE ENERGY PREDICTED BY IDOCK:   -0.01 KCAL/MOL
REMARK 927      BINDING AFFINITY PREDICTED BY RF-SCORE:    0.00 PKD
ROOT
HETATM    1  C   UNL     1     -11.284   6.121  70.644  1.00  0.00    -0.319 C  
HETATM    2  N   UNL     1     -10.481   6.038  71.863  1.00  0.00    -0.212 NA 
HETATM    3  C   UNL     1     -10.292   4.632  72.233  1.00  0.00    -0.185 C  
ENDROOT
BRANCH   2   4
HETATM    4  C   UNL     1      -9.194   6.757  71.692  1.00  0.00    -0.144 C  
BRANCH   4   5
HETATM    5  C   UNL     1      -9.304   7.946  70.728  1.00  0.00    -0.157 C  
BRANCH   5   6
HETATM    6  O   UNL     1      -8.087   8.209  70.022  1.00  0.00    -0.109 OA 
BRANCH   6   7
HETATM    7  C   UNL     1      -7.338   7.098  69.781  1.00  0.00    -0.085 C  
HETATM    8  C   UNL     1      -7.692   6.511  68.414  1.00  0.00    -0.105 C  
HETATM    9  O   UNL     1      -6.566   6.596  70.587  1.00  0.00    -0.050 OA 
HETATM   10  C   UNL     1      -7.356   7.443  67.250  1.00  0.00    -0.098 A  
HETATM   11  C   UNL     1      -7.130   5.066  68.249  1.00  0.00    -0.062 C  
HETATM   12  O   UNL     1      -5.699   5.063  68.277  1.00  0.00    -0.015 OA 
HETATM   13  C   UNL     1      -6.220   8.264  67.257  1.00  0.00    -0.056 A  
HETATM   14  C   UNL     1      -7.645   4.076  69.309  1.00  0.00    -0.054 C  
HETATM   15  C   UNL     1      -7.345   2.709  68.700  1.00  0.00    -0.048 C  
HETATM   16  H   UNL     1      -5.356   4.182  68.177  1.00  0.00     0.000 HD 
HETATM   17  C   UNL     1      -5.921   9.067  66.154  1.00  0.00    -0.055 A  
HETATM   18  C   UNL     1      -6.736   9.043  65.023  1.00  0.00    -0.069 A  
HETATM   19  C   UNL     1      -7.630   2.878  67.216  1.00  0.00    -0.069 C  
HETATM   20  C   UNL     1      -7.581   4.384  66.941  1.00  0.00    -0.085 C  
HETATM   21  C   UNL     1      -7.868   8.237  65.003  1.00  0.00    -0.126 A  
HETATM   22  C   UNL     1      -8.185   7.459  66.115  1.00  0.00    -0.130 A  
ENDBRANCH   6   7
ENDBRANCH   5   6
ENDBRANCH   4   5
ENDBRANCH   2   4
TORSDOF 4
ENDMDL
MODEL      241
REMARK 921   NORMALIZED FREE ENERGY PREDICTED BY IDOCK:   -1.51 KCAL/MOL
REMARK 922        TOTAL FREE ENERGY PREDICTED BY IDOCK:   -2.17 KCAL/MOL
REMARK 923 INTER-LIGAND FREE ENERGY PREDICTED BY IDOCK:   -3.54 KCAL/MOL
REMARK 924 INTRA-LIGAND FREE ENERGY PREDICTED BY IDOCK:    1.37 KCAL/MOL
REMARK 927      BINDING AFFINITY PREDICTED BY RF-SCORE:    0.00 PKD
ROOT
HETATM    1  C   UNL     1      -8.072  18.574  67.136  1.00  0.00    -0.243 C  
HETATM    2  N   UNL     1      -7.321  18.915  68.344  1.00  0.00    -0.277 NA 
HETATM    3  C   UNL     1      -8.138  19.779  69.203  1.00  0.00    -0.020 C  
ENDROOT
BRANCH   2   4
HETATM    4  C   UNL     1      -6.867  17.687  69.041  1.00  0.00    -0.240 C  
BRANCH   4   5
HETATM    5  C   UNL     1      -6.223  16.669  68.090  1.00  0.00    -0.131 C  
BRANCH   5   6
HETATM    6  O   UNL     1      -5.685  15.530  68.769  1.00  0.00    -0.094 OA 
BRANCH   6   7
HETATM    7  C   UNL     1      -5.918  14.348  68.135  1.00  0.00    -0.133 C  
HETATM    8  C   UNL     1      -7.225  13.731  68.635  1.00  0.00    -0.109 C  
HETATM    9  O   UNL     1      -5.142  13.819  67.351  1.00  0.00    -0.329 OA 
HETATM   10  C   UNL     1      -8.457  14.576  68.308  1.00  0.00    -0.161 A  
HETATM   11  C   UNL     1      -7.352  12.237  68.209  1.00  0.00    -0.108 C  
HETATM   12  O   UNL     1      -7.422  12.111  66.785  1.00  0.00    -0.352 OA 
HETATM   13  C   UNL     1      -8.570  15.295  67.111  1.00  0.00    -0.236 A  
HETATM   14  C   UNL     1      -6.209  11.345  68.727  1.00  0.00    -0.050 C  
HETATM   15  C   UNL     1      -6.764   9.931  68.587  1.00  0.00    -0.050 C  
HETATM   16  H   UNL     1      -7.499  11.200  66.525  1.00  0.00     0.000 HD 
HETATM   17  C   UNL     1      -9.732  16.016  66.827  1.00  0.00    -0.253 A  
HETATM   18  C   UNL     1     -10.802  16.010  67.722  1.00  0.00    -0.324 A  
HETATM   19  C   UNL     1      -8.232  10.055  68.964  1.00  0.00    -0.124 C  
HETATM   20  C   UNL     1      -8.589  11.536  68.810  1.00  0.00    -0.055 C  
HETATM   21  C   UNL     1     -10.702  15.305  68.915  1.00  0.00    -0.245 A  
HETATM   22  C   UNL     1      -9.532  14.610  69.215  1.00  0.00    -0.001 A  
ENDBRANCH   6   7
ENDBRANCH   5   6
ENDBRANCH   4   5
ENDBRANCH   2   4
TORSDOF 4
ENDMDL
MODEL      242
REMARK 921   NORMALIZED FREE ENERGY PREDICTED BY IDOCK:   -1.28 KCAL/MOL
REMARK 922        TOTAL FREE ENERGY PREDICTED BY IDOCK:   -1.88 KCAL/MOL
REMARK 923 INTER-LIGAND FREE ENERGY PREDICTED BY IDOCK:   -1.60 KCAL/MOL
REMARK 924 INTRA-LIGAND FREE ENERGY PREDICTED BY IDOCK:   -0.28 KCAL/MOL
REMARK 927      BINDING AFFINITY PREDICTED BY RF-SCORE:    0.00 PKD
ROOT
HETATM    1  C   UNL     1      -6.361  11.620  71.289  1.00  0.00     1.671 C  
HETATM    2  N   UNL     1      -5.413  11.366  70.205  1.00  0.00    -0.091 NA 
HETATM    3  C   UNL     1      -5.133   9.929  70.122  1.00  0.00    -0.036 C  
ENDROOT
BRANCH   2   4
HETATM    4  C   UNL     1      -5.921  11.920  68.925  1.00  0.00    -0.055 C  
BRANCH   4   5
HETATM    5  C   UNL     1      -7.229  11.258  68.471  1.00  0.00    -0.094 C  
BRANCH   5   6
HETATM    6  O   UNL     1      -7.773  11.847  67.286  1.00  0.00    -0.147 OA 
BRANCH   6   7
HETATM    7  C   UNL     1      -9.132  11.925  67.283  1.00  0.00    -0.178 C  
HETATM    8  C   UNL     1      -9.638  12.223  65.870  1.00  0.00    -0.207 C  
HETATM    9  O   UNL     1      -9.831  11.861  68.285  1.00  0.00    -0.190 OA 
HETATM   10  C   UNL     1      -9.330  11.109  64.870  1.00  0.00    -0.219 A  
HETATM   11  C   UNL     1     -11.132  12.667  65.880  1.00  0.00    -0.289 C  
HETATM   12  O   UNL     1     -11.981  11.613  66.347  1.00  0.00    -0.433 OA 
HETATM   13  C   UNL     1      -9.362   9.755  65.230  1.00  0.00    -0.315 A  
HETATM   14  C   UNL     1     -11.399  13.925  66.726  1.00  0.00    -0.347 C  
HETATM   15  C   UNL     1     -12.761  14.408  66.233  1.00  0.00     0.035 C  
HETATM   16  H   UNL     1     -12.892  11.884  66.354  1.00  0.00     0.000 HD 
HETATM   17  C   UNL     1      -9.121   8.764  64.276  1.00  0.00     0.347 A  
HETATM   18  C   UNL     1      -8.868   9.109  62.949  1.00  0.00    -0.133 A  
HETATM   19  C   UNL     1     -12.739  14.153  64.734  1.00  0.00    -0.221 C  
HETATM   20  C   UNL     1     -11.644  13.110  64.494  1.00  0.00    -0.406 C  
HETATM   21  C   UNL     1      -8.829  10.448  62.578  1.00  0.00    -0.268 A  
HETATM   22  C   UNL     1      -9.038  11.439  63.535  1.00  0.00    -0.024 A  
ENDBRANCH   6   7
ENDBRANCH   5   6
ENDBRANCH   4   5
ENDBRANCH   2   4
TORSDOF 4
ENDMDL
MODEL      243
REMARK 921   NORMALIZED FREE ENERGY PREDICTED BY IDOCK:   -0.65 KCAL/MOL
REMARK 922        TOTAL FREE ENERGY PREDICTED BY IDOCK:   -1.11 KCAL/MOL
REMARK 923 INTER-LIGAND FREE ENERGY PREDICTED BY IDOCK:   -1.72 KCAL/MOL
REMARK 924 INTRA-LIGAND FREE ENERGY PREDICTED BY IDOCK:    0.61 KCAL/MOL
REMARK 927      BINDING AFFINITY PREDICTED BY RF-SCORE:    0.00 PKD
ROOT
HETATM    1  C   UNL     1      -5.199   5.557  71.916  1.00  0.00    -0.012 C  
HETATM    2  N   UNL     1      -5.780   4.525  71.059  1.00  0.00    -0.015 NA 
HETATM    3  C   UNL     1      -7.129   4.195  71.532  1.00  0.00    -0.042 C  
ENDROOT
BRANCH   2   4
HETATM    4  C   UNL     1      -5.767   4.955  69.639  1.00  0.00    -0.013 C  
BRANCH   4   5
HETATM    5  C   UNL     1      -5.308   6.409  69.464  1.00  0.00    -0.013 C  
BRANCH   5   6
HETATM    6  O   UNL     1      -6.058   7.119  68.474  1.00  0.00    -0.028 OA 
BRANCH   6   7
HETATM    7  C   UNL     1      -6.657   6.314  67.554  1.00  0.00    -0.052 C  
HETATM    8  C   UNL     1      -7.900   5.659  68.158  1.00  0.00    -0.096 C  
HETATM    9  O   UNL     1      -6.206   6.081  66.441  1.00  0.00    -0.034 OA 
HETATM   10  C   UNL     1      -8.990   6.662  68.537  1.00  0.00    -0.120 A  
HETATM   11  C   UNL     1      -8.408   4.477  67.278  1.00  0.00    -0.104 C  
HETATM   12  O   UNL     1      -8.839   4.938  65.993  1.00  0.00    -0.120 OA 
HETATM   13  C   UNL     1      -9.246   7.807  67.771  1.00  0.00    -0.143 A  
HETATM   14  C   UNL     1      -7.367   3.361  67.077  1.00  0.00    -0.067 C  
HETATM   15  C   UNL     1      -8.199   2.172  66.605  1.00  0.00    -0.087 C  
HETATM   16  H   UNL     1      -9.148   4.217  65.456  1.00  0.00     0.000 HD 
HETATM   17  C   UNL     1     -10.282   8.675  68.123  1.00  0.00    -0.250 A  
HETATM   18  C   UNL     1     -11.088   8.400  69.227  1.00  0.00     0.142 A  
HETATM   19  C   UNL     1      -9.483   2.256  67.415  1.00  0.00    -0.032 C  
HETATM   20  C   UNL     1      -9.576   3.699  67.920  1.00  0.00    -0.180 C  
HETATM   21  C   UNL     1     -10.843   7.271  69.998  1.00  0.00    -0.271 A  
HETATM   22  C   UNL     1      -9.790   6.419  69.667  1.00  0.00    -0.182 A  
ENDBRANCH   6   7
ENDBRANCH   5   6
ENDBRANCH   4   5
ENDBRANCH   2   4
TORSDOF 4
ENDMDL
MODEL      244
REMARK 921   NORMALIZED FREE ENERGY PREDICTED BY IDOCK:   -0.31 KCAL/MOL
REMARK 922        TOTAL FREE ENERGY PREDICTED BY IDOCK:   -0.69 KCAL/MOL
REMARK 923 INTER-LIGAND FREE ENERGY PREDICTED BY IDOCK:   -1.16 KCAL/MOL
REMARK 924 INTRA-LIGAND FREE ENERGY PREDICTED BY IDOCK:    0.47 KCAL/MOL
REMARK 927      BINDING AFFINITY PREDICTED BY RF-SCORE:    0.00 PKD
ROOT
HETATM    1  C   UNL     1      -6.398  11.637  71.300  1.00  0.00     1.671 C  
HETATM    2  N   UNL     1      -5.429  11.442  70.222  1.00  0.00    -0.101 NA 
HETATM    3  C   UNL     1      -5.210  10.007  70.012  1.00  0.00    -0.037 C  
ENDROOT
BRANCH   2   4
HETATM    4  C   UNL     1      -5.872  12.135  68.988  1.00  0.00    -0.065 C  
BRANCH   4   5
HETATM    5  C   UNL     1      -7.180  11.563  68.424  1.00  0.00    -0.089 C  
BRANCH   5   6
HETATM    6  O   UNL     1      -7.162  10.138  68.302  1.00  0.00    -0.078 OA 
BRANCH   6   7
HETATM    7  C   UNL     1      -7.845   9.668  67.222  1.00  0.00    -0.095 C  
HETATM    8  C   UNL     1      -8.013   8.151  67.325  1.00  0.00    -0.113 C  
HETATM    9  O   UNL     1      -8.186  10.354  66.268  1.00  0.00    -0.133 OA 
HETATM   10  C   UNL     1      -8.863   7.716  68.518  1.00  0.00    -0.130 A  
HETATM   11  C   UNL     1      -8.465   7.533  65.967  1.00  0.00    -0.148 C  
HETATM   12  O   UNL     1      -9.761   8.009  65.590  1.00  0.00    -0.385 OA 
HETATM   13  C   UNL     1      -9.969   8.458  68.954  1.00  0.00    -0.194 A  
HETATM   14  C   UNL     1      -7.487   7.798  64.808  1.00  0.00    -0.092 C  
HETATM   15  C   UNL     1      -7.884   6.763  63.759  1.00  0.00    -0.107 C  
HETATM   16  H   UNL     1     -10.037   7.632  64.762  1.00  0.00     0.000 HD 
HETATM   17  C   UNL     1     -10.750   8.002  70.019  1.00  0.00    -0.244 A  
HETATM   18  C   UNL     1     -10.452   6.793  70.645  1.00  0.00    -0.243 A  
HETATM   19  C   UNL     1      -8.227   5.516  64.559  1.00  0.00    -0.129 C  
HETATM   20  C   UNL     1      -8.512   5.991  65.987  1.00  0.00    -0.139 C  
HETATM   21  C   UNL     1      -9.356   6.049  70.226  1.00  0.00    -0.176 A  
HETATM   22  C   UNL     1      -8.557   6.516  69.184  1.00  0.00    -0.129 A  
ENDBRANCH   6   7
ENDBRANCH   5   6
ENDBRANCH   4   5
ENDBRANCH   2   4
TORSDOF 4
ENDMDL
MODEL      245
REMARK 921   NORMALIZED FREE ENERGY PREDICTED BY IDOCK:    0.02 KCAL/MOL
REMARK 922        TOTAL FREE ENERGY PREDICTED BY IDOCK:   -0.28 KCAL/MOL
REMARK 923 INTER-LIGAND FREE ENERGY PREDICTED BY IDOCK:   -0.89 KCAL/MOL
REMARK 924 INTRA-LIGAND FREE ENERGY PREDICTED BY IDOCK:    0.61 KCAL/MOL
REMARK 927      BINDING AFFINITY PREDICTED BY RF-SCORE:    0.00 PKD
ROOT
HETATM    1  C   UNL     1     -10.925   9.294  65.844  1.00  0.00     1.715 C  
HETATM    2  N   UNL     1      -9.970   9.020  66.917  1.00  0.00    -0.222 NA 
HETATM    3  C   UNL     1     -10.062   7.610  67.309  1.00  0.00    -0.237 C  
ENDROOT
BRANCH   2   4
HETATM    4  C   UNL     1      -8.598   9.408  66.508  1.00  0.00    -0.134 C  
BRANCH   4   5
HETATM    5  C   UNL     1      -8.586  10.380  65.321  1.00  0.00    -0.176 C  
BRANCH   5   6
HETATM    6  O   UNL     1      -8.461  11.749  65.719  1.00  0.00     0.081 OA 
BRANCH   6   7
HETATM    7  C   UNL     1      -7.909  11.917  66.952  1.00  0.00    -0.120 C  
HETATM    8  C   UNL     1      -8.274  13.295  67.508  1.00  0.00    -0.184 C  
HETATM    9  O   UNL     1      -7.155  11.117  67.487  1.00  0.00    -0.085 OA 
HETATM   10  C   UNL     1      -9.774  13.473  67.746  1.00  0.00    -0.226 A  
HETATM   11  C   UNL     1      -7.390  13.668  68.736  1.00  0.00    -0.093 C  
HETATM   12  O   UNL     1      -7.620  12.771  69.829  1.00  0.00     0.155 OA 
HETATM   13  C   UNL     1     -10.585  12.424  68.201  1.00  0.00    -0.232 A  
HETATM   14  C   UNL     1      -5.882  13.694  68.430  1.00  0.00    -0.098 C  
HETATM   15  C   UNL     1      -5.293  14.491  69.591  1.00  0.00    -0.092 C  
HETATM   16  H   UNL     1      -7.081  12.998  70.578  1.00  0.00     0.000 HD 
HETATM   17  C   UNL     1     -11.942  12.639  68.453  1.00  0.00    -0.268 A  
HETATM   18  C   UNL     1     -12.500  13.905  68.277  1.00  0.00     0.256 A  
HETATM   19  C   UNL     1      -6.313  15.586  69.862  1.00  0.00    -0.151 C  
HETATM   20  C   UNL     1      -7.629  15.105  69.243  1.00  0.00    -0.201 C  
HETATM   21  C   UNL     1     -11.709  14.953  67.823  1.00  0.00    -0.340 A  
HETATM   22  C   UNL     1     -10.361  14.733  67.541  1.00  0.00    -0.238 A  
ENDBRANCH   6   7
ENDBRANCH   5   6
ENDBRANCH   4   5
ENDBRANCH   2   4
TORSDOF 4
ENDMDL
MODEL      246
REMARK 921   NORMALIZED FREE ENERGY PREDICTED BY IDOCK:    0.61 KCAL/MOL
REMARK 922        TOTAL FREE ENERGY PREDICTED BY IDOCK:    0.45 KCAL/MOL
REMARK 923 INTER-LIGAND FREE ENERGY PREDICTED BY IDOCK:    0.06 KCAL/MOL
REMARK 924 INTRA-LIGAND FREE ENERGY PREDICTED BY IDOCK:    0.40 KCAL/MOL
REMARK 927      BINDING AFFINITY PREDICTED BY RF-SCORE:    0.00 PKD
ROOT
HETATM    1  C   UNL     1      -6.366  11.634  71.288  1.00  0.00     1.671 C  
HETATM    2  N   UNL     1      -5.404  11.452  70.202  1.00  0.00    -0.079 NA 
HETATM    3  C   UNL     1      -5.168  10.020  69.989  1.00  0.00    -0.037 C  
ENDROOT
BRANCH   2   4
HETATM    4  C   UNL     1      -5.865  12.140  68.972  1.00  0.00    -0.065 C  
BRANCH   4   5
HETATM    5  C   UNL     1      -7.181  11.565  68.430  1.00  0.00    -0.089 C  
BRANCH   5   6
HETATM    6  O   UNL     1      -8.204  11.470  69.426  1.00  0.00     0.190 OA 
BRANCH   6   7
HETATM    7  C   UNL     1      -9.009  10.381  69.288  1.00  0.00    -0.163 C  
HETATM    8  C   UNL     1     -10.233  10.513  70.197  1.00  0.00     0.081 C  
HETATM    9  O   UNL     1      -8.738   9.402  68.606  1.00  0.00    -0.128 OA 
HETATM   10  C   UNL     1     -11.136  11.690  69.828  1.00  0.00    -0.116 A  
HETATM   11  C   UNL     1     -10.988   9.157  70.339  1.00  0.00    -0.248 C  
HETATM   12  O   UNL     1     -11.524   8.730  69.081  1.00  0.00    -0.256 OA 
HETATM   13  C   UNL     1     -11.351  12.076  68.498  1.00  0.00    -0.323 A  
HETATM   14  C   UNL     1     -10.122   8.022  70.915  1.00  0.00    -0.211 C  
HETATM   15  C   UNL     1     -11.145   6.985  71.371  1.00  0.00    -0.274 C  
HETATM   16  H   UNL     1     -11.984   7.903  69.168  1.00  0.00     0.000 HD 
HETATM   17  C   UNL     1     -12.221  13.127  68.199  1.00  0.00    -0.070 A  
HETATM   18  C   UNL     1     -12.904  13.788  69.219  1.00  0.00     0.823 A  
HETATM   19  C   UNL     1     -12.293   7.802  71.941  1.00  0.00    -0.342 C  
HETATM   20  C   UNL     1     -12.147   9.210  71.355  1.00  0.00    -0.409 C  
HETATM   21  C   UNL     1     -12.697  13.419  70.542  1.00  0.00    -0.194 A  
HETATM   22  C   UNL     1     -11.806  12.392  70.846  1.00  0.00     0.299 A  
ENDBRANCH   6   7
ENDBRANCH   5   6
ENDBRANCH   4   5
ENDBRANCH   2   4
TORSDOF 4
ENDMDL
MODEL      247
REMARK 921   NORMALIZED FREE ENERGY PREDICTED BY IDOCK:    0.68 KCAL/MOL
REMARK 922        TOTAL FREE ENERGY PREDICTED BY IDOCK:    0.54 KCAL/MOL
REMARK 923 INTER-LIGAND FREE ENERGY PREDICTED BY IDOCK:   -0.42 KCAL/MOL
REMARK 924 INTRA-LIGAND FREE ENERGY PREDICTED BY IDOCK:    0.96 KCAL/MOL
REMARK 927      BINDING AFFINITY PREDICTED BY RF-SCORE:    0.00 PKD
ROOT
HETATM    1  C   UNL     1      -6.662  11.837  71.397  1.00  0.00     3.512 C  
HETATM    2  N   UNL     1      -5.331  12.088  70.845  1.00  0.00    -0.187 NA 
HETATM    3  C   UNL     1      -5.143  11.286  69.632  1.00  0.00    -0.041 C  
ENDROOT
BRANCH   2   4
HETATM    4  C   UNL     1      -5.129  13.538  70.603  1.00  0.00    -0.113 C  
BRANCH   4   5
HETATM    5  C   UNL     1      -6.160  14.126  69.630  1.00  0.00    -0.121 C  
BRANCH   5   6
HETATM    6  O   UNL     1      -7.113  13.161  69.173  1.00  0.00    -0.075 OA 
BRANCH   6   7
HETATM    7  C   UNL     1      -7.596  13.411  67.925  1.00  0.00    -0.151 C  
HETATM    8  C   UNL     1      -9.103  13.152  67.883  1.00  0.00    -0.207 C  
HETATM    9  O   UNL     1      -6.903  13.706  66.961  1.00  0.00    -0.023 OA 
HETATM   10  C   UNL     1      -9.904  14.092  68.784  1.00  0.00    -0.141 A  
HETATM   11  C   UNL     1      -9.630  13.081  66.418  1.00  0.00    -0.257 C  
HETATM   12  O   UNL     1      -9.466  14.336  65.748  1.00  0.00    -0.505 OA 
HETATM   13  C   UNL     1      -9.546  15.435  68.965  1.00  0.00    -0.236 A  
HETATM   14  C   UNL     1      -8.963  11.981  65.571  1.00  0.00     0.239 C  
HETATM   15  C   UNL     1      -9.914  11.808  64.391  1.00  0.00    -0.281 C  
HETATM   16  H   UNL     1      -9.787  14.292  64.855  1.00  0.00     0.000 HD 
HETATM   17  C   UNL     1     -10.330  16.274  69.759  1.00  0.00    -0.219 A  
HETATM   18  C   UNL     1     -11.491  15.792  70.362  1.00  0.00    -0.380 A  
HETATM   19  C   UNL     1     -11.303  11.952  64.993  1.00  0.00    -0.333 C  
HETATM   20  C   UNL     1     -11.118  12.683  66.325  1.00  0.00    -0.330 C  
HETATM   21  C   UNL     1     -11.856  14.462  70.195  1.00  0.00    -0.380 A  
HETATM   22  C   UNL     1     -11.059  13.614  69.429  1.00  0.00    -0.193 A  
ENDBRANCH   6   7
ENDBRANCH   5   6
ENDBRANCH   4   5
ENDBRANCH   2   4
TORSDOF 4
ENDMDL
MODEL      248
REMARK 921   NORMALIZED FREE ENERGY PREDICTED BY IDOCK:    0.97 KCAL/MOL
REMARK 922        TOTAL FREE ENERGY PREDICTED BY IDOCK:    0.90 KCAL/MOL
REMARK 923 INTER-LIGAND FREE ENERGY PREDICTED BY IDOCK:   -0.81 KCAL/MOL
REMARK 924 INTRA-LIGAND FREE ENERGY PREDICTED BY IDOCK:    1.71 KCAL/MOL
REMARK 927      BINDING AFFINITY PREDICTED BY RF-SCORE:    0.00 PKD
ROOT
HETATM    1  C   UNL     1      -9.236   6.945  69.607  1.00  0.00    -0.146 C  
HETATM    2  N   UNL     1      -8.297   5.835  69.771  1.00  0.00    -0.111 NA 
HETATM    3  C   UNL     1      -9.011   4.659  70.280  1.00  0.00    -0.096 C  
ENDROOT
BRANCH   2   4
HETATM    4  C   UNL     1      -7.585   5.559  68.499  1.00  0.00    -0.084 C  
BRANCH   4   5
HETATM    5  C   UNL     1      -6.711   6.736  68.043  1.00  0.00    -0.068 C  
BRANCH   5   6
HETATM    6  O   UNL     1      -5.607   6.331  67.227  1.00  0.00    -0.008 OA 
BRANCH   6   7
HETATM    7  C   UNL     1      -5.934   5.421  66.268  1.00  0.00    -0.022 C  
HETATM    8  C   UNL     1      -7.431   5.496  65.961  1.00  0.00    -0.082 C  
HETATM    9  O   UNL     1      -5.156   4.604  65.796  1.00  0.00    -0.008 OA 
HETATM   10  C   UNL     1      -7.860   6.835  65.362  1.00  0.00    -0.115 A  
HETATM   11  C   UNL     1      -7.909   4.257  65.145  1.00  0.00    -0.086 C  
HETATM   12  O   UNL     1      -7.285   4.214  63.858  1.00  0.00    -0.049 OA 
HETATM   13  C   UNL     1      -7.045   7.549  64.474  1.00  0.00    -0.065 A  
HETATM   14  C   UNL     1      -7.664   2.913  65.856  1.00  0.00    -0.081 C  
HETATM   15  C   UNL     1      -8.582   1.942  65.119  1.00  0.00    -0.107 C  
HETATM   16  H   UNL     1      -7.576   3.458  63.361  1.00  0.00     0.000 HD 
HETATM   17  C   UNL     1      -7.493   8.746  63.911  1.00  0.00    -0.117 A  
HETATM   18  C   UNL     1      -8.765   9.233  64.208  1.00  0.00    -0.204 A  
HETATM   19  C   UNL     1      -9.840   2.747  64.832  1.00  0.00     0.097 C  
HETATM   20  C   UNL     1      -9.437   4.221  64.934  1.00  0.00    -0.169 C  
HETATM   21  C   UNL     1      -9.583   8.538  65.091  1.00  0.00     0.635 A  
HETATM   22  C   UNL     1      -9.126   7.359  65.678  1.00  0.00     0.073 A  
ENDBRANCH   6   7
ENDBRANCH   5   6
ENDBRANCH   4   5
ENDBRANCH   2   4
TORSDOF 4
ENDMDL
MODEL      249
REMARK 921   NORMALIZED FREE ENERGY PREDICTED BY IDOCK:    2.31 KCAL/MOL
REMARK 922        TOTAL FREE ENERGY PREDICTED BY IDOCK:    2.55 KCAL/MOL
REMARK 923 INTER-LIGAND FREE ENERGY PREDICTED BY IDOCK:   -0.01 KCAL/MOL
REMARK 924 INTRA-LIGAND FREE ENERGY PREDICTED BY IDOCK:    2.56 KCAL/MOL
REMARK 927      BINDING AFFINITY PREDICTED BY RF-SCORE:    0.00 PKD
ROOT
HETATM    1  C   UNL     1      -5.245  17.887  65.959  1.00  0.00    -0.194 C  
HETATM    2  N   UNL     1      -6.449  17.658  66.757  1.00  0.00    -0.170 NA 
HETATM    3  C   UNL     1      -7.585  17.395  65.867  1.00  0.00    -0.071 C  
ENDROOT
BRANCH   2   4
HETATM    4  C   UNL     1      -6.229  16.565  67.735  1.00  0.00    -0.140 C  
BRANCH   4   5
HETATM    5  C   UNL     1      -7.208  16.621  68.916  1.00  0.00    -0.219 C  
BRANCH   5   6
HETATM    6  O   UNL     1      -7.999  17.813  68.932  1.00  0.00    -0.261 OA 
BRANCH   6   7
HETATM    7  C   UNL     1      -9.126  17.738  68.173  1.00  0.00    -0.274 C  
HETATM    8  C   UNL     1      -9.761  16.353  68.308  1.00  0.00    -0.224 C  
HETATM    9  O   UNL     1      -9.514  18.622  67.421  1.00  0.00    -0.291 OA 
HETATM   10  C   UNL     1     -10.248  16.046  69.724  1.00  0.00    -0.240 A  
HETATM   11  C   UNL     1     -10.832  16.104  67.204  1.00  0.00    -0.216 C  
HETATM   12  O   UNL     1     -11.931  17.012  67.337  1.00  0.00     1.097 OA 
HETATM   13  C   UNL     1     -10.811  17.030  70.547  1.00  0.00     0.564 A  
HETATM   14  C   UNL     1     -10.280  16.206  65.770  1.00  0.00    -0.397 C  
HETATM   15  C   UNL     1     -11.341  15.506  64.925  1.00  0.00    -0.339 C  
HETATM   16  H   UNL     1     -12.584  16.861  66.663  1.00  0.00     0.000 HD 
HETATM   17  C   UNL     1     -11.289  16.701  71.818  1.00  0.00     0.192 A  
HETATM   18  C   UNL     1     -11.231  15.384  72.273  1.00  0.00    -0.270 A  
HETATM   19  C   UNL     1     -11.798  14.333  65.778  1.00  0.00    -0.377 C  
HETATM   20  C   UNL     1     -11.398  14.669  67.217  1.00  0.00    -0.364 C  
HETATM   21  C   UNL     1     -10.671  14.398  71.469  1.00  0.00     1.877 A  
HETATM   22  C   UNL     1     -10.166  14.730  70.214  1.00  0.00     0.302 A  
ENDBRANCH   6   7
ENDBRANCH   5   6
ENDBRANCH   4   5
ENDBRANCH   2   4
TORSDOF 4
ENDMDL
MODEL      250
REMARK 921   NORMALIZED FREE ENERGY PREDICTED BY IDOCK:    3.46 KCAL/MOL
REMARK 922        TOTAL FREE ENERGY PREDICTED BY IDOCK:    3.97 KCAL/MOL
REMARK 923 INTER-LIGAND FREE ENERGY PREDICTED BY IDOCK:   -1.86 KCAL/MOL
REMARK 924 INTRA-LIGAND FREE ENERGY PREDICTED BY IDOCK:    5.83 KCAL/MOL
REMARK 927      BINDING AFFINITY PREDICTED BY RF-SCORE:    0.00 PKD
ROOT
HETATM    1  C   UNL     1     -12.210  15.885  67.559  1.00  0.00     1.091 C  
HETATM    2  N   UNL     1     -10.992  15.230  67.082  1.00  0.00    -0.330 NA 
HETATM    3  C   UNL     1     -11.022  15.142  65.618  1.00  0.00    -0.355 C  
ENDROOT
BRANCH   2   4
HETATM    4  C   UNL     1      -9.787  15.936  67.583  1.00  0.00    -0.233 C  
BRANCH   4   5
HETATM    5  C   UNL     1      -9.417  15.531  69.016  1.00  0.00    -0.242 C  
BRANCH   5   6
HETATM    6  O   UNL     1      -9.158  14.130  69.154  1.00  0.00     0.034 OA 
BRANCH   6   7
HETATM    7  C   UNL     1      -9.813  13.356  68.245  1.00  0.00    -0.235 C  
HETATM    8  C   UNL     1      -8.834  12.391  67.574  1.00  0.00    -0.181 C  
HETATM    9  O   UNL     1     -10.993  13.486  67.948  1.00  0.00    -0.245 OA 
HETATM   10  C   UNL     1      -8.218  11.383  68.543  1.00  0.00    -0.153 A  
HETATM   11  C   UNL     1      -9.454  11.745  66.298  1.00  0.00    -0.224 C  
HETATM   12  O   UNL     1     -10.584  10.931  66.628  1.00  0.00    -0.246 OA 
HETATM   13  C   UNL     1      -8.945  10.831  69.606  1.00  0.00     0.259 A  
HETATM   14  C   UNL     1      -9.880  12.767  65.229  1.00  0.00    -0.118 C  
HETATM   15  C   UNL     1     -10.016  11.928  63.961  1.00  0.00    -0.318 C  
HETATM   16  H   UNL     1     -10.963  10.537  65.851  1.00  0.00     0.000 HD 
HETATM   17  C   UNL     1      -8.362   9.876  70.442  1.00  0.00     0.016 A  
HETATM   18  C   UNL     1      -7.056   9.443  70.213  1.00  0.00    -0.097 A  
HETATM   19  C   UNL     1      -8.874  10.927  64.040  1.00  0.00    -0.055 C  
HETATM   20  C   UNL     1      -8.454  10.872  65.511  1.00  0.00    -0.115 C  
HETATM   21  C   UNL     1      -6.322   9.984  69.165  1.00  0.00    -0.044 A  
HETATM   22  C   UNL     1      -6.891  10.960  68.349  1.00  0.00    -0.068 A  
ENDBRANCH   6   7
ENDBRANCH   5   6
ENDBRANCH   4   5
ENDBRANCH   2   4
TORSDOF 4
ENDMDL
MODEL      251
REMARK 921   NORMALIZED FREE ENERGY PREDICTED BY IDOCK:    3.57 KCAL/MOL
REMARK 922        TOTAL FREE ENERGY PREDICTED BY IDOCK:    4.10 KCAL/MOL
REMARK 923 INTER-LIGAND FREE ENERGY PREDICTED BY IDOCK:    0.67 KCAL/MOL
REMARK 924 INTRA-LIGAND FREE ENERGY PREDICTED BY IDOCK:    3.43 KCAL/MOL
REMARK 927      BINDING AFFINITY PREDICTED BY RF-SCORE:    0.00 PKD
ROOT
HETATM    1  C   UNL     1      -6.673  13.499  73.275  1.00  0.00     3.644 C  
HETATM    2  N   UNL     1      -5.752  13.952  72.232  1.00  0.00    -0.417 NA 
HETATM    3  C   UNL     1      -5.746  12.986  71.129  1.00  0.00    -0.025 C  
ENDROOT
BRANCH   2   4
HETATM    4  C   UNL     1      -6.101  15.322  71.785  1.00  0.00     0.917 C  
BRANCH   4   5
HETATM    5  C   UNL     1      -6.592  15.364  70.331  1.00  0.00     0.140 C  
BRANCH   5   6
HETATM    6  O   UNL     1      -6.094  14.281  69.540  1.00  0.00    -0.099 OA 
BRANCH   6   7
HETATM    7  C   UNL     1      -7.004  13.773  68.664  1.00  0.00    -0.102 C  
HETATM    8  C   UNL     1      -8.202  14.717  68.544  1.00  0.00    -0.152 C  
HETATM    9  O   UNL     1      -6.912  12.676  68.130  1.00  0.00    -0.078 OA 
HETATM   10  C   UNL     1      -7.841  16.080  67.953  1.00  0.00    -0.148 A  
HETATM   11  C   UNL     1      -9.408  14.023  67.842  1.00  0.00    -0.206 C  
HETATM   12  O   UNL     1      -9.089  13.679  66.489  1.00  0.00    -0.397 OA 
HETATM   13  C   UNL     1      -6.880  16.223  66.944  1.00  0.00    -0.195 A  
HETATM   14  C   UNL     1      -9.904  12.759  68.567  1.00  0.00    -0.147 C  
HETATM   15  C   UNL     1     -11.298  12.535  67.987  1.00  0.00    -0.339 C  
HETATM   16  H   UNL     1      -9.824  13.255  66.061  1.00  0.00     0.000 HD 
HETATM   17  C   UNL     1      -6.612  17.480  66.396  1.00  0.00    -0.290 A  
HETATM   18  C   UNL     1      -7.315  18.602  66.831  1.00  0.00    -0.222 A  
HETATM   19  C   UNL     1     -11.877  13.933  67.828  1.00  0.00    -0.415 C  
HETATM   20  C   UNL     1     -10.683  14.892  67.824  1.00  0.00    -0.271 C  
HETATM   21  C   UNL     1      -8.268  18.476  67.835  1.00  0.00    -0.277 A  
HETATM   22  C   UNL     1      -8.515  17.229  68.405  1.00  0.00    -0.254 A  
ENDBRANCH   6   7
ENDBRANCH   5   6
ENDBRANCH   4   5
ENDBRANCH   2   4
TORSDOF 4
ENDMDL
MODEL      252
REMARK 921   NORMALIZED FREE ENERGY PREDICTED BY IDOCK:    3.96 KCAL/MOL
REMARK 922        TOTAL FREE ENERGY PREDICTED BY IDOCK:    4.58 KCAL/MOL
REMARK 923 INTER-LIGAND FREE ENERGY PREDICTED BY IDOCK:   -2.13 KCAL/MOL
REMARK 924 INTRA-LIGAND FREE ENERGY PREDICTED BY IDOCK:    6.71 KCAL/MOL
REMARK 927      BINDING AFFINITY PREDICTED BY RF-SCORE:    0.00 PKD
ROOT
HETATM    1  C   UNL     1     -12.221  15.911  67.559  1.00  0.00     1.091 C  
HETATM    2  N   UNL     1     -10.900  15.420  67.166  1.00  0.00    -0.319 NA 
HETATM    3  C   UNL     1     -10.845  15.270  65.708  1.00  0.00    -0.358 C  
ENDROOT
BRANCH   2   4
HETATM    4  C   UNL     1      -9.835  16.312  67.686  1.00  0.00    -0.238 C  
BRANCH   4   5
HETATM    5  C   UNL     1      -9.414  15.959  69.119  1.00  0.00    -0.260 C  
BRANCH   5   6
HETATM    6  O   UNL     1      -9.098  14.573  69.286  1.00  0.00    -0.040 OA 
BRANCH   6   7
HETATM    7  C   UNL     1      -9.680  13.760  68.362  1.00  0.00    -0.219 C  
HETATM    8  C   UNL     1     -10.378  12.590  69.056  1.00  0.00     0.030 C  
HETATM    9  O   UNL     1      -9.572  13.901  67.151  1.00  0.00    -0.231 OA 
HETATM   10  C   UNL     1     -11.539  13.023  69.951  1.00  0.00    -0.249 A  
HETATM   11  C   UNL     1     -10.745  11.462  68.045  1.00  0.00    -0.200 C  
HETATM   12  O   UNL     1     -11.698  11.923  67.082  1.00  0.00    -0.528 OA 
HETATM   13  C   UNL     1     -12.383  14.089  69.612  1.00  0.00    -0.309 A  
HETATM   14  C   UNL     1      -9.532  10.880  67.297  1.00  0.00    -0.176 C  
HETATM   15  C   UNL     1     -10.051   9.555  66.744  1.00  0.00    -0.312 C  
HETATM   16  H   UNL     1     -11.922  11.235  66.465  1.00  0.00     0.000 HD 
HETATM   17  C   UNL     1     -13.463  14.424  70.432  1.00  0.00     0.312 A  
HETATM   18  C   UNL     1     -13.728  13.686  71.585  1.00  0.00    -0.324 A  
HETATM   19  C   UNL     1     -10.952   9.008  67.841  1.00  0.00    -0.001 C  
HETATM   20  C   UNL     1     -11.325  10.203  68.723  1.00  0.00    -0.172 C  
HETATM   21  C   UNL     1     -12.897  12.629  71.936  1.00  0.00    -0.305 A  
HETATM   22  C   UNL     1     -11.801  12.313  71.136  1.00  0.00     0.676 A  
ENDBRANCH   6   7
ENDBRANCH   5   6
ENDBRANCH   4   5
ENDBRANCH   2   4
TORSDOF 4
ENDMDL
MODEL      253
REMARK 921   NORMALIZED FREE ENERGY PREDICTED BY IDOCK:    9.03 KCAL/MOL
REMARK 922        TOTAL FREE ENERGY PREDICTED BY IDOCK:   10.84 KCAL/MOL
REMARK 923 INTER-LIGAND FREE ENERGY PREDICTED BY IDOCK:    8.60 KCAL/MOL
REMARK 924 INTRA-LIGAND FREE ENERGY PREDICTED BY IDOCK:    2.25 KCAL/MOL
REMARK 927      BINDING AFFINITY PREDICTED BY RF-SCORE:    0.00 PKD
ROOT
HETATM    1  C   UNL     1     -12.595   7.996  73.967  1.00  0.00     5.847 C  
HETATM    2  N   UNL     1     -11.836   7.732  72.745  1.00  0.00    -0.258 NA 
HETATM    3  C   UNL     1     -12.761   7.445  71.644  1.00  0.00    -0.365 C  
ENDROOT
BRANCH   2   4
HETATM    4  C   UNL     1     -10.923   8.861  72.441  1.00  0.00    -0.034 C  
BRANCH   4   5
HETATM    5  C   UNL     1     -11.640  10.036  71.762  1.00  0.00     0.109 C  
BRANCH   5   6
HETATM    6  O   UNL     1     -10.941  10.534  70.618  1.00  0.00    -0.237 OA 
BRANCH   6   7
HETATM    7  C   UNL     1      -9.589  10.395  70.693  1.00  0.00     1.155 C  
HETATM    8  C   UNL     1      -9.221   8.923  70.888  1.00  0.00    -0.286 C  
HETATM    9  O   UNL     1      -8.797  11.327  70.700  1.00  0.00     2.821 OA 
HETATM   10  C   UNL     1      -9.618   8.039  69.706  1.00  0.00    -0.171 A  
HETATM   11  C   UNL     1      -7.736   8.758  71.330  1.00  0.00    -0.120 C  
HETATM   12  O   UNL     1      -6.840   9.216  70.311  1.00  0.00    -0.043 OA 
HETATM   13  C   UNL     1      -9.544   8.489  68.381  1.00  0.00    -0.157 A  
HETATM   14  C   UNL     1      -7.395   9.482  72.645  1.00  0.00     1.480 C  
HETATM   15  C   UNL     1      -6.090   8.829  73.089  1.00  0.00    -0.067 C  
HETATM   16  H   UNL     1      -5.935   9.116  70.580  1.00  0.00     0.000 HD 
HETATM   17  C   UNL     1      -9.870   7.635  67.325  1.00  0.00    -0.245 A  
HETATM   18  C   UNL     1     -10.250   6.318  67.575  1.00  0.00    -0.213 A  
HETATM   19  C   UNL     1      -6.253   7.361  72.728  1.00  0.00    -0.055 C  
HETATM   20  C   UNL     1      -7.361   7.301  71.672  1.00  0.00    -0.080 C  
HETATM   21  C   UNL     1     -10.332   5.858  68.884  1.00  0.00    -0.290 A  
HETATM   22  C   UNL     1     -10.037   6.717  69.941  1.00  0.00    -0.195 A  
ENDBRANCH   6   7
ENDBRANCH   5   6
ENDBRANCH   4   5
ENDBRANCH   2   4
TORSDOF 4
ENDMDL
MODEL      254
REMARK 921   NORMALIZED FREE ENERGY PREDICTED BY IDOCK:   15.72 KCAL/MOL
REMARK 922        TOTAL FREE ENERGY PREDICTED BY IDOCK:   19.10 KCAL/MOL
REMARK 923 INTER-LIGAND FREE ENERGY PREDICTED BY IDOCK:   11.32 KCAL/MOL
REMARK 924 INTRA-LIGAND FREE ENERGY PREDICTED BY IDOCK:    7.78 KCAL/MOL
REMARK 927      BINDING AFFINITY PREDICTED BY RF-SCORE:    0.00 PKD
ROOT
HETATM    1  C   UNL     1      -7.004  11.592  71.180  1.00  0.00     3.353 C  
HETATM    2  N   UNL     1      -5.916  12.539  70.941  1.00  0.00    -0.249 NA 
HETATM    3  C   UNL     1      -5.125  12.100  69.787  1.00  0.00    -0.074 C  
ENDROOT
BRANCH   2   4
HETATM    4  C   UNL     1      -6.447  13.915  70.775  1.00  0.00     0.206 C  
BRANCH   4   5
HETATM    5  C   UNL     1      -7.856  13.937  70.168  1.00  0.00     1.548 C  
BRANCH   5   6
HETATM    6  O   UNL     1      -8.613  12.759  70.465  1.00  0.00     4.724 OA 
BRANCH   6   7
HETATM    7  C   UNL     1      -8.550  11.805  69.496  1.00  0.00     1.096 C  
HETATM    8  C   UNL     1      -9.647  12.038  68.456  1.00  0.00    -0.146 C  
HETATM    9  O   UNL     1      -7.787  10.849  69.516  1.00  0.00    -0.095 OA 
HETATM   10  C   UNL     1      -9.485  13.352  67.691  1.00  0.00    -0.216 A  
HETATM   11  C   UNL     1      -9.839  10.792  67.539  1.00  0.00    -0.172 C  
HETATM   12  O   UNL     1      -8.663  10.535  66.764  1.00  0.00    -0.130 OA 
HETATM   13  C   UNL     1      -8.226  13.858  67.338  1.00  0.00    -0.198 A  
HETATM   14  C   UNL     1     -10.214   9.510  68.304  1.00  0.00    -0.225 C  
HETATM   15  C   UNL     1     -10.774   8.594  67.220  1.00  0.00    -0.209 C  
HETATM   16  H   UNL     1      -8.780   9.775  66.205  1.00  0.00     0.000 HD 
HETATM   17  C   UNL     1      -8.121  15.037  66.597  1.00  0.00     0.066 A  
HETATM   18  C   UNL     1      -9.268  15.712  66.180  1.00  0.00    -0.378 A  
HETATM   19  C   UNL     1     -11.559   9.519  66.303  1.00  0.00     3.178 C  
HETATM   20  C   UNL     1     -11.028  10.932  66.565  1.00  0.00    -0.187 C  
HETATM   21  C   UNL     1     -10.522  15.224  66.525  1.00  0.00    -0.299 A  
HETATM   22  C   UNL     1     -10.629  14.064  67.291  1.00  0.00    -0.273 A  
ENDBRANCH   6   7
ENDBRANCH   5   6
ENDBRANCH   4   5
ENDBRANCH   2   4
TORSDOF 4
ENDMDL
MODEL      255
REMARK 921   NORMALIZED FREE ENERGY PREDICTED BY IDOCK:   16.71 KCAL/MOL
REMARK 922        TOTAL FREE ENERGY PREDICTED BY IDOCK:   20.31 KCAL/MOL
REMARK 923 INTER-LIGAND FREE ENERGY PREDICTED BY IDOCK:   17.93 KCAL/MOL
REMARK 924 INTRA-LIGAND FREE ENERGY PREDICTED BY IDOCK:    2.38 KCAL/MOL
REMARK 927      BINDING AFFINITY PREDICTED BY RF-SCORE:    0.00 PKD
ROOT
HETATM    1  C   UNL     1      -9.158  13.486  68.826  1.00  0.00     0.094 C  
HETATM    2  N   UNL     1     -10.342  12.880  68.218  1.00  0.00    -0.239 NA 
HETATM    3  C   UNL     1     -11.034  12.050  69.210  1.00  0.00    -0.131 C  
ENDROOT
BRANCH   2   4
HETATM    4  C   UNL     1     -11.223  13.923  67.638  1.00  0.00    -0.295 C  
BRANCH   4   5
HETATM    5  C   UNL     1     -10.828  15.341  68.070  1.00  0.00    -0.288 C  
BRANCH   5   6
HETATM    6  O   UNL     1      -9.455  15.446  68.460  1.00  0.00    -0.191 OA 
BRANCH   6   7
HETATM    7  C   UNL     1      -8.677  16.116  67.565  1.00  0.00    -0.185 C  
HETATM    8  C   UNL     1      -8.894  17.624  67.705  1.00  0.00    -0.236 C  
HETATM    9  O   UNL     1      -7.982  15.578  66.714  1.00  0.00    -0.233 OA 
HETATM   10  C   UNL     1      -8.455  18.175  69.062  1.00  0.00    -0.025 A  
HETATM   11  C   UNL     1      -8.307  18.400  66.488  1.00  0.00    -0.272 C  
HETATM   12  O   UNL     1      -6.885  18.251  66.417  1.00  0.00    -0.195 OA 
HETATM   13  C   UNL     1      -7.333  17.680  69.739  1.00  0.00     0.671 A  
HETATM   14  C   UNL     1      -8.913  17.984  65.135  1.00  0.00     2.555 C  
HETATM   15  C   UNL     1      -8.545  19.137  64.205  1.00  0.00     6.920 C  
HETATM   16  H   UNL     1      -6.528  18.724  65.674  1.00  0.00     0.000 HD 
HETATM   17  C   UNL     1      -6.936  18.242  70.954  1.00  0.00     2.746 A  
HETATM   18  C   UNL     1      -7.639  19.317  71.496  1.00  0.00     3.649 A  
HETATM   19  C   UNL     1      -8.689  20.384  65.064  1.00  0.00     1.403 C  
HETATM   20  C   UNL     1      -8.626  19.910  66.519  1.00  0.00    -0.390 C  
HETATM   21  C   UNL     1      -8.757  19.816  70.838  1.00  0.00     2.240 A  
HETATM   22  C   UNL     1      -9.173  19.236  69.641  1.00  0.00     0.338 A  
ENDBRANCH   6   7
ENDBRANCH   5   6
ENDBRANCH   4   5
ENDBRANCH   2   4
TORSDOF 4
ENDMDL
MODEL      256
REMARK 921   NORMALIZED FREE ENERGY PREDICTED BY IDOCK:   25.48 KCAL/MOL
REMARK 922        TOTAL FREE ENERGY PREDICTED BY IDOCK:   31.14 KCAL/MOL
REMARK 923 INTER-LIGAND FREE ENERGY PREDICTED BY IDOCK:   30.54 KCAL/MOL
REMARK 924 INTRA-LIGAND FREE ENERGY PREDICTED BY IDOCK:    0.60 KCAL/MOL
REMARK 927      BINDING AFFINITY PREDICTED BY RF-SCORE:    0.00 PKD
ROOT
HETATM    1  C   UNL     1      -9.131   8.344  67.055  1.00  0.00    -0.144 C  
HETATM    2  N   UNL     1      -9.949   9.528  67.314  1.00  0.00    -0.177 NA 
HETATM    3  C   UNL     1     -10.591   9.964  66.070  1.00  0.00     0.065 C  
ENDROOT
BRANCH   2   4
HETATM    4  C   UNL     1     -10.928   9.262  68.396  1.00  0.00     0.013 C  
BRANCH   4   5
HETATM    5  C   UNL     1     -11.147  10.476  69.309  1.00  0.00    -0.246 C  
BRANCH   5   6
HETATM    6  O   UNL     1     -10.490  10.351  70.574  1.00  0.00    -0.122 OA 
BRANCH   6   7
HETATM    7  C   UNL     1      -9.133  10.275  70.486  1.00  0.00     0.888 C  
HETATM    8  C   UNL     1      -8.600  11.400  69.597  1.00  0.00     0.957 C  
HETATM    9  O   UNL     1      -8.458   9.378  70.972  1.00  0.00    -0.285 OA 
HETATM   10  C   UNL     1      -8.855  12.795  70.168  1.00  0.00     4.215 A  
HETATM   11  C   UNL     1      -7.118  11.148  69.185  1.00  0.00    -0.116 C  
HETATM   12  O   UNL     1      -6.255  11.158  70.327  1.00  0.00    -0.144 OA 
HETATM   13  C   UNL     1      -8.798  13.059  71.543  1.00  0.00    15.474 A  
HETATM   14  C   UNL     1      -6.903   9.830  68.418  1.00  0.00    -0.060 C  
HETATM   15  C   UNL     1      -5.542  10.018  67.753  1.00  0.00    -0.038 C  
HETATM   16  H   UNL     1      -5.352  11.003  70.075  1.00  0.00     0.000 HD 
HETATM   17  C   UNL     1      -8.991  14.357  72.022  1.00  0.00     7.200 A  
HETATM   18  C   UNL     1      -9.219  15.408  71.136  1.00  0.00     2.689 A  
HETATM   19  C   UNL     1      -5.520  11.479  67.329  1.00  0.00    -0.079 C  
HETATM   20  C   UNL     1      -6.583  12.185  68.176  1.00  0.00    -0.061 C  
HETATM   21  C   UNL     1      -9.282  15.161  69.770  1.00  0.00     0.005 A  
HETATM   22  C   UNL     1      -9.122  13.862  69.292  1.00  0.00     0.506 A  
ENDBRANCH   6   7
ENDBRANCH   5   6
ENDBRANCH   4   5
ENDBRANCH   2   4
TORSDOF 4
ENDMDL
MODEL      257
REMARK 921   NORMALIZED FREE ENERGY PREDICTED BY IDOCK:   27.53 KCAL/MOL
REMARK 922        TOTAL FREE ENERGY PREDICTED BY IDOCK:   33.66 KCAL/MOL
REMARK 923 INTER-LIGAND FREE ENERGY PREDICTED BY IDOCK:    9.51 KCAL/MOL
REMARK 924 INTRA-LIGAND FREE ENERGY PREDICTED BY IDOCK:   24.14 KCAL/MOL
REMARK 927      BINDING AFFINITY PREDICTED BY RF-SCORE:    0.00 PKD
ROOT
HETATM    1  C   UNL     1      -8.077  18.487  66.801  1.00  0.00    -0.254 C  
HETATM    2  N   UNL     1      -7.060  19.089  67.662  1.00  0.00    -0.217 NA 
HETATM    3  C   UNL     1      -7.691  20.055  68.567  1.00  0.00    -0.151 C  
ENDROOT
BRANCH   2   4
HETATM    4  C   UNL     1      -6.302  18.041  68.389  1.00  0.00    -0.196 C  
BRANCH   4   5
HETATM    5  C   UNL     1      -5.807  16.920  67.465  1.00  0.00    -0.143 C  
BRANCH   5   6
HETATM    6  O   UNL     1      -5.657  15.666  68.138  1.00  0.00    -0.103 OA 
BRANCH   6   7
HETATM    7  C   UNL     1      -6.554  14.719  67.747  1.00  0.00    -0.170 C  
HETATM    8  C   UNL     1      -7.966  15.308  67.732  1.00  0.00    -0.159 C  
HETATM    9  O   UNL     1      -6.275  13.547  67.534  1.00  0.00    -0.255 OA 
HETATM   10  C   UNL     1      -8.143  16.430  66.709  1.00  0.00    -0.287 A  
HETATM   11  C   UNL     1      -9.050  14.191  67.640  1.00  0.00    -0.194 C  
HETATM   12  O   UNL     1      -8.950  13.476  66.403  1.00  0.00    -0.452 OA 
HETATM   13  C   UNL     1      -7.506  16.407  65.461  1.00  0.00     2.454 A  
HETATM   14  C   UNL     1      -8.998  13.179  68.799  1.00  0.00     0.161 C  
HETATM   15  C   UNL     1     -10.364  12.499  68.744  1.00  0.00    -0.138 C  
HETATM   16  H   UNL     1      -9.610  12.795  66.347  1.00  0.00     0.000 HD 
HETATM   17  C   UNL     1      -7.731  17.427  64.534  1.00  0.00     6.738 A  
HETATM   18  C   UNL     1      -8.610  18.468  64.831  1.00  0.00     3.709 A  
HETATM   19  C   UNL     1     -11.334  13.614  68.385  1.00  0.00    -0.329 C  
HETATM   20  C   UNL     1     -10.490  14.730  67.762  1.00  0.00    -0.254 C  
HETATM   21  C   UNL     1      -9.246  18.506  66.066  1.00  0.00     0.003 A  
HETATM   22  C   UNL     1      -8.999  17.506  67.005  1.00  0.00    -0.250 A  
ENDBRANCH   6   7
ENDBRANCH   5   6
ENDBRANCH   4   5
ENDBRANCH   2   4
TORSDOF 4
ENDMDL
MODEL      258
REMARK 921   NORMALIZED FREE ENERGY PREDICTED BY IDOCK:   38.83 KCAL/MOL
REMARK 922        TOTAL FREE ENERGY PREDICTED BY IDOCK:   47.61 KCAL/MOL
REMARK 923 INTER-LIGAND FREE ENERGY PREDICTED BY IDOCK:   23.20 KCAL/MOL
REMARK 924 INTRA-LIGAND FREE ENERGY PREDICTED BY IDOCK:   24.41 KCAL/MOL
REMARK 927      BINDING AFFINITY PREDICTED BY RF-SCORE:    0.00 PKD
ROOT
HETATM    1  C   UNL     1     -10.468   8.232  64.996  1.00  0.00     4.477 C  
HETATM    2  N   UNL     1      -9.413   8.113  66.002  1.00  0.00    -0.140 NA 
HETATM    3  C   UNL     1      -9.245   6.704  66.373  1.00  0.00    -0.151 C  
ENDROOT
BRANCH   2   4
HETATM    4  C   UNL     1      -8.153   8.726  65.516  1.00  0.00    -0.115 C  
BRANCH   4   5
HETATM    5  C   UNL     1      -8.386   9.750  64.396  1.00  0.00    -0.168 C  
BRANCH   5   6
HETATM    6  O   UNL     1      -8.874  11.006  64.878  1.00  0.00    -0.159 OA 
BRANCH   6   7
HETATM    7  C   UNL     1      -8.574  11.251  66.183  1.00  0.00    -0.156 C  
HETATM    8  C   UNL     1      -9.855  11.307  67.017  1.00  0.00    -0.217 C  
HETATM    9  O   UNL     1      -7.448  11.486  66.601  1.00  0.00    -0.138 OA 
HETATM   10  C   UNL     1     -10.610   9.979  67.055  1.00  0.00    -0.279 A  
HETATM   11  C   UNL     1      -9.595  11.927  68.423  1.00  0.00    -0.196 C  
HETATM   12  O   UNL     1      -8.707  11.109  69.192  1.00  0.00    -0.356 OA 
HETATM   13  C   UNL     1      -9.946   8.745  67.085  1.00  0.00    -0.295 A  
HETATM   14  C   UNL     1      -9.029  13.358  68.376  1.00  0.00    -0.136 C  
HETATM   15  C   UNL     1      -9.283  13.892  69.782  1.00  0.00     1.413 C  
HETATM   16  H   UNL     1      -8.548  11.487  70.049  1.00  0.00     0.000 HD 
HETATM   17  C   UNL     1     -10.672   7.554  67.168  1.00  0.00    -0.379 A  
HETATM   18  C   UNL     1     -12.063   7.580  67.245  1.00  0.00     4.170 A  
HETATM   19  C   UNL     1     -10.642  13.329  70.167  1.00  0.00     1.404 C  
HETATM   20  C   UNL     1     -10.885  12.130  69.246  1.00  0.00    -0.105 C  
HETATM   21  C   UNL     1     -12.735   8.796  67.212  1.00  0.00    11.696 A  
HETATM   22  C   UNL     1     -12.016   9.984  67.098  1.00  0.00     3.025 A  
ENDBRANCH   6   7
ENDBRANCH   5   6
ENDBRANCH   4   5
ENDBRANCH   2   4
TORSDOF 4
ENDMDL
