MODEL        1
REMARK 921   NORMALIZED FREE ENERGY PREDICTED BY IDOCK:   -6.73 KCAL/MOL
REMARK 922        TOTAL FREE ENERGY PREDICTED BY IDOCK:   -8.21 KCAL/MOL
REMARK 923 INTER-LIGAND FREE ENERGY PREDICTED BY IDOCK:   -7.52 KCAL/MOL
REMARK 924 INTRA-LIGAND FREE ENERGY PREDICTED BY IDOCK:   -0.69 KCAL/MOL
REMARK 927      BINDING AFFINITY PREDICTED BY RF-SCORE:    0.00 PKD
ROOT
HETATM    1  O   UNL     1     -12.658  14.812  67.230  1.00  0.00    -0.379 OA 
HETATM    2  C   UNL     1     -11.602  13.831  67.172  1.00  0.00    -0.364 C  
HETATM    3  H   UNL     1     -12.656  15.261  66.392  1.00  0.00     0.000 HD 
HETATM    4  C   UNL     1     -11.605  13.094  68.547  1.00  0.00    -0.361 C  
HETATM    5  C   UNL     1     -12.001  12.804  66.070  1.00  0.00    -0.491 C  
HETATM    6  C   UNL     1     -10.297  14.601  66.905  1.00  0.00    -0.264 A  
HETATM    7  C   UNL     1     -12.184  13.343  64.644  1.00  0.00    -0.456 C  
HETATM    8  C   UNL     1      -9.049  14.141  67.361  1.00  0.00    -0.199 A  
HETATM    9  C   UNL     1     -11.107  11.558  65.927  1.00  0.00    -0.274 C  
HETATM   10  C   UNL     1      -7.912  14.958  67.320  1.00  0.00    -0.237 A  
HETATM   11  C   UNL     1     -12.056  12.096  63.778  1.00  0.00    -0.620 C  
HETATM   12  C   UNL     1     -10.325  15.866  66.288  1.00  0.00    -0.324 A  
HETATM   13  C   UNL     1     -10.909  11.345  64.431  1.00  0.00    -0.397 C  
HETATM   14  C   UNL     1      -7.986  16.230  66.767  1.00  0.00    -0.306 A  
HETATM   15  C   UNL     1      -9.184  16.674  66.220  1.00  0.00    -0.328 A  
ENDROOT
BRANCH   4  16
HETATM   16  C   UNL     1     -11.320  13.988  69.767  1.00  0.00    -0.179 C  
BRANCH  16  17
HETATM   17  N   UNL     1     -12.461  14.856  70.134  1.00  0.00    -0.323 NA 
HETATM   18  C   UNL     1     -13.604  14.152  70.738  1.00  0.00     0.124 C  
HETATM   19  C   UNL     1     -12.792  14.632  73.077  1.00  0.00    -0.572 C  
HETATM   20  C   UNL     1     -13.313  13.565  72.120  1.00  0.00    -0.593 C  
HETATM   21  C   UNL     1     -11.664  15.450  72.451  1.00  0.00    -0.565 C  
HETATM   22  C   UNL     1     -12.025  15.934  71.042  1.00  0.00    -0.412 C  
ENDBRANCH  16  17
ENDBRANCH   4  16
TORSDOF 2
ENDMDL
MODEL        2
REMARK 921   NORMALIZED FREE ENERGY PREDICTED BY IDOCK:   -6.65 KCAL/MOL
REMARK 922        TOTAL FREE ENERGY PREDICTED BY IDOCK:   -8.12 KCAL/MOL
REMARK 923 INTER-LIGAND FREE ENERGY PREDICTED BY IDOCK:   -7.53 KCAL/MOL
REMARK 924 INTRA-LIGAND FREE ENERGY PREDICTED BY IDOCK:   -0.59 KCAL/MOL
REMARK 927      BINDING AFFINITY PREDICTED BY RF-SCORE:    0.00 PKD
ROOT
HETATM    1  O   UNL     1      -9.324  14.101  67.852  1.00  0.00    -0.192 OA 
HETATM    2  C   UNL     1     -10.699  13.695  67.705  1.00  0.00    -0.246 C  
HETATM    3  H   UNL     1      -8.797  13.430  67.433  1.00  0.00     0.000 HD 
HETATM    4  C   UNL     1     -11.564  14.797  68.394  1.00  0.00    -0.350 C  
HETATM    5  C   UNL     1     -11.015  13.713  66.179  1.00  0.00    -0.285 C  
HETATM    6  C   UNL     1     -10.829  12.319  68.382  1.00  0.00    -0.257 A  
HETATM    7  C   UNL     1     -10.181  12.789  65.281  1.00  0.00    -0.296 C  
HETATM    8  C   UNL     1     -12.029  11.883  68.970  1.00  0.00    -0.321 A  
HETATM    9  C   UNL     1     -12.480  13.472  65.771  1.00  0.00    -0.514 C  
HETATM   10  C   UNL     1     -12.070  10.743  69.783  1.00  0.00    -0.389 A  
HETATM   11  C   UNL     1     -11.032  12.660  64.024  1.00  0.00    -0.448 C  
HETATM   12  C   UNL     1      -9.703  11.489  68.537  1.00  0.00    -0.191 A  
HETATM   13  C   UNL     1     -12.439  12.523  64.579  1.00  0.00    -0.539 C  
HETATM   14  C   UNL     1     -10.925   9.980  69.975  1.00  0.00    -0.352 A  
HETATM   15  C   UNL     1      -9.747  10.333  69.326  1.00  0.00    -0.240 A  
ENDROOT
BRANCH   4  16
HETATM   16  C   UNL     1     -11.309  14.979  69.900  1.00  0.00    -0.278 C  
BRANCH  16  17
HETATM   17  N   UNL     1     -12.323  15.829  70.564  1.00  0.00    -0.393 NA 
HETATM   18  C   UNL     1     -13.632  15.187  70.766  1.00  0.00    -0.245 C  
HETATM   19  C   UNL     1     -13.035  14.476  73.110  1.00  0.00    -0.577 C  
HETATM   20  C   UNL     1     -13.611  14.033  71.769  1.00  0.00    -0.476 C  
HETATM   21  C   UNL     1     -11.719  15.231  72.938  1.00  0.00    -0.478 C  
HETATM   22  C   UNL     1     -11.822  16.319  71.863  1.00  0.00    -0.462 C  
ENDBRANCH  16  17
ENDBRANCH   4  16
TORSDOF 2
ENDMDL
MODEL        3
REMARK 921   NORMALIZED FREE ENERGY PREDICTED BY IDOCK:   -6.54 KCAL/MOL
REMARK 922        TOTAL FREE ENERGY PREDICTED BY IDOCK:   -7.99 KCAL/MOL
REMARK 923 INTER-LIGAND FREE ENERGY PREDICTED BY IDOCK:   -7.45 KCAL/MOL
REMARK 924 INTRA-LIGAND FREE ENERGY PREDICTED BY IDOCK:   -0.54 KCAL/MOL
REMARK 927      BINDING AFFINITY PREDICTED BY RF-SCORE:    0.00 PKD
ROOT
HETATM    1  O   UNL     1      -9.529  13.939  69.105  1.00  0.00    -0.402 OA 
HETATM    2  C   UNL     1     -10.244  14.906  68.311  1.00  0.00    -0.225 C  
HETATM    3  H   UNL     1      -8.866  13.561  68.539  1.00  0.00     0.000 HD 
HETATM    4  C   UNL     1     -11.334  15.526  69.241  1.00  0.00    -0.330 C  
HETATM    5  C   UNL     1      -9.226  16.028  67.942  1.00  0.00    -0.196 C  
HETATM    6  C   UNL     1     -10.838  14.145  67.114  1.00  0.00    -0.291 A  
HETATM    7  C   UNL     1      -7.992  15.613  67.130  1.00  0.00    -0.254 C  
HETATM    8  C   UNL     1     -12.029  14.548  66.484  1.00  0.00    -0.358 A  
HETATM    9  C   UNL     1      -9.791  17.270  67.227  1.00  0.00    -0.267 C  
HETATM   10  C   UNL     1     -12.680  13.722  65.560  1.00  0.00    -0.530 A  
HETATM   11  C   UNL     1      -7.512  16.926  66.525  1.00  0.00    -0.328 C  
HETATM   12  C   UNL     1     -10.262  12.936  66.677  1.00  0.00    -0.251 A  
HETATM   13  C   UNL     1      -8.806  17.604  66.113  1.00  0.00    -0.138 C  
HETATM   14  C   UNL     1     -12.123  12.502  65.199  1.00  0.00    -0.503 A  
HETATM   15  C   UNL     1     -10.897  12.121  65.732  1.00  0.00    -0.319 A  
ENDROOT
BRANCH   4  16
HETATM   16  C   UNL     1     -12.376  14.530  69.778  1.00  0.00    -0.272 C  
BRANCH  16  17
HETATM   17  N   UNL     1     -12.056  14.025  71.133  1.00  0.00    -0.327 NA 
HETATM   18  C   UNL     1     -11.416  15.007  72.023  1.00  0.00    -0.268 C  
HETATM   19  C   UNL     1     -13.625  15.666  73.048  1.00  0.00    -0.619 C  
HETATM   20  C   UNL     1     -12.326  16.169  72.425  1.00  0.00    -0.554 C  
HETATM   21  C   UNL     1     -14.273  14.575  72.198  1.00  0.00    -0.619 C  
HETATM   22  C   UNL     1     -13.266  13.494  71.791  1.00  0.00    -0.404 C  
ENDBRANCH  16  17
ENDBRANCH   4  16
TORSDOF 2
ENDMDL
MODEL        4
REMARK 921   NORMALIZED FREE ENERGY PREDICTED BY IDOCK:   -6.41 KCAL/MOL
REMARK 922        TOTAL FREE ENERGY PREDICTED BY IDOCK:   -7.85 KCAL/MOL
REMARK 923 INTER-LIGAND FREE ENERGY PREDICTED BY IDOCK:   -7.46 KCAL/MOL
REMARK 924 INTRA-LIGAND FREE ENERGY PREDICTED BY IDOCK:   -0.39 KCAL/MOL
REMARK 927      BINDING AFFINITY PREDICTED BY RF-SCORE:    0.00 PKD
ROOT
HETATM    1  O   UNL     1     -12.889  14.186  66.709  1.00  0.00    -0.428 OA 
HETATM    2  C   UNL     1     -11.699  13.524  67.183  1.00  0.00    -0.379 C  
HETATM    3  H   UNL     1     -12.716  14.446  65.812  1.00  0.00     0.000 HD 
HETATM    4  C   UNL     1     -11.985  13.097  68.656  1.00  0.00    -0.319 C  
HETATM    5  C   UNL     1     -11.531  12.232  66.327  1.00  0.00    -0.435 C  
HETATM    6  C   UNL     1     -10.550  14.540  67.063  1.00  0.00    -0.278 A  
HETATM    7  C   UNL     1     -11.365  12.413  64.812  1.00  0.00    -0.360 C  
HETATM    8  C   UNL     1      -9.440  14.522  67.926  1.00  0.00    -0.212 A  
HETATM    9  C   UNL     1     -10.413  11.261  66.750  1.00  0.00    -0.291 C  
HETATM   10  C   UNL     1      -8.527  15.584  67.961  1.00  0.00    -0.143 A  
HETATM   11  C   UNL     1     -10.737  11.098  64.368  1.00  0.00    -0.388 C  
HETATM   12  C   UNL     1     -10.630  15.607  66.147  1.00  0.00    -0.325 A  
HETATM   13  C   UNL     1      -9.725  10.818  65.465  1.00  0.00    -0.290 C  
HETATM   14  C   UNL     1      -8.671  16.658  67.092  1.00  0.00    -0.215 A  
HETATM   15  C   UNL     1      -9.703  16.656  66.161  1.00  0.00    -0.329 A  
ENDROOT
BRANCH   4  16
HETATM   16  C   UNL     1     -12.269  14.256  69.628  1.00  0.00    -0.323 C  
BRANCH  16  17
HETATM   17  N   UNL     1     -12.063  13.891  71.047  1.00  0.00    -0.327 NA 
HETATM   18  C   UNL     1     -11.548  14.977  71.896  1.00  0.00    -0.349 C  
HETATM   19  C   UNL     1     -13.866  15.628  72.645  1.00  0.00    -0.648 C  
HETATM   20  C   UNL     1     -12.532  16.129  72.100  1.00  0.00    -0.457 C  
HETATM   21  C   UNL     1     -14.391  14.437  71.846  1.00  0.00    -0.627 C  
HETATM   22  C   UNL     1     -13.311  13.369  71.638  1.00  0.00    -0.338 C  
ENDBRANCH  16  17
ENDBRANCH   4  16
TORSDOF 2
ENDMDL
MODEL        5
REMARK 921   NORMALIZED FREE ENERGY PREDICTED BY IDOCK:   -6.24 KCAL/MOL
REMARK 922        TOTAL FREE ENERGY PREDICTED BY IDOCK:   -7.66 KCAL/MOL
REMARK 923 INTER-LIGAND FREE ENERGY PREDICTED BY IDOCK:   -7.04 KCAL/MOL
REMARK 924 INTRA-LIGAND FREE ENERGY PREDICTED BY IDOCK:   -0.63 KCAL/MOL
REMARK 927      BINDING AFFINITY PREDICTED BY RF-SCORE:    0.00 PKD
ROOT
HETATM    1  O   UNL     1     -12.166  14.666  67.912  1.00  0.00    -0.593 OA 
HETATM    2  C   UNL     1     -11.002  13.880  67.589  1.00  0.00    -0.264 C  
HETATM    3  H   UNL     1     -12.910  14.077  67.875  1.00  0.00     0.000 HD 
HETATM    4  C   UNL     1      -9.780  14.849  67.649  1.00  0.00    -0.212 C  
HETATM    5  C   UNL     1     -10.841  12.826  68.727  1.00  0.00    -0.270 C  
HETATM    6  C   UNL     1     -11.237  13.294  66.186  1.00  0.00    -0.317 A  
HETATM    7  C   UNL     1     -11.999  11.840  68.936  1.00  0.00    -0.332 C  
HETATM    8  C   UNL     1     -10.179  13.006  65.306  1.00  0.00    -0.294 A  
HETATM    9  C   UNL     1      -9.566  11.962  68.697  1.00  0.00    -0.101 C  
HETATM   10  C   UNL     1     -10.414  12.702  63.959  1.00  0.00    -0.443 A  
HETATM   11  C   UNL     1     -11.350  10.696  69.705  1.00  0.00    -0.371 C  
HETATM   12  C   UNL     1     -12.544  13.134  65.688  1.00  0.00    -0.414 A  
HETATM   13  C   UNL     1     -10.008  10.538  69.013  1.00  0.00    -0.223 C  
HETATM   14  C   UNL     1     -11.714  12.618  63.478  1.00  0.00    -0.604 A  
HETATM   15  C   UNL     1     -12.783  12.801  64.349  1.00  0.00    -0.370 A  
ENDROOT
BRANCH   4  16
HETATM   16  C   UNL     1      -9.823  16.015  66.646  1.00  0.00    -0.260 C  
BRANCH  16  17
HETATM   17  N   UNL     1     -10.521  17.210  67.171  1.00  0.00    -0.313 NA 
HETATM   18  C   UNL     1     -10.221  17.534  68.575  1.00  0.00    -0.378 C  
HETATM   19  C   UNL     1      -8.417  19.168  67.917  1.00  0.00    -0.335 C  
HETATM   20  C   UNL     1      -8.781  17.990  68.814  1.00  0.00    -0.206 C  
HETATM   21  C   UNL     1      -8.799  18.909  66.461  1.00  0.00    -0.324 C  
HETATM   22  C   UNL     1     -10.236  18.391  66.333  1.00  0.00    -0.410 C  
ENDBRANCH  16  17
ENDBRANCH   4  16
TORSDOF 2
ENDMDL
MODEL        6
REMARK 921   NORMALIZED FREE ENERGY PREDICTED BY IDOCK:   -6.20 KCAL/MOL
REMARK 922        TOTAL FREE ENERGY PREDICTED BY IDOCK:   -7.61 KCAL/MOL
REMARK 923 INTER-LIGAND FREE ENERGY PREDICTED BY IDOCK:   -7.16 KCAL/MOL
REMARK 924 INTRA-LIGAND FREE ENERGY PREDICTED BY IDOCK:   -0.45 KCAL/MOL
REMARK 927      BINDING AFFINITY PREDICTED BY RF-SCORE:    0.00 PKD
ROOT
HETATM    1  O   UNL     1      -8.700  13.904  66.104  1.00  0.00    -0.372 OA 
HETATM    2  C   UNL     1     -10.089  14.269  65.986  1.00  0.00    -0.318 C  
HETATM    3  H   UNL     1      -8.676  12.961  66.212  1.00  0.00     0.000 HD 
HETATM    4  C   UNL     1     -10.128  15.820  65.810  1.00  0.00    -0.399 C  
HETATM    5  C   UNL     1     -10.617  13.618  64.672  1.00  0.00    -0.446 C  
HETATM    6  C   UNL     1     -10.783  13.793  67.274  1.00  0.00    -0.286 A  
HETATM    7  C   UNL     1     -10.550  12.088  64.573  1.00  0.00    -0.356 C  
HETATM    8  C   UNL     1     -11.910  14.445  67.804  1.00  0.00    -0.402 A  
HETATM    9  C   UNL     1     -12.044  13.997  64.234  1.00  0.00    -0.476 C  
HETATM   10  C   UNL     1     -12.385  14.152  69.089  1.00  0.00    -0.173 A  
HETATM   11  C   UNL     1     -11.555  11.763  63.475  1.00  0.00    -0.487 C  
HETATM   12  C   UNL     1     -10.235  12.744  68.036  1.00  0.00    -0.228 A  
HETATM   13  C   UNL     1     -12.708  12.702  63.781  1.00  0.00    -0.341 C  
HETATM   14  C   UNL     1     -11.780  13.158  69.847  1.00  0.00    -0.327 A  
HETATM   15  C   UNL     1     -10.725  12.429  69.310  1.00  0.00     0.004 A  
ENDROOT
BRANCH   4  16
HETATM   16  C   UNL     1      -9.553  16.624  66.989  1.00  0.00    -0.244 C  
BRANCH  16  17
HETATM   17  N   UNL     1     -10.430  17.735  67.420  1.00  0.00    -0.367 NA 
HETATM   18  C   UNL     1     -10.024  18.393  68.673  1.00  0.00    -0.387 C  
HETATM   19  C   UNL     1      -8.756  20.188  67.436  1.00  0.00    -0.425 C  
HETATM   20  C   UNL     1      -8.711  19.170  68.570  1.00  0.00    -0.401 C  
HETATM   21  C   UNL     1      -9.264  19.565  66.138  1.00  0.00    -0.363 C  
HETATM   22  C   UNL     1     -10.545  18.753  66.357  1.00  0.00    -0.368 C  
ENDBRANCH  16  17
ENDBRANCH   4  16
TORSDOF 2
ENDMDL
MODEL        7
REMARK 921   NORMALIZED FREE ENERGY PREDICTED BY IDOCK:   -6.18 KCAL/MOL
REMARK 922        TOTAL FREE ENERGY PREDICTED BY IDOCK:   -7.60 KCAL/MOL
REMARK 923 INTER-LIGAND FREE ENERGY PREDICTED BY IDOCK:   -6.91 KCAL/MOL
REMARK 924 INTRA-LIGAND FREE ENERGY PREDICTED BY IDOCK:   -0.69 KCAL/MOL
REMARK 927      BINDING AFFINITY PREDICTED BY RF-SCORE:    0.00 PKD
ROOT
HETATM    1  O   UNL     1     -11.114  16.009  67.951  1.00  0.00    -0.338 OA 
HETATM    2  C   UNL     1     -10.097  16.665  67.167  1.00  0.00    -0.276 C  
HETATM    3  H   UNL     1     -10.987  16.291  68.849  1.00  0.00     0.000 HD 
HETATM    4  C   UNL     1     -10.305  16.203  65.692  1.00  0.00    -0.405 C  
HETATM    5  C   UNL     1     -10.387  18.195  67.242  1.00  0.00    -0.399 C  
HETATM    6  C   UNL     1      -8.741  16.230  67.748  1.00  0.00    -0.182 A  
HETATM    7  C   UNL     1     -10.364  18.845  68.633  1.00  0.00    -0.267 C  
HETATM    8  C   UNL     1      -7.580  16.143  66.960  1.00  0.00    -0.260 A  
HETATM    9  C   UNL     1      -9.528  19.109  66.347  1.00  0.00    -0.390 C  
HETATM   10  C   UNL     1      -6.418  15.524  67.438  1.00  0.00    -0.143 A  
HETATM   11  C   UNL     1     -10.171  20.324  68.326  1.00  0.00    -0.373 C  
HETATM   12  C   UNL     1      -8.642  15.786  69.081  1.00  0.00    -0.256 A  
HETATM   13  C   UNL     1      -9.146  20.308  67.206  1.00  0.00    -0.504 C  
HETATM   14  C   UNL     1      -6.373  15.033  68.736  1.00  0.00    -0.082 A  
HETATM   15  C   UNL     1      -7.473  15.191  69.571  1.00  0.00    -0.213 A  
ENDROOT
BRANCH   4  16
HETATM   16  C   UNL     1     -10.148  14.691  65.454  1.00  0.00    -0.372 C  
BRANCH  16  17
HETATM   17  N   UNL     1     -11.319  13.905  65.903  1.00  0.00    -0.309 NA 
HETATM   18  C   UNL     1     -12.492  13.981  65.017  1.00  0.00    -0.425 C  
HETATM   19  C   UNL     1     -11.837  11.871  63.802  1.00  0.00    -0.558 C  
HETATM   20  C   UNL     1     -12.286  13.321  63.653  1.00  0.00    -0.522 C  
HETATM   21  C   UNL     1     -10.679  11.736  64.788  1.00  0.00    -0.355 C  
HETATM   22  C   UNL     1     -10.953  12.488  66.095  1.00  0.00    -0.284 C  
ENDBRANCH  16  17
ENDBRANCH   4  16
TORSDOF 2
ENDMDL
MODEL        8
REMARK 921   NORMALIZED FREE ENERGY PREDICTED BY IDOCK:   -6.18 KCAL/MOL
REMARK 922        TOTAL FREE ENERGY PREDICTED BY IDOCK:   -7.59 KCAL/MOL
REMARK 923 INTER-LIGAND FREE ENERGY PREDICTED BY IDOCK:   -6.97 KCAL/MOL
REMARK 924 INTRA-LIGAND FREE ENERGY PREDICTED BY IDOCK:   -0.62 KCAL/MOL
REMARK 927      BINDING AFFINITY PREDICTED BY RF-SCORE:    0.00 PKD
ROOT
HETATM    1  O   UNL     1      -8.803  14.310  66.137  1.00  0.00    -0.465 OA 
HETATM    2  C   UNL     1     -10.242  14.229  66.097  1.00  0.00    -0.307 C  
HETATM    3  H   UNL     1      -8.479  13.422  66.039  1.00  0.00     0.000 HD 
HETATM    4  C   UNL     1     -10.774  15.687  66.260  1.00  0.00    -0.295 C  
HETATM    5  C   UNL     1     -10.625  13.728  64.671  1.00  0.00    -0.443 C  
HETATM    6  C   UNL     1     -10.666  13.302  67.249  1.00  0.00    -0.262 A  
HETATM    7  C   UNL     1     -10.091  12.354  64.245  1.00  0.00    -0.305 C  
HETATM    8  C   UNL     1     -11.902  13.437  67.905  1.00  0.00    -0.392 A  
HETATM    9  C   UNL     1     -12.125  13.713  64.322  1.00  0.00    -0.480 C  
HETATM   10  C   UNL     1     -12.176  12.751  69.095  1.00  0.00    -0.065 A  
HETATM   11  C   UNL     1     -11.015  11.958  63.100  1.00  0.00    -0.281 C  
HETATM   12  C   UNL     1      -9.768  12.349  67.769  1.00  0.00    -0.201 A  
HETATM   13  C   UNL     1     -12.381  12.397  63.598  1.00  0.00    -0.647 C  
HETATM   14  C   UNL     1     -11.242  11.868  69.622  1.00  0.00    -0.184 A  
HETATM   15  C   UNL     1     -10.050  11.640  68.943  1.00  0.00    -0.109 A  
ENDROOT
BRANCH   4  16
HETATM   16  C   UNL     1     -10.401  16.373  67.585  1.00  0.00    -0.284 C  
BRANCH  16  17
HETATM   17  N   UNL     1      -9.181  17.205  67.489  1.00  0.00    -0.231 NA 
HETATM   18  C   UNL     1      -9.122  18.081  66.307  1.00  0.00    -0.178 C  
HETATM   19  C   UNL     1     -10.071  20.037  67.585  1.00  0.00    -0.562 C  
HETATM   20  C   UNL     1     -10.161  19.203  66.311  1.00  0.00    -0.527 C  
HETATM   21  C   UNL     1     -10.034  19.159  68.834  1.00  0.00    -0.481 C  
HETATM   22  C   UNL     1      -9.011  18.025  68.704  1.00  0.00    -0.268 C  
ENDBRANCH  16  17
ENDBRANCH   4  16
TORSDOF 2
ENDMDL
MODEL        9
REMARK 921   NORMALIZED FREE ENERGY PREDICTED BY IDOCK:   -6.03 KCAL/MOL
REMARK 922        TOTAL FREE ENERGY PREDICTED BY IDOCK:   -7.42 KCAL/MOL
REMARK 923 INTER-LIGAND FREE ENERGY PREDICTED BY IDOCK:   -7.03 KCAL/MOL
REMARK 924 INTRA-LIGAND FREE ENERGY PREDICTED BY IDOCK:   -0.39 KCAL/MOL
REMARK 927      BINDING AFFINITY PREDICTED BY RF-SCORE:    0.00 PKD
ROOT
HETATM    1  O   UNL     1      -8.440  13.952  66.651  1.00  0.00    -0.435 OA 
HETATM    2  C   UNL     1      -9.591  14.781  66.391  1.00  0.00    -0.301 C  
HETATM    3  H   UNL     1      -8.765  13.070  66.783  1.00  0.00     0.000 HD 
HETATM    4  C   UNL     1      -9.055  16.231  66.176  1.00  0.00    -0.377 C  
HETATM    5  C   UNL     1     -10.208  14.287  65.048  1.00  0.00    -0.402 C  
HETATM    6  C   UNL     1     -10.512  14.656  67.617  1.00  0.00    -0.243 A  
HETATM    7  C   UNL     1     -10.688  12.830  64.992  1.00  0.00    -0.321 C  
HETATM    8  C   UNL     1     -11.368  15.696  68.021  1.00  0.00    -0.324 A  
HETATM    9  C   UNL     1     -11.363  15.123  64.466  1.00  0.00    -0.297 C  
HETATM   10  C   UNL     1     -12.019  15.664  69.261  1.00  0.00    -0.338 A  
HETATM   11  C   UNL     1     -11.650  12.822  63.811  1.00  0.00    -0.548 C  
HETATM   12  C   UNL     1     -10.441  13.526  68.453  1.00  0.00    -0.252 A  
HETATM   13  C   UNL     1     -12.409  14.126  63.982  1.00  0.00    -0.315 C  
HETATM   14  C   UNL     1     -11.875  14.565  70.097  1.00  0.00    -0.371 A  
HETATM   15  C   UNL     1     -11.113  13.479  69.681  1.00  0.00    -0.043 A  
ENDROOT
BRANCH   4  16
HETATM   16  C   UNL     1      -8.327  16.843  67.384  1.00  0.00    -0.186 C  
BRANCH  16  17
HETATM   17  N   UNL     1      -8.065  18.292  67.235  1.00  0.00    -0.227 NA 
HETATM   18  C   UNL     1      -8.732  18.925  66.085  1.00  0.00    -0.165 C  
HETATM   19  C   UNL     1     -10.686  19.664  67.498  1.00  0.00    -0.537 C  
HETATM   20  C   UNL     1     -10.256  18.982  66.203  1.00  0.00    -0.508 C  
HETATM   21  C   UNL     1      -9.946  19.098  68.708  1.00  0.00    -0.493 C  
HETATM   22  C   UNL     1      -8.434  19.019  68.466  1.00  0.00    -0.352 C  
ENDBRANCH  16  17
ENDBRANCH   4  16
TORSDOF 2
ENDMDL
MODEL       10
REMARK 921   NORMALIZED FREE ENERGY PREDICTED BY IDOCK:   -5.95 KCAL/MOL
REMARK 922        TOTAL FREE ENERGY PREDICTED BY IDOCK:   -7.34 KCAL/MOL
REMARK 923 INTER-LIGAND FREE ENERGY PREDICTED BY IDOCK:   -6.96 KCAL/MOL
REMARK 924 INTRA-LIGAND FREE ENERGY PREDICTED BY IDOCK:   -0.38 KCAL/MOL
REMARK 927      BINDING AFFINITY PREDICTED BY RF-SCORE:    0.00 PKD
ROOT
HETATM    1  O   UNL     1     -12.436  14.356  67.741  1.00  0.00    -0.588 OA 
HETATM    2  C   UNL     1     -11.175  13.702  67.493  1.00  0.00    -0.294 C  
HETATM    3  H   UNL     1     -13.108  13.690  67.652  1.00  0.00     0.000 HD 
HETATM    4  C   UNL     1     -10.071  14.795  67.639  1.00  0.00    -0.227 C  
HETATM    5  C   UNL     1     -10.977  12.658  68.634  1.00  0.00    -0.292 C  
HETATM    6  C   UNL     1     -11.253  13.111  66.075  1.00  0.00    -0.316 A  
HETATM    7  C   UNL     1     -12.034  11.551  68.761  1.00  0.00    -0.335 C  
HETATM    8  C   UNL     1     -10.115  12.949  65.266  1.00  0.00    -0.254 A  
HETATM    9  C   UNL     1      -9.617  11.936  68.685  1.00  0.00    -0.101 C  
HETATM   10  C   UNL     1     -10.226  12.637  63.905  1.00  0.00    -0.340 A  
HETATM   11  C   UNL     1     -11.318  10.474  69.566  1.00  0.00    -0.341 C  
HETATM   12  C   UNL     1     -12.500  12.818  65.490  1.00  0.00    -0.419 A  
HETATM   13  C   UNL     1      -9.924  10.469  68.964  1.00  0.00    -0.223 C  
HETATM   14  C   UNL     1     -11.475  12.421  63.338  1.00  0.00    -0.526 A  
HETATM   15  C   UNL     1     -12.613  12.478  64.136  1.00  0.00    -0.474 A  
ENDROOT
BRANCH   4  16
HETATM   16  C   UNL     1     -10.173  15.962  66.641  1.00  0.00    -0.288 C  
BRANCH  16  17
HETATM   17  N   UNL     1      -9.099  16.966  66.805  1.00  0.00    -0.234 NA 
HETATM   18  C   UNL     1      -9.264  18.186  65.999  1.00  0.00     0.013 C  
HETATM   19  C   UNL     1     -10.377  19.413  67.901  1.00  0.00    -0.542 C  
HETATM   20  C   UNL     1     -10.450  19.054  66.420  1.00  0.00    -0.524 C  
HETATM   21  C   UNL     1     -10.112  18.183  68.767  1.00  0.00    -0.392 C  
HETATM   22  C   UNL     1      -8.950  17.343  68.225  1.00  0.00    -0.268 C  
ENDBRANCH  16  17
ENDBRANCH   4  16
TORSDOF 2
ENDMDL
MODEL       11
REMARK 921   NORMALIZED FREE ENERGY PREDICTED BY IDOCK:   -5.93 KCAL/MOL
REMARK 922        TOTAL FREE ENERGY PREDICTED BY IDOCK:   -7.31 KCAL/MOL
REMARK 923 INTER-LIGAND FREE ENERGY PREDICTED BY IDOCK:   -6.63 KCAL/MOL
REMARK 924 INTRA-LIGAND FREE ENERGY PREDICTED BY IDOCK:   -0.69 KCAL/MOL
REMARK 927      BINDING AFFINITY PREDICTED BY RF-SCORE:    0.00 PKD
ROOT
HETATM    1  O   UNL     1      -9.393  12.981  68.693  1.00  0.00    -0.383 OA 
HETATM    2  C   UNL     1     -10.824  13.152  68.674  1.00  0.00    -0.259 C  
HETATM    3  H   UNL     1      -9.015  13.847  68.598  1.00  0.00     0.000 HD 
HETATM    4  C   UNL     1     -11.444  11.729  68.830  1.00  0.00    -0.357 C  
HETATM    5  C   UNL     1     -11.196  13.986  69.938  1.00  0.00    -0.131 C  
HETATM    6  C   UNL     1     -11.172  13.815  67.330  1.00  0.00    -0.329 A  
HETATM    7  C   UNL     1     -10.582  15.388  70.057  1.00  0.00    -0.319 C  
HETATM    8  C   UNL     1     -12.405  13.607  66.687  1.00  0.00    -0.381 A  
HETATM    9  C   UNL     1     -12.697  14.167  70.232  1.00  0.00    -0.287 C  
HETATM   10  C   UNL     1     -12.617  14.019  65.365  1.00  0.00    -0.529 A  
HETATM   11  C   UNL     1     -11.496  16.086  71.056  1.00  0.00    -0.460 C  
HETATM   12  C   UNL     1     -10.209  14.571  66.634  1.00  0.00    -0.276 A  
HETATM   13  C   UNL     1     -12.879  15.626  70.632  1.00  0.00    -0.400 C  
HETATM   14  C   UNL     1     -11.623  14.702  64.679  1.00  0.00    -0.406 A  
HETATM   15  C   UNL     1     -10.429  15.009  65.322  1.00  0.00    -0.428 A  
ENDROOT
BRANCH   4  16
HETATM   16  C   UNL     1     -11.097  10.739  67.705  1.00  0.00    -0.319 C  
BRANCH  16  17
HETATM   17  N   UNL     1      -9.812  10.037  67.922  1.00  0.00    -0.143 NA 
HETATM   18  C   UNL     1      -9.659   9.424  69.252  1.00  0.00    -0.171 C  
HETATM   19  C   UNL     1     -10.472   7.185  68.425  1.00  0.00    -0.228 C  
HETATM   20  C   UNL     1     -10.605   8.250  69.509  1.00  0.00    -0.216 C  
HETATM   21  C   UNL     1     -10.532   7.793  67.025  1.00  0.00    -0.419 C  
HETATM   22  C   UNL     1      -9.601   9.004  66.889  1.00  0.00    -0.185 C  
ENDBRANCH  16  17
ENDBRANCH   4  16
TORSDOF 2
ENDMDL
MODEL       12
REMARK 921   NORMALIZED FREE ENERGY PREDICTED BY IDOCK:   -5.85 KCAL/MOL
REMARK 922        TOTAL FREE ENERGY PREDICTED BY IDOCK:   -7.22 KCAL/MOL
REMARK 923 INTER-LIGAND FREE ENERGY PREDICTED BY IDOCK:   -6.55 KCAL/MOL
REMARK 924 INTRA-LIGAND FREE ENERGY PREDICTED BY IDOCK:   -0.67 KCAL/MOL
REMARK 927      BINDING AFFINITY PREDICTED BY RF-SCORE:    0.00 PKD
ROOT
HETATM    1  O   UNL     1      -9.666  12.942  68.896  1.00  0.00    -0.413 OA 
HETATM    2  C   UNL     1     -10.476  12.775  67.715  1.00  0.00    -0.223 C  
HETATM    3  H   UNL     1      -8.826  13.275  68.604  1.00  0.00     0.000 HD 
HETATM    4  C   UNL     1     -11.855  12.227  68.195  1.00  0.00    -0.372 C  
HETATM    5  C   UNL     1     -10.700  14.198  67.118  1.00  0.00    -0.280 C  
HETATM    6  C   UNL     1      -9.725  11.794  66.798  1.00  0.00    -0.213 A  
HETATM    7  C   UNL     1      -9.452  14.984  66.693  1.00  0.00    -0.288 C  
HETATM    8  C   UNL     1     -10.395  10.942  65.902  1.00  0.00    -0.310 A  
HETATM    9  C   UNL     1     -11.678  14.307  65.933  1.00  0.00    -0.375 C  
HETATM   10  C   UNL     1      -9.726   9.897  65.252  1.00  0.00    -0.383 A  
HETATM   11  C   UNL     1     -10.005  16.029  65.734  1.00  0.00    -0.382 C  
HETATM   12  C   UNL     1      -8.331  11.634  66.910  1.00  0.00    -0.169 A  
HETATM   13  C   UNL     1     -11.023  15.245  64.926  1.00  0.00    -0.445 C  
HETATM   14  C   UNL     1      -8.361   9.720  65.436  1.00  0.00    -0.143 A  
HETATM   15  C   UNL     1      -7.654  10.608  66.239  1.00  0.00    -0.137 A  
ENDROOT
BRANCH   4  16
HETATM   16  C   UNL     1     -11.804  10.859  68.899  1.00  0.00    -0.270 C  
BRANCH  16  17
HETATM   17  N   UNL     1     -11.416  10.951  70.324  1.00  0.00    -0.311 NA 
HETATM   18  C   UNL     1     -12.542  11.031  71.268  1.00  0.00    -0.412 C  
HETATM   19  C   UNL     1     -12.516   8.540  71.665  1.00  0.00    -0.370 C  
HETATM   20  C   UNL     1     -13.381   9.754  71.345  1.00  0.00    -0.449 C  
HETATM   21  C   UNL     1     -11.283   8.473  70.767  1.00  0.00    -0.289 C  
HETATM   22  C   UNL     1     -10.549   9.817  70.702  1.00  0.00    -0.313 C  
ENDBRANCH  16  17
ENDBRANCH   4  16
TORSDOF 2
ENDMDL
MODEL       13
REMARK 921   NORMALIZED FREE ENERGY PREDICTED BY IDOCK:   -5.80 KCAL/MOL
REMARK 922        TOTAL FREE ENERGY PREDICTED BY IDOCK:   -7.17 KCAL/MOL
REMARK 923 INTER-LIGAND FREE ENERGY PREDICTED BY IDOCK:   -6.50 KCAL/MOL
REMARK 924 INTRA-LIGAND FREE ENERGY PREDICTED BY IDOCK:   -0.67 KCAL/MOL
REMARK 927      BINDING AFFINITY PREDICTED BY RF-SCORE:    0.00 PKD
ROOT
HETATM    1  O   UNL     1      -9.944  12.725  68.619  1.00  0.00    -0.348 OA 
HETATM    2  C   UNL     1     -10.666  12.140  67.516  1.00  0.00    -0.232 C  
HETATM    3  H   UNL     1      -9.241  13.240  68.240  1.00  0.00     0.000 HD 
HETATM    4  C   UNL     1     -11.821  11.296  68.139  1.00  0.00    -0.276 C  
HETATM    5  C   UNL     1     -11.302  13.319  66.718  1.00  0.00    -0.359 C  
HETATM    6  C   UNL     1      -9.656  11.289  66.728  1.00  0.00    -0.214 A  
HETATM    7  C   UNL     1     -10.343  14.357  66.119  1.00  0.00    -0.305 C  
HETATM    8  C   UNL     1     -10.040  10.145  66.007  1.00  0.00    -0.317 A  
HETATM    9  C   UNL     1     -12.265  12.943  65.576  1.00  0.00    -0.527 C  
HETATM   10  C   UNL     1      -9.090   9.252  65.495  1.00  0.00    -0.275 A  
HETATM   11  C   UNL     1     -11.180  15.025  65.037  1.00  0.00    -0.413 C  
HETATM   12  C   UNL     1      -8.277  11.566  66.799  1.00  0.00    -0.164 A  
HETATM   13  C   UNL     1     -11.918  13.856  64.407  1.00  0.00    -0.480 C  
HETATM   14  C   UNL     1      -7.734   9.516  65.641  1.00  0.00    -0.101 A  
HETATM   15  C   UNL     1      -7.324  10.689  66.264  1.00  0.00    -0.137 A  
ENDROOT
BRANCH   4  16
HETATM   16  C   UNL     1     -11.366  10.136  69.042  1.00  0.00    -0.133 C  
BRANCH  16  17
HETATM   17  N   UNL     1     -11.166  10.539  70.452  1.00  0.00    -0.313 NA 
HETATM   18  C   UNL     1     -12.389  10.961  71.154  1.00  0.00    -0.374 C  
HETATM   19  C   UNL     1     -12.756   8.657  72.111  1.00  0.00    -0.447 C  
HETATM   20  C   UNL     1     -13.397   9.834  71.382  1.00  0.00    -0.449 C  
HETATM   21  C   UNL     1     -11.433   8.247  71.468  1.00  0.00    -0.325 C  
HETATM   22  C   UNL     1     -10.522   9.454  71.218  1.00  0.00    -0.315 C  
ENDBRANCH  16  17
ENDBRANCH   4  16
TORSDOF 2
ENDMDL
MODEL       14
REMARK 921   NORMALIZED FREE ENERGY PREDICTED BY IDOCK:   -5.75 KCAL/MOL
REMARK 922        TOTAL FREE ENERGY PREDICTED BY IDOCK:   -7.11 KCAL/MOL
REMARK 923 INTER-LIGAND FREE ENERGY PREDICTED BY IDOCK:   -6.42 KCAL/MOL
REMARK 924 INTRA-LIGAND FREE ENERGY PREDICTED BY IDOCK:   -0.69 KCAL/MOL
REMARK 927      BINDING AFFINITY PREDICTED BY RF-SCORE:    0.00 PKD
ROOT
HETATM    1  O   UNL     1      -8.731  14.123  66.157  1.00  0.00    -0.402 OA 
HETATM    2  C   UNL     1     -10.149  14.373  66.083  1.00  0.00    -0.309 C  
HETATM    3  H   UNL     1      -8.621  13.180  66.148  1.00  0.00     0.000 HD 
HETATM    4  C   UNL     1     -10.329  15.923  66.098  1.00  0.00    -0.341 C  
HETATM    5  C   UNL     1     -10.629  13.841  64.698  1.00  0.00    -0.443 C  
HETATM    6  C   UNL     1     -10.784  13.682  67.302  1.00  0.00    -0.283 A  
HETATM    7  C   UNL     1     -10.426  12.347  64.414  1.00  0.00    -0.371 C  
HETATM    8  C   UNL     1     -11.960  14.160  67.907  1.00  0.00    -0.378 A  
HETATM    9  C   UNL     1     -12.089  14.139  64.309  1.00  0.00    -0.471 C  
HETATM   10  C   UNL     1     -12.392  13.671  69.147  1.00  0.00    -0.115 A  
HETATM   11  C   UNL     1     -11.409  12.068  63.284  1.00  0.00    -0.396 C  
HETATM   12  C   UNL     1     -10.136  12.602  67.931  1.00  0.00    -0.222 A  
HETATM   13  C   UNL     1     -12.639  12.855  63.701  1.00  0.00    -0.325 C  
HETATM   14  C   UNL     1     -11.693  12.651  69.778  1.00  0.00    -0.354 A  
HETATM   15  C   UNL     1     -10.582  12.092  69.157  1.00  0.00    -0.067 A  
ENDROOT
BRANCH   4  16
HETATM   16  C   UNL     1      -9.816  16.627  67.366  1.00  0.00    -0.254 C  
BRANCH  16  17
HETATM   17  N   UNL     1      -8.344  16.781  67.392  1.00  0.00    -0.178 NA 
HETATM   18  C   UNL     1      -7.773  17.463  66.220  1.00  0.00    -0.305 C  
HETATM   19  C   UNL     1      -7.792  19.699  67.386  1.00  0.00    -0.302 C  
HETATM   20  C   UNL     1      -8.153  18.941  66.113  1.00  0.00    -0.241 C  
HETATM   21  C   UNL     1      -8.287  18.974  68.635  1.00  0.00    -0.397 C  
HETATM   22  C   UNL     1      -7.916  17.487  68.616  1.00  0.00    -0.268 C  
ENDBRANCH  16  17
ENDBRANCH   4  16
TORSDOF 2
ENDMDL
MODEL       15
REMARK 921   NORMALIZED FREE ENERGY PREDICTED BY IDOCK:   -5.72 KCAL/MOL
REMARK 922        TOTAL FREE ENERGY PREDICTED BY IDOCK:   -7.08 KCAL/MOL
REMARK 923 INTER-LIGAND FREE ENERGY PREDICTED BY IDOCK:   -6.95 KCAL/MOL
REMARK 924 INTRA-LIGAND FREE ENERGY PREDICTED BY IDOCK:   -0.13 KCAL/MOL
REMARK 927      BINDING AFFINITY PREDICTED BY RF-SCORE:    0.00 PKD
ROOT
HETATM    1  O   UNL     1     -12.191  14.757  67.778  1.00  0.00    -0.582 OA 
HETATM    2  C   UNL     1     -11.352  15.319  68.807  1.00  0.00    -0.308 C  
HETATM    3  H   UNL     1     -12.318  13.843  68.001  1.00  0.00     0.000 HD 
HETATM    4  C   UNL     1     -11.143  16.821  68.439  1.00  0.00    -0.266 C  
HETATM    5  C   UNL     1     -12.163  15.253  70.136  1.00  0.00    -0.402 C  
HETATM    6  C   UNL     1     -10.043  14.511  68.801  1.00  0.00    -0.239 A  
HETATM    7  C   UNL     1     -12.595  13.863  70.625  1.00  0.00    -0.405 C  
HETATM    8  C   UNL     1      -8.812  15.074  69.183  1.00  0.00    -0.184 A  
HETATM    9  C   UNL     1     -11.542  15.946  71.363  1.00  0.00    -0.529 C  
HETATM   10  C   UNL     1      -7.602  14.407  68.950  1.00  0.00    -0.128 A  
HETATM   11  C   UNL     1     -12.880  14.085  72.104  1.00  0.00    -0.410 C  
HETATM   12  C   UNL     1     -10.015  13.197  68.296  1.00  0.00    -0.236 A  
HETATM   13  C   UNL     1     -11.746  14.996  72.538  1.00  0.00    -0.398 C  
HETATM   14  C   UNL     1      -7.601  13.139  68.385  1.00  0.00    -0.133 A  
HETATM   15  C   UNL     1      -8.809  12.517  68.087  1.00  0.00    -0.191 A  
ENDROOT
BRANCH   4  16
HETATM   16  C   UNL     1     -10.433  17.071  67.097  1.00  0.00    -0.291 C  
BRANCH  16  17
HETATM   17  N   UNL     1      -9.183  17.852  67.235  1.00  0.00    -0.252 NA 
HETATM   18  C   UNL     1      -8.895  18.760  66.113  1.00  0.00    -0.132 C  
HETATM   19  C   UNL     1      -9.968  20.716  67.288  1.00  0.00    -0.452 C  
HETATM   20  C   UNL     1      -9.876  19.926  65.987  1.00  0.00    -0.515 C  
HETATM   21  C   UNL     1     -10.174  19.800  68.492  1.00  0.00    -0.547 C  
HETATM   22  C   UNL     1      -9.188  18.626  68.492  1.00  0.00    -0.347 C  
ENDBRANCH  16  17
ENDBRANCH   4  16
TORSDOF 2
ENDMDL
MODEL       16
REMARK 921   NORMALIZED FREE ENERGY PREDICTED BY IDOCK:   -5.63 KCAL/MOL
REMARK 922        TOTAL FREE ENERGY PREDICTED BY IDOCK:   -6.98 KCAL/MOL
REMARK 923 INTER-LIGAND FREE ENERGY PREDICTED BY IDOCK:   -6.44 KCAL/MOL
REMARK 924 INTRA-LIGAND FREE ENERGY PREDICTED BY IDOCK:   -0.55 KCAL/MOL
REMARK 927      BINDING AFFINITY PREDICTED BY RF-SCORE:    0.00 PKD
ROOT
HETATM    1  O   UNL     1     -10.681  14.016  69.231  1.00  0.00    -0.359 OA 
HETATM    2  C   UNL     1      -9.701  14.181  68.186  1.00  0.00    -0.225 C  
HETATM    3  H   UNL     1     -11.130  13.198  69.054  1.00  0.00     0.000 HD 
HETATM    4  C   UNL     1      -8.964  15.525  68.477  1.00  0.00    -0.191 C  
HETATM    5  C   UNL     1      -8.673  13.020  68.344  1.00  0.00    -0.115 C  
HETATM    6  C   UNL     1     -10.471  14.194  66.854  1.00  0.00    -0.272 A  
HETATM    7  C   UNL     1      -9.212  11.587  68.224  1.00  0.00    -0.186 C  
HETATM    8  C   UNL     1     -10.013  14.902  65.729  1.00  0.00    -0.376 A  
HETATM    9  C   UNL     1      -7.428  13.068  67.438  1.00  0.00    -0.136 C  
HETATM   10  C   UNL     1     -10.831  15.101  64.610  1.00  0.00    -0.285 A  
HETATM   11  C   UNL     1      -7.965  10.768  67.916  1.00  0.00    -0.110 C  
HETATM   12  C   UNL     1     -11.737  13.585  66.754  1.00  0.00    -0.430 A  
HETATM   13  C   UNL     1      -7.216  11.647  66.930  1.00  0.00    -0.125 C  
HETATM   14  C   UNL     1     -12.103  14.545  64.567  1.00  0.00    -0.501 A  
HETATM   15  C   UNL     1     -12.546  13.758  65.624  1.00  0.00    -0.551 A  
ENDROOT
BRANCH   4  16
HETATM   16  C   UNL     1      -9.857  16.778  68.455  1.00  0.00    -0.257 C  
BRANCH  16  17
HETATM   17  N   UNL     1      -9.110  18.032  68.698  1.00  0.00    -0.291 NA 
HETATM   18  C   UNL     1      -8.055  18.323  67.714  1.00  0.00    -0.250 C  
HETATM   19  C   UNL     1      -9.592  19.782  66.347  1.00  0.00    -0.508 C  
HETATM   20  C   UNL     1      -8.580  18.641  66.313  1.00  0.00    -0.232 C  
HETATM   21  C   UNL     1     -10.654  19.563  67.422  1.00  0.00    -0.607 C  
HETATM   22  C   UNL     1     -10.032  19.182  68.770  1.00  0.00    -0.427 C  
ENDBRANCH  16  17
ENDBRANCH   4  16
TORSDOF 2
ENDMDL
MODEL       17
REMARK 921   NORMALIZED FREE ENERGY PREDICTED BY IDOCK:   -5.61 KCAL/MOL
REMARK 922        TOTAL FREE ENERGY PREDICTED BY IDOCK:   -6.96 KCAL/MOL
REMARK 923 INTER-LIGAND FREE ENERGY PREDICTED BY IDOCK:   -6.29 KCAL/MOL
REMARK 924 INTRA-LIGAND FREE ENERGY PREDICTED BY IDOCK:   -0.67 KCAL/MOL
REMARK 927      BINDING AFFINITY PREDICTED BY RF-SCORE:    0.00 PKD
ROOT
HETATM    1  O   UNL     1      -8.573  12.507  66.681  1.00  0.00    -0.356 OA 
HETATM    2  C   UNL     1      -9.834  13.152  66.951  1.00  0.00    -0.249 C  
HETATM    3  H   UNL     1      -8.214  12.927  65.907  1.00  0.00     0.000 HD 
HETATM    4  C   UNL     1     -10.424  12.462  68.220  1.00  0.00    -0.234 C  
HETATM    5  C   UNL     1      -9.514  14.635  67.309  1.00  0.00    -0.221 C  
HETATM    6  C   UNL     1     -10.708  12.958  65.700  1.00  0.00    -0.295 A  
HETATM    7  C   UNL     1      -8.806  15.477  66.238  1.00  0.00    -0.338 C  
HETATM    8  C   UNL     1     -12.111  12.888  65.768  1.00  0.00    -0.513 A  
HETATM    9  C   UNL     1     -10.691  15.500  67.799  1.00  0.00    -0.297 C  
HETATM   10  C   UNL     1     -12.875  12.476  64.668  1.00  0.00    -0.325 A  
HETATM   11  C   UNL     1      -9.097  16.909  66.668  1.00  0.00    -0.280 C  
HETATM   12  C   UNL     1     -10.118  12.724  64.443  1.00  0.00    -0.275 A  
HETATM   13  C   UNL     1     -10.552  16.846  67.098  1.00  0.00    -0.249 C  
HETATM   14  C   UNL     1     -12.257  12.185  63.459  1.00  0.00    -0.670 A  
HETATM   15  C   UNL     1     -10.881  12.340  63.334  1.00  0.00    -0.457 A  
ENDROOT
BRANCH   4  16
HETATM   16  C   UNL     1     -10.713  10.958  68.069  1.00  0.00    -0.220 C  
BRANCH  16  17
HETATM   17  N   UNL     1      -9.493  10.122  68.118  1.00  0.00    -0.141 NA 
HETATM   18  C   UNL     1      -9.332   9.336  69.352  1.00  0.00    -0.164 C  
HETATM   19  C   UNL     1     -10.401   7.301  68.315  1.00  0.00    -0.227 C  
HETATM   20  C   UNL     1     -10.372   8.228  69.526  1.00  0.00    -0.219 C  
HETATM   21  C   UNL     1     -10.474   8.083  67.006  1.00  0.00    -0.410 C  
HETATM   22  C   UNL     1      -9.438   9.212  66.957  1.00  0.00    -0.154 C  
ENDBRANCH  16  17
ENDBRANCH   4  16
TORSDOF 2
ENDMDL
MODEL       18
REMARK 921   NORMALIZED FREE ENERGY PREDICTED BY IDOCK:   -5.51 KCAL/MOL
REMARK 922        TOTAL FREE ENERGY PREDICTED BY IDOCK:   -6.85 KCAL/MOL
REMARK 923 INTER-LIGAND FREE ENERGY PREDICTED BY IDOCK:   -6.18 KCAL/MOL
REMARK 924 INTRA-LIGAND FREE ENERGY PREDICTED BY IDOCK:   -0.67 KCAL/MOL
REMARK 927      BINDING AFFINITY PREDICTED BY RF-SCORE:    0.00 PKD
ROOT
HETATM    1  O   UNL     1     -12.196  11.196  67.938  1.00  0.00    -0.604 OA 
HETATM    2  C   UNL     1     -10.973  11.584  67.281  1.00  0.00    -0.271 C  
HETATM    3  H   UNL     1     -12.836  11.870  67.738  1.00  0.00     0.000 HD 
HETATM    4  C   UNL     1      -9.922  10.478  67.610  1.00  0.00    -0.202 C  
HETATM    5  C   UNL     1     -11.253  11.546  65.748  1.00  0.00    -0.228 C  
HETATM    6  C   UNL     1     -10.588  12.964  67.840  1.00  0.00    -0.232 A  
HETATM    7  C   UNL     1     -12.355  12.472  65.215  1.00  0.00    -0.469 C  
HETATM    8  C   UNL     1      -9.251  13.391  67.929  1.00  0.00    -0.216 A  
HETATM    9  C   UNL     1     -10.046  11.766  64.817  1.00  0.00    -0.302 C  
HETATM   10  C   UNL     1      -8.899  14.539  68.651  1.00  0.00    -0.180 A  
HETATM   11  C   UNL     1     -12.036  12.578  63.729  1.00  0.00    -0.615 C  
HETATM   12  C   UNL     1     -11.567  13.811  68.395  1.00  0.00    -0.369 A  
HETATM   13  C   UNL     1     -10.523  12.703  63.714  1.00  0.00    -0.411 C  
HETATM   14  C   UNL     1      -9.882  15.318  69.248  1.00  0.00    -0.255 A  
HETATM   15  C   UNL     1     -11.221  14.974  69.093  1.00  0.00    -0.293 A  
ENDROOT
BRANCH   4  16
HETATM   16  C   UNL     1      -9.595  10.314  69.104  1.00  0.00    -0.218 C  
BRANCH  16  17
HETATM   17  N   UNL     1     -10.476   9.343  69.791  1.00  0.00    -0.214 NA 
HETATM   18  C   UNL     1     -10.439   7.978  69.241  1.00  0.00    -0.215 C  
HETATM   19  C   UNL     1      -8.710   7.239  70.922  1.00  0.00    -0.148 C  
HETATM   20  C   UNL     1      -9.106   7.259  69.449  1.00  0.00    -0.142 C  
HETATM   21  C   UNL     1      -8.825   8.623  71.556  1.00  0.00    -0.285 C  
HETATM   22  C   UNL     1     -10.168   9.289  71.234  1.00  0.00    -0.313 C  
ENDBRANCH  16  17
ENDBRANCH   4  16
TORSDOF 2
ENDMDL
MODEL       19
REMARK 921   NORMALIZED FREE ENERGY PREDICTED BY IDOCK:   -5.46 KCAL/MOL
REMARK 922        TOTAL FREE ENERGY PREDICTED BY IDOCK:   -6.79 KCAL/MOL
REMARK 923 INTER-LIGAND FREE ENERGY PREDICTED BY IDOCK:   -6.95 KCAL/MOL
REMARK 924 INTRA-LIGAND FREE ENERGY PREDICTED BY IDOCK:    0.16 KCAL/MOL
REMARK 927      BINDING AFFINITY PREDICTED BY RF-SCORE:    0.00 PKD
ROOT
HETATM    1  O   UNL     1     -10.874  16.502  67.209  1.00  0.00    -0.280 OA 
HETATM    2  C   UNL     1     -10.325  15.247  67.657  1.00  0.00    -0.250 C  
HETATM    3  H   UNL     1     -10.762  17.117  67.924  1.00  0.00     0.000 HD 
HETATM    4  C   UNL     1     -10.510  14.235  66.483  1.00  0.00    -0.287 C  
HETATM    5  C   UNL     1      -8.796  15.473  67.866  1.00  0.00    -0.171 C  
HETATM    6  C   UNL     1     -11.104  14.848  68.922  1.00  0.00    -0.267 A  
HETATM    7  C   UNL     1      -8.380  16.532  68.896  1.00  0.00    -0.241 C  
HETATM    8  C   UNL     1     -11.301  13.506  69.291  1.00  0.00    -0.317 A  
HETATM    9  C   UNL     1      -7.949  14.228  68.192  1.00  0.00    -0.140 C  
HETATM   10  C   UNL     1     -12.204  13.152  70.301  1.00  0.00    -0.376 A  
HETATM   11  C   UNL     1      -6.940  16.158  69.222  1.00  0.00    -0.210 C  
HETATM   12  C   UNL     1     -11.753  15.826  69.701  1.00  0.00    -0.363 A  
HETATM   13  C   UNL     1      -6.992  14.643  69.302  1.00  0.00    -0.147 C  
HETATM   14  C   UNL     1     -12.883  14.137  71.007  1.00  0.00    -0.421 A  
HETATM   15  C   UNL     1     -12.635  15.477  70.731  1.00  0.00    -0.505 A  
ENDROOT
BRANCH   4  16
HETATM   16  C   UNL     1     -11.970  13.966  66.079  1.00  0.00    -0.412 C  
BRANCH  16  17
HETATM   17  N   UNL     1     -12.244  12.538  65.801  1.00  0.00    -0.626 NA 
HETATM   18  C   UNL     1     -12.739  12.257  64.444  1.00  0.00    -0.288 C  
HETATM   19  C   UNL     1     -10.422  11.733  63.599  1.00  0.00    -0.490 C  
HETATM   20  C   UNL     1     -11.710  12.508  63.341  1.00  0.00    -0.567 C  
HETATM   21  C   UNL     1      -9.924  11.924  65.030  1.00  0.00    -0.276 C  
HETATM   22  C   UNL     1     -11.044  11.718  66.056  1.00  0.00    -0.312 C  
ENDBRANCH  16  17
ENDBRANCH   4  16
TORSDOF 2
ENDMDL
MODEL       20
REMARK 921   NORMALIZED FREE ENERGY PREDICTED BY IDOCK:   -5.42 KCAL/MOL
REMARK 922        TOTAL FREE ENERGY PREDICTED BY IDOCK:   -6.75 KCAL/MOL
REMARK 923 INTER-LIGAND FREE ENERGY PREDICTED BY IDOCK:   -6.14 KCAL/MOL
REMARK 924 INTRA-LIGAND FREE ENERGY PREDICTED BY IDOCK:   -0.61 KCAL/MOL
REMARK 927      BINDING AFFINITY PREDICTED BY RF-SCORE:    0.00 PKD
ROOT
HETATM    1  O   UNL     1      -9.549  14.207  65.613  1.00  0.00    -0.506 OA 
HETATM    2  C   UNL     1      -9.874  14.764  66.902  1.00  0.00    -0.243 C  
HETATM    3  H   UNL     1      -9.233  13.325  65.772  1.00  0.00     0.000 HD 
HETATM    4  C   UNL     1     -10.392  16.213  66.641  1.00  0.00    -0.297 C  
HETATM    5  C   UNL     1     -11.055  13.922  67.473  1.00  0.00    -0.302 C  
HETATM    6  C   UNL     1      -8.584  14.729  67.739  1.00  0.00    -0.169 A  
HETATM    7  C   UNL     1     -10.805  12.423  67.688  1.00  0.00    -0.258 C  
HETATM    8  C   UNL     1      -8.319  15.669  68.750  1.00  0.00    -0.189 A  
HETATM    9  C   UNL     1     -11.697  14.424  68.780  1.00  0.00    -0.372 C  
HETATM   10  C   UNL     1      -7.051  15.772  69.336  1.00  0.00    -0.209 A  
HETATM   11  C   UNL     1     -11.893  12.025  68.678  1.00  0.00    -0.366 C  
HETATM   12  C   UNL     1      -7.560  13.811  67.436  1.00  0.00    -0.153 A  
HETATM   13  C   UNL     1     -11.912  13.191  69.650  1.00  0.00    -0.370 C  
HETATM   14  C   UNL     1      -6.038  14.895  68.968  1.00  0.00    -0.096 A  
HETATM   15  C   UNL     1      -6.299  13.892  68.042  1.00  0.00    -0.144 A  
ENDROOT
BRANCH   4  16
HETATM   16  C   UNL     1      -9.373  17.162  65.987  1.00  0.00    -0.124 C  
BRANCH  16  17
HETATM   17  N   UNL     1      -9.758  18.588  66.085  1.00  0.00    -0.493 NA 
HETATM   18  C   UNL     1     -10.661  18.910  67.203  1.00  0.00    -0.458 C  
HETATM   19  C   UNL     1      -8.739  19.569  68.697  1.00  0.00    -0.377 C  
HETATM   20  C   UNL     1     -10.022  18.752  68.583  1.00  0.00    -0.444 C  
HETATM   21  C   UNL     1      -7.813  19.335  67.506  1.00  0.00    -0.284 C  
HETATM   22  C   UNL     1      -8.560  19.447  66.172  1.00  0.00    -0.284 C  
ENDBRANCH  16  17
ENDBRANCH   4  16
TORSDOF 2
ENDMDL
MODEL       21
REMARK 921   NORMALIZED FREE ENERGY PREDICTED BY IDOCK:   -5.42 KCAL/MOL
REMARK 922        TOTAL FREE ENERGY PREDICTED BY IDOCK:   -6.74 KCAL/MOL
REMARK 923 INTER-LIGAND FREE ENERGY PREDICTED BY IDOCK:   -6.29 KCAL/MOL
REMARK 924 INTRA-LIGAND FREE ENERGY PREDICTED BY IDOCK:   -0.46 KCAL/MOL
REMARK 927      BINDING AFFINITY PREDICTED BY RF-SCORE:    0.00 PKD
ROOT
HETATM    1  O   UNL     1     -12.158  11.675  67.684  1.00  0.00    -0.615 OA 
HETATM    2  C   UNL     1     -11.114  12.626  67.392  1.00  0.00    -0.273 C  
HETATM    3  H   UNL     1     -12.976  12.159  67.671  1.00  0.00     0.000 HD 
HETATM    4  C   UNL     1      -9.771  11.831  67.414  1.00  0.00    -0.186 C  
HETATM    5  C   UNL     1     -11.356  13.129  65.937  1.00  0.00    -0.338 C  
HETATM    6  C   UNL     1     -11.187  13.712  68.479  1.00  0.00    -0.310 A  
HETATM    7  C   UNL     1     -12.690  13.834  65.653  1.00  0.00    -0.523 C  
HETATM    8  C   UNL     1     -10.053  14.429  68.901  1.00  0.00    -0.202 A  
HETATM    9  C   UNL     1     -10.272  14.038  65.328  1.00  0.00    -0.383 C  
HETATM   10  C   UNL     1     -10.086  15.238  70.044  1.00  0.00    -0.178 A  
HETATM   11  C   UNL     1     -12.409  14.614  64.375  1.00  0.00    -0.420 C  
HETATM   12  C   UNL     1     -12.387  13.946  69.177  1.00  0.00    -0.159 A  
HETATM   13  C   UNL     1     -11.012  15.161  64.610  1.00  0.00    -0.321 C  
HETATM   14  C   UNL     1     -11.269  15.395  70.754  1.00  0.00    -0.378 A  
HETATM   15  C   UNL     1     -12.430  14.776  70.304  1.00  0.00    -0.393 A  
ENDROOT
BRANCH   4  16
HETATM   16  C   UNL     1      -9.420  11.181  68.764  1.00  0.00    -0.165 C  
BRANCH  16  17
HETATM   17  N   UNL     1      -9.658   9.720  68.787  1.00  0.00    -0.150 NA 
HETATM   18  C   UNL     1      -8.527   8.917  69.279  1.00  0.00    -0.121 C  
HETATM   19  C   UNL     1      -9.452   8.867  71.624  1.00  0.00    -0.351 C  
HETATM   20  C   UNL     1      -8.218   9.119  70.763  1.00  0.00    -0.226 C  
HETATM   21  C   UNL     1     -10.674   9.610  71.092  1.00  0.00    -0.365 C  
HETATM   22  C   UNL     1     -10.858   9.400  69.584  1.00  0.00    -0.228 C  
ENDBRANCH  16  17
ENDBRANCH   4  16
TORSDOF 2
ENDMDL
MODEL       22
REMARK 921   NORMALIZED FREE ENERGY PREDICTED BY IDOCK:   -5.40 KCAL/MOL
REMARK 922        TOTAL FREE ENERGY PREDICTED BY IDOCK:   -6.72 KCAL/MOL
REMARK 923 INTER-LIGAND FREE ENERGY PREDICTED BY IDOCK:   -6.41 KCAL/MOL
REMARK 924 INTRA-LIGAND FREE ENERGY PREDICTED BY IDOCK:   -0.31 KCAL/MOL
REMARK 927      BINDING AFFINITY PREDICTED BY RF-SCORE:    0.00 PKD
ROOT
HETATM    1  O   UNL     1     -12.560  12.203  65.139  1.00  0.00    -0.505 OA 
HETATM    2  C   UNL     1     -11.200  12.038  65.586  1.00  0.00    -0.327 C  
HETATM    3  H   UNL     1     -12.516  12.609  64.281  1.00  0.00     0.000 HD 
HETATM    4  C   UNL     1     -11.272  11.373  66.995  1.00  0.00    -0.350 C  
HETATM    5  C   UNL     1     -10.522  11.031  64.608  1.00  0.00    -0.398 C  
HETATM    6  C   UNL     1     -10.570  13.442  65.616  1.00  0.00    -0.286 A  
HETATM    7  C   UNL     1     -10.457  11.430  63.127  1.00  0.00    -0.323 C  
HETATM    8  C   UNL     1      -9.544  13.785  66.513  1.00  0.00    -0.295 A  
HETATM    9  C   UNL     1      -9.100  10.562  64.970  1.00  0.00    -0.231 C  
HETATM   10  C   UNL     1      -9.148  15.116  66.693  1.00  0.00    -0.310 A  
HETATM   11  C   UNL     1      -9.348  10.545  62.573  1.00  0.00    -0.319 C  
HETATM   12  C   UNL     1     -11.089  14.476  64.813  1.00  0.00    -0.400 A  
HETATM   13  C   UNL     1      -8.301  10.584  63.673  1.00  0.00    -0.108 C  
HETATM   14  C   UNL     1      -9.727  16.126  65.936  1.00  0.00    -0.374 A  
HETATM   15  C   UNL     1     -10.675  15.805  64.971  1.00  0.00    -0.443 A  
ENDROOT
BRANCH   4  16
HETATM   16  C   UNL     1     -12.000  12.199  68.070  1.00  0.00    -0.166 C  
BRANCH  16  17
HETATM   17  N   UNL     1     -11.208  12.371  69.309  1.00  0.00    -0.229 NA 
HETATM   18  C   UNL     1     -12.000  12.679  70.511  1.00  0.00    -0.192 C  
HETATM   19  C   UNL     1     -12.099  10.253  71.191  1.00  0.00    -0.494 C  
HETATM   20  C   UNL     1     -12.900  11.533  70.975  1.00  0.00    -0.358 C  
HETATM   21  C   UNL     1     -11.192   9.947  70.002  1.00  0.00    -0.327 C  
HETATM   22  C   UNL     1     -10.383  11.175  69.570  1.00  0.00     0.021 C  
ENDBRANCH  16  17
ENDBRANCH   4  16
TORSDOF 2
ENDMDL
MODEL       23
REMARK 921   NORMALIZED FREE ENERGY PREDICTED BY IDOCK:   -5.36 KCAL/MOL
REMARK 922        TOTAL FREE ENERGY PREDICTED BY IDOCK:   -6.68 KCAL/MOL
REMARK 923 INTER-LIGAND FREE ENERGY PREDICTED BY IDOCK:   -6.18 KCAL/MOL
REMARK 924 INTRA-LIGAND FREE ENERGY PREDICTED BY IDOCK:   -0.50 KCAL/MOL
REMARK 927      BINDING AFFINITY PREDICTED BY RF-SCORE:    0.00 PKD
ROOT
HETATM    1  O   UNL     1     -11.648   9.792  67.917  1.00  0.00    -0.523 OA 
HETATM    2  C   UNL     1     -10.245   9.541  68.131  1.00  0.00    -0.193 C  
HETATM    3  H   UNL     1     -12.119   9.104  68.373  1.00  0.00     0.000 HD 
HETATM    4  C   UNL     1      -9.472  10.671  67.380  1.00  0.00    -0.172 C  
HETATM    5  C   UNL     1      -9.985   9.708  69.659  1.00  0.00    -0.239 C  
HETATM    6  C   UNL     1      -9.954   8.139  67.569  1.00  0.00    -0.251 A  
HETATM    7  C   UNL     1     -10.751   8.774  70.605  1.00  0.00    -0.267 C  
HETATM    8  C   UNL     1      -8.697   7.785  67.048  1.00  0.00    -0.131 A  
HETATM    9  C   UNL     1      -8.517   9.650  70.123  1.00  0.00    -0.231 C  
HETATM   10  C   UNL     1      -8.515   6.596  66.329  1.00  0.00    -0.130 A  
HETATM   11  C   UNL     1      -9.935   8.828  71.890  1.00  0.00    -0.401 C  
HETATM   12  C   UNL     1     -10.986   7.188  67.450  1.00  0.00    -0.296 A  
HETATM   13  C   UNL     1      -8.503   8.795  71.384  1.00  0.00    -0.245 C  
HETATM   14  C   UNL     1      -9.570   5.708  66.169  1.00  0.00    -0.142 A  
HETATM   15  C   UNL     1     -10.799   5.986  66.757  1.00  0.00    -0.356 A  
ENDROOT
BRANCH   4  16
HETATM   16  C   UNL     1      -9.693  10.711  65.858  1.00  0.00    -0.223 C  
BRANCH  16  17
HETATM   17  N   UNL     1      -9.677  12.083  65.303  1.00  0.00    -0.208 NA 
HETATM   18  C   UNL     1     -10.061  12.181  63.885  1.00  0.00    -0.361 C  
HETATM   19  C   UNL     1     -12.460  12.698  64.466  1.00  0.00    -0.525 C  
HETATM   20  C   UNL     1     -11.527  11.844  63.613  1.00  0.00    -0.551 C  
HETATM   21  C   UNL     1     -12.039  12.698  65.934  1.00  0.00    -0.459 C  
HETATM   22  C   UNL     1     -10.541  12.978  66.098  1.00  0.00    -0.277 C  
ENDBRANCH  16  17
ENDBRANCH   4  16
TORSDOF 2
ENDMDL
MODEL       24
REMARK 921   NORMALIZED FREE ENERGY PREDICTED BY IDOCK:   -5.34 KCAL/MOL
REMARK 922        TOTAL FREE ENERGY PREDICTED BY IDOCK:   -6.65 KCAL/MOL
REMARK 923 INTER-LIGAND FREE ENERGY PREDICTED BY IDOCK:   -6.02 KCAL/MOL
REMARK 924 INTRA-LIGAND FREE ENERGY PREDICTED BY IDOCK:   -0.63 KCAL/MOL
REMARK 927      BINDING AFFINITY PREDICTED BY RF-SCORE:    0.00 PKD
ROOT
HETATM    1  O   UNL     1     -12.766   8.347  70.726  1.00  0.00    -0.492 OA 
HETATM    2  C   UNL     1     -11.355   8.607  70.871  1.00  0.00    -0.272 C  
HETATM    3  H   UNL     1     -12.880   7.409  70.828  1.00  0.00     0.000 HD 
HETATM    4  C   UNL     1     -11.167  10.147  70.704  1.00  0.00    -0.418 C  
HETATM    5  C   UNL     1     -10.974   8.227  72.334  1.00  0.00    -0.438 C  
HETATM    6  C   UNL     1     -10.641   7.792  69.779  1.00  0.00    -0.241 A  
HETATM    7  C   UNL     1     -11.204   6.771  72.761  1.00  0.00    -0.267 C  
HETATM    8  C   UNL     1      -9.424   8.206  69.209  1.00  0.00    -0.159 A  
HETATM    9  C   UNL     1      -9.543   8.569  72.789  1.00  0.00    -0.243 C  
HETATM   10  C   UNL     1      -8.909   7.589  68.062  1.00  0.00    -0.127 A  
HETATM   11  C   UNL     1     -10.303   6.617  73.980  1.00  0.00    -0.377 C  
HETATM   12  C   UNL     1     -11.249   6.649  69.225  1.00  0.00    -0.326 A  
HETATM   13  C   UNL     1      -9.043   7.358  73.567  1.00  0.00    -0.259 C  
HETATM   14  C   UNL     1      -9.568   6.506  67.496  1.00  0.00    -0.137 A  
HETATM   15  C   UNL     1     -10.722   6.012  68.095  1.00  0.00    -0.353 A  
ENDROOT
BRANCH   4  16
HETATM   16  C   UNL     1     -11.588  10.711  69.335  1.00  0.00    -0.280 C  
BRANCH  16  17
HETATM   17  N   UNL     1     -10.865  11.948  68.967  1.00  0.00    -0.214 NA 
HETATM   18  C   UNL     1      -9.563  11.733  68.315  1.00  0.00    -0.199 C  
HETATM   19  C   UNL     1     -10.572  11.918  66.011  1.00  0.00    -0.304 C  
HETATM   20  C   UNL     1      -9.660  11.105  66.924  1.00  0.00    -0.208 C  
HETATM   21  C   UNL     1     -11.902  12.244  66.688  1.00  0.00    -0.362 C  
HETATM   22  C   UNL     1     -11.701  12.803  68.101  1.00  0.00    -0.345 C  
ENDBRANCH  16  17
ENDBRANCH   4  16
TORSDOF 2
ENDMDL
MODEL       25
REMARK 921   NORMALIZED FREE ENERGY PREDICTED BY IDOCK:   -5.33 KCAL/MOL
REMARK 922        TOTAL FREE ENERGY PREDICTED BY IDOCK:   -6.64 KCAL/MOL
REMARK 923 INTER-LIGAND FREE ENERGY PREDICTED BY IDOCK:   -6.09 KCAL/MOL
REMARK 924 INTRA-LIGAND FREE ENERGY PREDICTED BY IDOCK:   -0.56 KCAL/MOL
REMARK 927      BINDING AFFINITY PREDICTED BY RF-SCORE:    0.00 PKD
ROOT
HETATM    1  O   UNL     1      -9.055   9.774  70.512  1.00  0.00    -0.319 OA 
HETATM    2  C   UNL     1     -10.022   8.754  70.830  1.00  0.00    -0.213 C  
HETATM    3  H   UNL     1      -9.490  10.388  69.932  1.00  0.00     0.000 HD 
HETATM    4  C   UNL     1      -9.307   7.744  71.782  1.00  0.00    -0.179 C  
HETATM    5  C   UNL     1     -11.165   9.450  71.630  1.00  0.00    -0.431 C  
HETATM    6  C   UNL     1     -10.453   8.120  69.496  1.00  0.00    -0.227 A  
HETATM    7  C   UNL     1     -11.927  10.579  70.923  1.00  0.00    -0.481 C  
HETATM    8  C   UNL     1     -10.872   6.781  69.402  1.00  0.00    -0.312 A  
HETATM    9  C   UNL     1     -12.249   8.534  72.230  1.00  0.00    -0.454 C  
HETATM   10  C   UNL     1     -11.032   6.153  68.161  1.00  0.00    -0.398 A  
HETATM   11  C   UNL     1     -13.224  10.677  71.716  1.00  0.00    -0.526 C  
HETATM   12  C   UNL     1     -10.329   8.836  68.290  1.00  0.00    -0.252 A  
HETATM   13  C   UNL     1     -13.582   9.222  71.963  1.00  0.00    -0.519 C  
HETATM   14  C   UNL     1     -10.835   6.867  66.986  1.00  0.00    -0.436 A  
HETATM   15  C   UNL     1     -10.516   8.218  67.047  1.00  0.00    -0.384 A  
ENDROOT
BRANCH   4  16
HETATM   16  C   UNL     1      -8.087   7.030  71.176  1.00  0.00    -0.105 C  
BRANCH  16  17
HETATM   17  N   UNL     1      -7.722   5.788  71.895  1.00  0.00    -0.103 NA 
HETATM   18  C   UNL     1      -8.818   5.174  72.662  1.00  0.00    -0.122 C  
HETATM   19  C   UNL     1      -9.412   3.622  70.765  1.00  0.00    -0.238 C  
HETATM   20  C   UNL     1      -9.946   4.611  71.796  1.00  0.00    -0.260 C  
HETATM   21  C   UNL     1      -8.211   4.188  70.009  1.00  0.00    -0.068 C  
HETATM   22  C   UNL     1      -7.170   4.788  70.960  1.00  0.00    -0.059 C  
ENDBRANCH  16  17
ENDBRANCH   4  16
TORSDOF 2
ENDMDL
MODEL       26
REMARK 921   NORMALIZED FREE ENERGY PREDICTED BY IDOCK:   -5.31 KCAL/MOL
REMARK 922        TOTAL FREE ENERGY PREDICTED BY IDOCK:   -6.62 KCAL/MOL
REMARK 923 INTER-LIGAND FREE ENERGY PREDICTED BY IDOCK:   -6.21 KCAL/MOL
REMARK 924 INTRA-LIGAND FREE ENERGY PREDICTED BY IDOCK:   -0.42 KCAL/MOL
REMARK 927      BINDING AFFINITY PREDICTED BY RF-SCORE:    0.00 PKD
ROOT
HETATM    1  O   UNL     1     -12.268  11.372  67.940  1.00  0.00    -0.592 OA 
HETATM    2  C   UNL     1     -11.016  11.631  67.274  1.00  0.00    -0.267 C  
HETATM    3  H   UNL     1     -12.859  12.072  67.688  1.00  0.00     0.000 HD 
HETATM    4  C   UNL     1     -10.045  10.482  67.689  1.00  0.00    -0.211 C  
HETATM    5  C   UNL     1     -11.285  11.511  65.744  1.00  0.00    -0.228 C  
HETATM    6  C   UNL     1     -10.543  13.017  67.746  1.00  0.00    -0.235 A  
HETATM    7  C   UNL     1     -12.318  12.471  65.137  1.00  0.00    -0.496 C  
HETATM    8  C   UNL     1      -9.181  13.358  67.825  1.00  0.00    -0.211 A  
HETATM    9  C   UNL     1     -10.058  11.586  64.816  1.00  0.00    -0.316 C  
HETATM   10  C   UNL     1      -8.758  14.525  68.474  1.00  0.00    -0.177 A  
HETATM   11  C   UNL     1     -11.980  12.457  63.652  1.00  0.00    -0.626 C  
HETATM   12  C   UNL     1     -11.467  13.962  68.231  1.00  0.00    -0.346 A  
HETATM   13  C   UNL     1     -10.462  12.478  63.648  1.00  0.00    -0.418 C  
HETATM   14  C   UNL     1      -9.691  15.406  69.005  1.00  0.00    -0.239 A  
HETATM   15  C   UNL     1     -11.048  15.143  68.856  1.00  0.00    -0.276 A  
ENDROOT
BRANCH   4  16
HETATM   16  C   UNL     1      -9.743  10.396  69.195  1.00  0.00    -0.220 C  
BRANCH  16  17
HETATM   17  N   UNL     1      -8.995   9.174  69.571  1.00  0.00    -0.144 NA 
HETATM   18  C   UNL     1      -8.635   9.084  70.995  1.00  0.00    -0.210 C  
HETATM   19  C   UNL     1     -10.682   7.710  71.528  1.00  0.00    -0.249 C  
HETATM   20  C   UNL     1      -9.833   8.912  71.930  1.00  0.00    -0.364 C  
HETATM   21  C   UNL     1     -11.000   7.718  70.035  1.00  0.00    -0.218 C  
HETATM   22  C   UNL     1      -9.748   7.964  69.186  1.00  0.00    -0.162 C  
ENDBRANCH  16  17
ENDBRANCH   4  16
TORSDOF 2
ENDMDL
MODEL       27
REMARK 921   NORMALIZED FREE ENERGY PREDICTED BY IDOCK:   -5.29 KCAL/MOL
REMARK 922        TOTAL FREE ENERGY PREDICTED BY IDOCK:   -6.60 KCAL/MOL
REMARK 923 INTER-LIGAND FREE ENERGY PREDICTED BY IDOCK:   -5.92 KCAL/MOL
REMARK 924 INTRA-LIGAND FREE ENERGY PREDICTED BY IDOCK:   -0.69 KCAL/MOL
REMARK 927      BINDING AFFINITY PREDICTED BY RF-SCORE:    0.00 PKD
ROOT
HETATM    1  O   UNL     1     -11.106  13.422  68.454  1.00  0.00    -0.249 OA 
HETATM    2  C   UNL     1     -10.141  12.704  67.659  1.00  0.00    -0.218 C  
HETATM    3  H   UNL     1     -11.907  12.913  68.432  1.00  0.00     0.000 HD 
HETATM    4  C   UNL     1      -8.824  13.541  67.696  1.00  0.00    -0.202 C  
HETATM    5  C   UNL     1      -9.876  11.350  68.385  1.00  0.00    -0.205 C  
HETATM    6  C   UNL     1     -10.735  12.580  66.246  1.00  0.00    -0.288 A  
HETATM    7  C   UNL     1     -11.076  10.413  68.579  1.00  0.00    -0.318 C  
HETATM    8  C   UNL     1      -9.928  12.511  65.096  1.00  0.00    -0.212 A  
HETATM    9  C   UNL     1      -8.751  10.466  67.815  1.00  0.00    -0.122 C  
HETATM   10  C   UNL     1     -10.476  12.638  63.813  1.00  0.00    -0.411 A  
HETATM   11  C   UNL     1     -10.427   9.057  68.822  1.00  0.00    -0.230 C  
HETATM   12  C   UNL     1     -12.127  12.650  66.046  1.00  0.00    -0.429 A  
HETATM   13  C   UNL     1      -9.289   9.040  67.817  1.00  0.00    -0.156 C  
HETATM   14  C   UNL     1     -11.848  12.775  63.650  1.00  0.00    -0.603 A  
HETATM   15  C   UNL     1     -12.680  12.748  64.763  1.00  0.00    -0.469 A  
ENDROOT
BRANCH   4  16
HETATM   16  C   UNL     1      -8.933  14.955  67.099  1.00  0.00    -0.214 C  
BRANCH  16  17
HETATM   17  N   UNL     1      -9.628  15.912  67.988  1.00  0.00    -0.210 NA 
HETATM   18  C   UNL     1      -8.800  16.459  69.075  1.00  0.00    -0.240 C  
HETATM   19  C   UNL     1      -8.207  18.507  67.727  1.00  0.00    -0.265 C  
HETATM   20  C   UNL     1      -7.671  17.374  68.597  1.00  0.00    -0.273 C  
HETATM   21  C   UNL     1      -9.148  17.988  66.642  1.00  0.00    -0.290 C  
HETATM   22  C   UNL     1     -10.199  17.028  67.209  1.00  0.00    -0.310 C  
ENDBRANCH  16  17
ENDBRANCH   4  16
TORSDOF 2
ENDMDL
MODEL       28
REMARK 921   NORMALIZED FREE ENERGY PREDICTED BY IDOCK:   -5.27 KCAL/MOL
REMARK 922        TOTAL FREE ENERGY PREDICTED BY IDOCK:   -6.58 KCAL/MOL
REMARK 923 INTER-LIGAND FREE ENERGY PREDICTED BY IDOCK:   -6.26 KCAL/MOL
REMARK 924 INTRA-LIGAND FREE ENERGY PREDICTED BY IDOCK:   -0.32 KCAL/MOL
REMARK 927      BINDING AFFINITY PREDICTED BY RF-SCORE:    0.00 PKD
ROOT
HETATM    1  O   UNL     1      -8.391  15.614  65.856  1.00  0.00    -0.177 OA 
HETATM    2  C   UNL     1      -8.624  15.956  67.237  1.00  0.00    -0.184 C  
HETATM    3  H   UNL     1      -7.695  16.184  65.550  1.00  0.00     0.000 HD 
HETATM    4  C   UNL     1      -9.768  15.021  67.740  1.00  0.00    -0.215 C  
HETATM    5  C   UNL     1      -7.324  15.595  68.017  1.00  0.00    -0.137 C  
HETATM    6  C   UNL     1      -9.010  17.445  67.266  1.00  0.00    -0.241 A  
HETATM    7  C   UNL     1      -6.033  16.311  67.595  1.00  0.00    -0.170 C  
HETATM    8  C   UNL     1      -9.857  17.982  68.251  1.00  0.00    -0.357 A  
HETATM    9  C   UNL     1      -7.379  15.717  69.551  1.00  0.00    -0.186 C  
HETATM   10  C   UNL     1     -10.387  19.273  68.132  1.00  0.00    -0.496 A  
HETATM   11  C   UNL     1      -5.127  16.145  68.808  1.00  0.00    -0.103 C  
HETATM   12  C   UNL     1      -8.614  18.307  66.225  1.00  0.00    -0.208 A  
HETATM   13  C   UNL     1      -6.072  16.379  69.973  1.00  0.00    -0.151 C  
HETATM   14  C   UNL     1     -10.033  20.077  67.056  1.00  0.00    -0.582 A  
HETATM   15  C   UNL     1      -9.120  19.609  66.118  1.00  0.00    -0.380 A  
ENDROOT
BRANCH   4  16
HETATM   16  C   UNL     1     -11.111  15.180  67.006  1.00  0.00    -0.328 C  
BRANCH  16  17
HETATM   17  N   UNL     1     -11.817  13.897  66.797  1.00  0.00    -0.400 NA 
HETATM   18  C   UNL     1     -12.786  13.897  65.689  1.00  0.00    -0.495 C  
HETATM   19  C   UNL     1     -11.092  12.956  64.075  1.00  0.00    -0.455 C  
HETATM   20  C   UNL     1     -12.148  14.032  64.305  1.00  0.00    -0.476 C  
HETATM   21  C   UNL     1     -10.120  12.859  65.249  1.00  0.00    -0.254 C  
HETATM   22  C   UNL     1     -10.853  12.798  66.593  1.00  0.00    -0.264 C  
ENDBRANCH  16  17
ENDBRANCH   4  16
TORSDOF 2
ENDMDL
MODEL       29
REMARK 921   NORMALIZED FREE ENERGY PREDICTED BY IDOCK:   -5.22 KCAL/MOL
REMARK 922        TOTAL FREE ENERGY PREDICTED BY IDOCK:   -6.52 KCAL/MOL
REMARK 923 INTER-LIGAND FREE ENERGY PREDICTED BY IDOCK:   -6.09 KCAL/MOL
REMARK 924 INTRA-LIGAND FREE ENERGY PREDICTED BY IDOCK:   -0.43 KCAL/MOL
REMARK 927      BINDING AFFINITY PREDICTED BY RF-SCORE:    0.00 PKD
ROOT
HETATM    1  O   UNL     1      -8.652  14.319  67.560  1.00  0.00    -0.172 OA 
HETATM    2  C   UNL     1      -9.997  13.815  67.692  1.00  0.00    -0.238 C  
HETATM    3  H   UNL     1      -8.710  15.265  67.634  1.00  0.00     0.000 HD 
HETATM    4  C   UNL     1      -9.902  12.262  67.570  1.00  0.00    -0.193 C  
HETATM    5  C   UNL     1     -10.468  14.160  69.137  1.00  0.00    -0.143 C  
HETATM    6  C   UNL     1     -10.824  14.457  66.565  1.00  0.00    -0.310 A  
HETATM    7  C   UNL     1     -10.511  15.645  69.523  1.00  0.00    -0.270 C  
HETATM    8  C   UNL     1     -11.935  13.815  65.991  1.00  0.00    -0.443 A  
HETATM    9  C   UNL     1     -11.823  13.580  69.582  1.00  0.00    -0.398 C  
HETATM   10  C   UNL     1     -12.530  14.297  64.818  1.00  0.00    -0.390 A  
HETATM   11  C   UNL     1     -11.449  15.669  70.723  1.00  0.00    -0.409 C  
HETATM   12  C   UNL     1     -10.419  15.675  65.985  1.00  0.00    -0.343 A  
HETATM   13  C   UNL     1     -12.547  14.702  70.316  1.00  0.00    -0.370 C  
HETATM   14  C   UNL     1     -12.064  15.465  64.228  1.00  0.00    -0.178 A  
HETATM   15  C   UNL     1     -11.030  16.174  64.828  1.00  0.00    -0.330 A  
ENDROOT
BRANCH   4  16
HETATM   16  C   UNL     1      -9.360  11.745  66.226  1.00  0.00    -0.225 C  
BRANCH  16  17
HETATM   17  N   UNL     1     -10.263  10.774  65.568  1.00  0.00    -0.267 NA 
HETATM   18  C   UNL     1     -10.652  11.125  64.192  1.00  0.00    -0.368 C  
HETATM   19  C   UNL     1      -8.805   9.720  63.205  1.00  0.00    -0.257 C  
HETATM   20  C   UNL     1      -9.499  11.078  63.189  1.00  0.00    -0.363 C  
HETATM   21  C   UNL     1      -8.468   9.275  64.626  1.00  0.00    -0.192 C  
HETATM   22  C   UNL     1      -9.667   9.424  65.570  1.00  0.00    -0.230 C  
ENDBRANCH  16  17
ENDBRANCH   4  16
TORSDOF 2
ENDMDL
MODEL       30
REMARK 921   NORMALIZED FREE ENERGY PREDICTED BY IDOCK:   -5.21 KCAL/MOL
REMARK 922        TOTAL FREE ENERGY PREDICTED BY IDOCK:   -6.52 KCAL/MOL
REMARK 923 INTER-LIGAND FREE ENERGY PREDICTED BY IDOCK:   -5.94 KCAL/MOL
REMARK 924 INTRA-LIGAND FREE ENERGY PREDICTED BY IDOCK:   -0.58 KCAL/MOL
REMARK 927      BINDING AFFINITY PREDICTED BY RF-SCORE:    0.00 PKD
ROOT
HETATM    1  O   UNL     1     -12.046  13.258  68.654  1.00  0.00    -0.337 OA 
HETATM    2  C   UNL     1     -11.311  12.535  67.646  1.00  0.00    -0.306 C  
HETATM    3  H   UNL     1     -11.916  14.181  68.474  1.00  0.00     0.000 HD 
HETATM    4  C   UNL     1     -11.524  11.018  67.942  1.00  0.00    -0.358 C  
HETATM    5  C   UNL     1     -11.984  12.861  66.278  1.00  0.00    -0.472 C  
HETATM    6  C   UNL     1      -9.841  12.971  67.770  1.00  0.00    -0.224 A  
HETATM    7  C   UNL     1     -12.006  14.333  65.842  1.00  0.00    -0.400 C  
HETATM    8  C   UNL     1      -8.775  12.121  67.429  1.00  0.00    -0.177 A  
HETATM    9  C   UNL     1     -11.479  12.077  65.052  1.00  0.00    -0.343 C  
HETATM   10  C   UNL     1      -7.453  12.438  67.768  1.00  0.00    -0.126 A  
HETATM   11  C   UNL     1     -12.235  14.250  64.338  1.00  0.00    -0.471 C  
HETATM   12  C   UNL     1      -9.510  14.212  68.348  1.00  0.00    -0.214 A  
HETATM   13  C   UNL     1     -11.348  13.090  63.922  1.00  0.00    -0.460 C  
HETATM   14  C   UNL     1      -7.163  13.640  68.400  1.00  0.00    -0.109 A  
HETATM   15  C   UNL     1      -8.186  14.545  68.662  1.00  0.00    -0.152 A  
ENDROOT
BRANCH   4  16
HETATM   16  C   UNL     1     -10.998  10.540  69.307  1.00  0.00    -0.244 C  
BRANCH  16  17
HETATM   17  N   UNL     1     -10.683   9.094  69.337  1.00  0.00    -0.221 NA 
HETATM   18  C   UNL     1      -9.264   8.767  69.118  1.00  0.00    -0.149 C  
HETATM   19  C   UNL     1      -8.797   8.680  71.594  1.00  0.00    -0.292 C  
HETATM   20  C   UNL     1      -8.338   9.224  70.245  1.00  0.00    -0.204 C  
HETATM   21  C   UNL     1     -10.289   8.917  71.821  1.00  0.00    -0.426 C  
HETATM   22  C   UNL     1     -11.125   8.490  70.609  1.00  0.00    -0.252 C  
ENDBRANCH  16  17
ENDBRANCH   4  16
TORSDOF 2
ENDMDL
MODEL       31
REMARK 921   NORMALIZED FREE ENERGY PREDICTED BY IDOCK:   -5.17 KCAL/MOL
REMARK 922        TOTAL FREE ENERGY PREDICTED BY IDOCK:   -6.47 KCAL/MOL
REMARK 923 INTER-LIGAND FREE ENERGY PREDICTED BY IDOCK:   -6.05 KCAL/MOL
REMARK 924 INTRA-LIGAND FREE ENERGY PREDICTED BY IDOCK:   -0.42 KCAL/MOL
REMARK 927      BINDING AFFINITY PREDICTED BY RF-SCORE:    0.00 PKD
ROOT
HETATM    1  O   UNL     1     -10.633   9.378  67.377  1.00  0.00    -0.265 OA 
HETATM    2  C   UNL     1      -9.983  10.513  67.984  1.00  0.00    -0.155 C  
HETATM    3  H   UNL     1     -10.518   9.470  66.439  1.00  0.00     0.000 HD 
HETATM    4  C   UNL     1     -10.171  10.362  69.526  1.00  0.00    -0.258 C  
HETATM    5  C   UNL     1      -8.462  10.385  67.666  1.00  0.00    -0.114 C  
HETATM    6  C   UNL     1     -10.664  11.770  67.416  1.00  0.00    -0.277 A  
HETATM    7  C   UNL     1      -8.054  10.379  66.186  1.00  0.00    -0.139 C  
HETATM    8  C   UNL     1     -10.758  12.968  68.146  1.00  0.00    -0.258 A  
HETATM    9  C   UNL     1      -7.523  11.399  68.347  1.00  0.00    -0.111 C  
HETATM   10  C   UNL     1     -11.579  14.019  67.719  1.00  0.00    -0.378 A  
HETATM   11  C   UNL     1      -6.578  10.752  66.227  1.00  0.00    -0.132 C  
HETATM   12  C   UNL     1     -11.327  11.725  66.174  1.00  0.00    -0.342 A  
HETATM   13  C   UNL     1      -6.533  11.846  67.279  1.00  0.00    -0.141 C  
HETATM   14  C   UNL     1     -12.277  13.919  66.523  1.00  0.00    -0.482 A  
HETATM   15  C   UNL     1     -12.127  12.786  65.731  1.00  0.00    -0.505 A  
ENDROOT
BRANCH   4  16
HETATM   16  C   UNL     1     -11.632  10.372  70.008  1.00  0.00    -0.301 C  
BRANCH  16  17
HETATM   17  N   UNL     1     -11.776  10.028  71.441  1.00  0.00    -0.362 NA 
HETATM   18  C   UNL     1     -13.162  10.007  71.935  1.00  0.00    -0.452 C  
HETATM   19  C   UNL     1     -13.364   7.521  71.561  1.00  0.00    -0.409 C  
HETATM   20  C   UNL     1     -14.016   8.883  71.347  1.00  0.00    -0.299 C  
HETATM   21  C   UNL     1     -11.894   7.527  71.147  1.00  0.00    -0.324 C  
HETATM   22  C   UNL     1     -11.141   8.728  71.731  1.00  0.00    -0.347 C  
ENDBRANCH  16  17
ENDBRANCH   4  16
TORSDOF 2
ENDMDL
MODEL       32
REMARK 921   NORMALIZED FREE ENERGY PREDICTED BY IDOCK:   -5.17 KCAL/MOL
REMARK 922        TOTAL FREE ENERGY PREDICTED BY IDOCK:   -6.46 KCAL/MOL
REMARK 923 INTER-LIGAND FREE ENERGY PREDICTED BY IDOCK:   -5.88 KCAL/MOL
REMARK 924 INTRA-LIGAND FREE ENERGY PREDICTED BY IDOCK:   -0.58 KCAL/MOL
REMARK 927      BINDING AFFINITY PREDICTED BY RF-SCORE:    0.00 PKD
ROOT
HETATM    1  O   UNL     1      -9.523  12.094  67.787  1.00  0.00    -0.181 OA 
HETATM    2  C   UNL     1      -9.799  13.370  67.176  1.00  0.00    -0.237 C  
HETATM    3  H   UNL     1     -10.365  11.705  67.994  1.00  0.00     0.000 HD 
HETATM    4  C   UNL     1      -8.416  14.008  66.835  1.00  0.00    -0.102 C  
HETATM    5  C   UNL     1     -10.541  13.077  65.836  1.00  0.00    -0.288 C  
HETATM    6  C   UNL     1     -10.602  14.188  68.201  1.00  0.00    -0.249 A  
HETATM    7  C   UNL     1     -11.879  12.330  65.927  1.00  0.00    -0.420 C  
HETATM    8  C   UNL     1     -10.541  15.592  68.255  1.00  0.00    -0.255 A  
HETATM    9  C   UNL     1     -10.804  14.281  64.912  1.00  0.00    -0.429 C  
HETATM   10  C   UNL     1     -11.084  16.304  69.332  1.00  0.00    -0.328 A  
HETATM   11  C   UNL     1     -12.551  12.651  64.598  1.00  0.00    -0.517 C  
HETATM   12  C   UNL     1     -11.345  13.542  69.208  1.00  0.00    -0.317 A  
HETATM   13  C   UNL     1     -12.231  14.122  64.402  1.00  0.00    -0.466 C  
HETATM   14  C   UNL     1     -11.752  15.633  70.348  1.00  0.00    -0.379 A  
HETATM   15  C   UNL     1     -11.913  14.254  70.272  1.00  0.00    -0.398 A  
ENDROOT
BRANCH   4  16
HETATM   16  C   UNL     1      -7.507  14.279  68.047  1.00  0.00    -0.142 C  
BRANCH  16  17
HETATM   17  N   UNL     1      -6.266  15.004  67.694  1.00  0.00    -0.268 NA 
HETATM   18  C   UNL     1      -6.473  16.355  67.148  1.00  0.00    -0.192 C  
HETATM   19  C   UNL     1      -6.173  17.424  69.412  1.00  0.00    -0.250 C  
HETATM   20  C   UNL     1      -7.038  17.354  68.158  1.00  0.00    -0.196 C  
HETATM   21  C   UNL     1      -5.856  16.034  69.958  1.00  0.00    -0.173 C  
HETATM   22  C   UNL     1      -5.362  15.088  68.858  1.00  0.00    -0.095 C  
ENDBRANCH  16  17
ENDBRANCH   4  16
TORSDOF 2
ENDMDL
MODEL       33
REMARK 921   NORMALIZED FREE ENERGY PREDICTED BY IDOCK:   -5.15 KCAL/MOL
REMARK 922        TOTAL FREE ENERGY PREDICTED BY IDOCK:   -6.45 KCAL/MOL
REMARK 923 INTER-LIGAND FREE ENERGY PREDICTED BY IDOCK:   -5.85 KCAL/MOL
REMARK 924 INTRA-LIGAND FREE ENERGY PREDICTED BY IDOCK:   -0.60 KCAL/MOL
REMARK 927      BINDING AFFINITY PREDICTED BY RF-SCORE:    0.00 PKD
ROOT
HETATM    1  O   UNL     1      -8.805  17.180  67.752  1.00  0.00    -0.219 OA 
HETATM    2  C   UNL     1      -8.781  15.739  67.813  1.00  0.00    -0.170 C  
HETATM    3  H   UNL     1      -8.645  17.491  68.635  1.00  0.00     0.000 HD 
HETATM    4  C   UNL     1      -9.046  15.228  66.362  1.00  0.00    -0.347 C  
HETATM    5  C   UNL     1      -7.332  15.330  68.215  1.00  0.00    -0.113 C  
HETATM    6  C   UNL     1      -9.877  15.319  68.807  1.00  0.00    -0.217 A  
HETATM    7  C   UNL     1      -6.809  15.840  69.565  1.00  0.00    -0.187 C  
HETATM    8  C   UNL     1     -10.558  14.094  68.700  1.00  0.00    -0.253 A  
HETATM    9  C   UNL     1      -7.004  13.825  68.189  1.00  0.00    -0.120 C  
HETATM   10  C   UNL     1     -11.705  13.829  69.458  1.00  0.00    -0.380 A  
HETATM   11  C   UNL     1      -5.655  14.895  69.874  1.00  0.00    -0.110 C  
HETATM   12  C   UNL     1     -10.321  16.212  69.802  1.00  0.00    -0.244 A  
HETATM   13  C   UNL     1      -6.200  13.542  69.453  1.00  0.00    -0.107 C  
HETATM   14  C   UNL     1     -12.160  14.758  70.385  1.00  0.00    -0.381 A  
HETATM   15  C   UNL     1     -11.451  15.937  70.582  1.00  0.00    -0.426 A  
ENDROOT
BRANCH   4  16
HETATM   16  C   UNL     1     -10.407  15.628  65.768  1.00  0.00    -0.365 C  
BRANCH  16  17
HETATM   17  N   UNL     1     -10.801  14.803  64.604  1.00  0.00    -0.350 NA 
HETATM   18  C   UNL     1     -10.227  13.448  64.585  1.00  0.00    -0.315 C  
HETATM   19  C   UNL     1     -12.272  12.458  65.680  1.00  0.00    -0.322 C  
HETATM   20  C   UNL     1     -10.749  12.535  65.696  1.00  0.00    -0.297 C  
HETATM   21  C   UNL     1     -12.907  13.845  65.605  1.00  0.00    -0.467 C  
HETATM   22  C   UNL     1     -12.271  14.705  64.507  1.00  0.00    -0.456 C  
ENDBRANCH  16  17
ENDBRANCH   4  16
TORSDOF 2
ENDMDL
MODEL       34
REMARK 921   NORMALIZED FREE ENERGY PREDICTED BY IDOCK:   -5.10 KCAL/MOL
REMARK 922        TOTAL FREE ENERGY PREDICTED BY IDOCK:   -6.39 KCAL/MOL
REMARK 923 INTER-LIGAND FREE ENERGY PREDICTED BY IDOCK:   -6.08 KCAL/MOL
REMARK 924 INTRA-LIGAND FREE ENERGY PREDICTED BY IDOCK:   -0.31 KCAL/MOL
REMARK 927      BINDING AFFINITY PREDICTED BY RF-SCORE:    0.00 PKD
ROOT
HETATM    1  O   UNL     1      -9.556  12.583  68.491  1.00  0.00    -0.317 OA 
HETATM    2  C   UNL     1     -10.273  13.765  68.079  1.00  0.00    -0.248 C  
HETATM    3  H   UNL     1     -10.199  11.888  68.562  1.00  0.00     0.000 HD 
HETATM    4  C   UNL     1      -9.216  14.908  67.964  1.00  0.00    -0.185 C  
HETATM    5  C   UNL     1     -10.835  13.477  66.654  1.00  0.00    -0.283 C  
HETATM    6  C   UNL     1     -11.336  14.036  69.157  1.00  0.00    -0.323 A  
HETATM    7  C   UNL     1     -11.805  12.297  66.509  1.00  0.00    -0.378 C  
HETATM    8  C   UNL     1     -11.797  15.332  69.447  1.00  0.00    -0.367 A  
HETATM    9  C   UNL     1     -11.507  14.655  65.923  1.00  0.00    -0.338 C  
HETATM   10  C   UNL     1     -12.580  15.591  70.580  1.00  0.00    -0.462 A  
HETATM   11  C   UNL     1     -12.527  12.594  65.201  1.00  0.00    -0.531 C  
HETATM   12  C   UNL     1     -11.805  12.993  69.979  1.00  0.00    -0.355 A  
HETATM   13  C   UNL     1     -12.768  14.091  65.279  1.00  0.00    -0.468 C  
HETATM   14  C   UNL     1     -12.970  14.550  71.412  1.00  0.00    -0.403 A  
HETATM   15  C   UNL     1     -12.611  13.245  71.096  1.00  0.00    -0.412 A  
ENDROOT
BRANCH   4  16
HETATM   16  C   UNL     1      -8.490  15.259  69.274  1.00  0.00    -0.238 C  
BRANCH  16  17
HETATM   17  N   UNL     1      -7.104  15.733  69.063  1.00  0.00    -0.147 NA 
HETATM   18  C   UNL     1      -6.188  15.489  70.189  1.00  0.00    -0.099 C  
HETATM   19  C   UNL     1      -5.355  13.336  69.175  1.00  0.00    -0.073 C  
HETATM   20  C   UNL     1      -5.886  14.010  70.436  1.00  0.00    -0.159 C  
HETATM   21  C   UNL     1      -6.227  13.643  67.960  1.00  0.00    -0.139 C  
HETATM   22  C   UNL     1      -6.530  15.140  67.839  1.00  0.00    -0.159 C  
ENDBRANCH  16  17
ENDBRANCH   4  16
TORSDOF 2
ENDMDL
MODEL       35
REMARK 921   NORMALIZED FREE ENERGY PREDICTED BY IDOCK:   -5.09 KCAL/MOL
REMARK 922        TOTAL FREE ENERGY PREDICTED BY IDOCK:   -6.37 KCAL/MOL
REMARK 923 INTER-LIGAND FREE ENERGY PREDICTED BY IDOCK:   -5.84 KCAL/MOL
REMARK 924 INTRA-LIGAND FREE ENERGY PREDICTED BY IDOCK:   -0.53 KCAL/MOL
REMARK 927      BINDING AFFINITY PREDICTED BY RF-SCORE:    0.00 PKD
ROOT
HETATM    1  O   UNL     1     -11.941  11.452  67.977  1.00  0.00    -0.613 OA 
HETATM    2  C   UNL     1     -10.720  12.063  67.513  1.00  0.00    -0.226 C  
HETATM    3  H   UNL     1     -12.275  10.932  67.256  1.00  0.00     0.000 HD 
HETATM    4  C   UNL     1     -10.172  12.917  68.698  1.00  0.00    -0.170 C  
HETATM    5  C   UNL     1      -9.712  10.906  67.241  1.00  0.00    -0.189 C  
HETATM    6  C   UNL     1     -11.089  12.910  66.282  1.00  0.00    -0.317 A  
HETATM    7  C   UNL     1     -10.112   9.861  66.191  1.00  0.00    -0.315 C  
HETATM    8  C   UNL     1     -10.377  14.069  65.929  1.00  0.00    -0.327 A  
HETATM    9  C   UNL     1      -8.269  11.313  66.888  1.00  0.00    -0.153 C  
HETATM   10  C   UNL     1     -10.862  14.954  64.957  1.00  0.00    -0.439 A  
HETATM   11  C   UNL     1      -8.784   9.221  65.809  1.00  0.00    -0.182 C  
HETATM   12  C   UNL     1     -12.239  12.610  65.526  1.00  0.00    -0.501 A  
HETATM   13  C   UNL     1      -7.842  10.409  65.737  1.00  0.00    -0.150 C  
HETATM   14  C   UNL     1     -12.037  14.667  64.275  1.00  0.00    -0.437 A  
HETATM   15  C   UNL     1     -12.711  13.479  64.534  1.00  0.00    -0.165 A  
ENDROOT
BRANCH   4  16
HETATM   16  C   UNL     1     -11.095  14.058  69.162  1.00  0.00    -0.259 C  
BRANCH  16  17
HETATM   17  N   UNL     1     -10.379  15.127  69.892  1.00  0.00    -0.226 NA 
HETATM   18  C   UNL     1      -8.994  15.357  69.450  1.00  0.00    -0.258 C  
HETATM   19  C   UNL     1      -9.691  17.212  67.892  1.00  0.00    -0.270 C  
HETATM   20  C   UNL     1      -8.878  15.930  68.038  1.00  0.00    -0.178 C  
HETATM   21  C   UNL     1     -11.112  17.044  68.427  1.00  0.00    -0.164 C  
HETATM   22  C   UNL     1     -11.125  16.399  69.817  1.00  0.00    -0.305 C  
ENDBRANCH  16  17
ENDBRANCH   4  16
TORSDOF 2
ENDMDL
MODEL       36
REMARK 921   NORMALIZED FREE ENERGY PREDICTED BY IDOCK:   -5.08 KCAL/MOL
REMARK 922        TOTAL FREE ENERGY PREDICTED BY IDOCK:   -6.37 KCAL/MOL
REMARK 923 INTER-LIGAND FREE ENERGY PREDICTED BY IDOCK:   -5.75 KCAL/MOL
REMARK 924 INTRA-LIGAND FREE ENERGY PREDICTED BY IDOCK:   -0.62 KCAL/MOL
REMARK 927      BINDING AFFINITY PREDICTED BY RF-SCORE:    0.00 PKD
ROOT
HETATM    1  O   UNL     1      -8.474  10.820  69.508  1.00  0.00    -0.370 OA 
HETATM    2  C   UNL     1      -9.782  10.547  68.967  1.00  0.00    -0.210 C  
HETATM    3  H   UNL     1      -7.914  11.030  68.770  1.00  0.00     0.000 HD 
HETATM    4  C   UNL     1     -10.702  10.202  70.179  1.00  0.00    -0.355 C  
HETATM    5  C   UNL     1     -10.294  11.876  68.332  1.00  0.00    -0.216 C  
HETATM    6  C   UNL     1      -9.619   9.375  67.983  1.00  0.00    -0.156 A  
HETATM    7  C   UNL     1      -9.458  12.475  67.192  1.00  0.00    -0.208 C  
HETATM    8  C   UNL     1     -10.654   8.458  67.730  1.00  0.00    -0.238 A  
HETATM    9  C   UNL     1     -11.749  11.887  67.825  1.00  0.00    -0.362 C  
HETATM   10  C   UNL     1     -10.420   7.272  67.024  1.00  0.00    -0.398 A  
HETATM   11  C   UNL     1     -10.438  13.406  66.490  1.00  0.00    -0.283 C  
HETATM   12  C   UNL     1      -8.372   9.112  67.384  1.00  0.00    -0.115 A  
HETATM   13  C   UNL     1     -11.725  12.599  66.478  1.00  0.00    -0.463 C  
HETATM   14  C   UNL     1      -9.161   7.005  66.503  1.00  0.00    -0.183 A  
HETATM   15  C   UNL     1      -8.142   7.940  66.654  1.00  0.00    -0.107 A  
ENDROOT
BRANCH   4  16
HETATM   16  C   UNL     1     -10.282   8.959  70.983  1.00  0.00    -0.254 C  
BRANCH  16  17
HETATM   17  N   UNL     1     -11.426   8.245  71.593  1.00  0.00    -0.264 NA 
HETATM   18  C   UNL     1     -12.000   7.175  70.762  1.00  0.00    -0.310 C  
HETATM   19  C   UNL     1     -10.599   5.408  71.891  1.00  0.00    -0.288 C  
HETATM   20  C   UNL     1     -11.070   5.978  70.557  1.00  0.00    -0.385 C  
HETATM   21  C   UNL     1     -10.081   6.502  72.822  1.00  0.00    -0.193 C  
HETATM   22  C   UNL     1     -11.051   7.686  72.907  1.00  0.00    -0.393 C  
ENDBRANCH  16  17
ENDBRANCH   4  16
TORSDOF 2
ENDMDL
MODEL       37
REMARK 921   NORMALIZED FREE ENERGY PREDICTED BY IDOCK:   -5.04 KCAL/MOL
REMARK 922        TOTAL FREE ENERGY PREDICTED BY IDOCK:   -6.32 KCAL/MOL
REMARK 923 INTER-LIGAND FREE ENERGY PREDICTED BY IDOCK:   -5.70 KCAL/MOL
REMARK 924 INTRA-LIGAND FREE ENERGY PREDICTED BY IDOCK:   -0.63 KCAL/MOL
REMARK 927      BINDING AFFINITY PREDICTED BY RF-SCORE:    0.00 PKD
ROOT
HETATM    1  O   UNL     1     -10.383   9.446  66.494  1.00  0.00    -0.251 OA 
HETATM    2  C   UNL     1     -10.312  10.262  67.680  1.00  0.00    -0.220 C  
HETATM    3  H   UNL     1      -9.659   8.833  66.543  1.00  0.00     0.000 HD 
HETATM    4  C   UNL     1     -11.502  11.269  67.599  1.00  0.00    -0.341 C  
HETATM    5  C   UNL     1     -10.557   9.316  68.894  1.00  0.00    -0.222 C  
HETATM    6  C   UNL     1      -8.937  10.954  67.659  1.00  0.00    -0.140 A  
HETATM    7  C   UNL     1      -9.568   8.159  69.092  1.00  0.00    -0.157 C  
HETATM    8  C   UNL     1      -8.722  12.212  68.249  1.00  0.00    -0.178 A  
HETATM    9  C   UNL     1     -10.692   9.982  70.277  1.00  0.00    -0.367 C  
HETATM   10  C   UNL     1      -7.542  12.931  68.020  1.00  0.00    -0.137 A  
HETATM   11  C   UNL     1      -9.762   7.777  70.553  1.00  0.00    -0.175 C  
HETATM   12  C   UNL     1      -7.865  10.393  66.939  1.00  0.00    -0.114 A  
HETATM   13  C   UNL     1      -9.886   9.124  71.244  1.00  0.00    -0.363 C  
HETATM   14  C   UNL     1      -6.528  12.381  67.247  1.00  0.00    -0.140 A  
HETATM   15  C   UNL     1      -6.673  11.098  66.732  1.00  0.00    -0.135 A  
ENDROOT
BRANCH   4  16
HETATM   16  C   UNL     1     -11.467  12.225  66.395  1.00  0.00    -0.378 C  
BRANCH  16  17
HETATM   17  N   UNL     1     -12.140  13.517  66.656  1.00  0.00    -0.405 NA 
HETATM   18  C   UNL     1     -11.272  14.565  67.216  1.00  0.00    -0.332 C  
HETATM   19  C   UNL     1     -10.805  15.538  64.937  1.00  0.00    -0.447 C  
HETATM   20  C   UNL     1     -10.194  15.062  66.252  1.00  0.00    -0.306 C  
HETATM   21  C   UNL     1     -11.787  14.516  64.368  1.00  0.00    -0.419 C  
HETATM   22  C   UNL     1     -12.781  14.028  65.428  1.00  0.00    -0.471 C  
ENDBRANCH  16  17
ENDBRANCH   4  16
TORSDOF 2
ENDMDL
MODEL       38
REMARK 921   NORMALIZED FREE ENERGY PREDICTED BY IDOCK:   -5.04 KCAL/MOL
REMARK 922        TOTAL FREE ENERGY PREDICTED BY IDOCK:   -6.32 KCAL/MOL
REMARK 923 INTER-LIGAND FREE ENERGY PREDICTED BY IDOCK:   -5.92 KCAL/MOL
REMARK 924 INTRA-LIGAND FREE ENERGY PREDICTED BY IDOCK:   -0.40 KCAL/MOL
REMARK 927      BINDING AFFINITY PREDICTED BY RF-SCORE:    0.00 PKD
ROOT
HETATM    1  O   UNL     1     -10.922   8.567  67.215  1.00  0.00    -0.447 OA 
HETATM    2  C   UNL     1     -10.546   9.487  68.259  1.00  0.00    -0.216 C  
HETATM    3  H   UNL     1     -10.402   7.783  67.345  1.00  0.00     0.000 HD 
HETATM    4  C   UNL     1     -11.400  10.776  68.045  1.00  0.00    -0.378 C  
HETATM    5  C   UNL     1     -10.978   8.838  69.609  1.00  0.00    -0.114 C  
HETATM    6  C   UNL     1      -9.036   9.735  68.109  1.00  0.00    -0.119 A  
HETATM    7  C   UNL     1     -10.352   7.482  69.965  1.00  0.00    -0.222 C  
HETATM    8  C   UNL     1      -8.432  10.946  68.493  1.00  0.00    -0.147 A  
HETATM    9  C   UNL     1     -10.831   9.704  70.874  1.00  0.00    -0.409 C  
HETATM   10  C   UNL     1      -7.112  11.248  68.136  1.00  0.00    -0.071 A  
HETATM   11  C   UNL     1     -10.558   7.386  71.472  1.00  0.00    -0.226 C  
HETATM   12  C   UNL     1      -8.216   8.789  67.465  1.00  0.00    -0.110 A  
HETATM   13  C   UNL     1     -10.247   8.794  71.948  1.00  0.00    -0.415 C  
HETATM   14  C   UNL     1      -6.348  10.321  67.439  1.00  0.00    -0.059 A  
HETATM   15  C   UNL     1      -6.886   9.077  67.131  1.00  0.00    -0.074 A  
ENDROOT
BRANCH   4  16
HETATM   16  C   UNL     1     -11.166  11.498  66.707  1.00  0.00    -0.285 C  
BRANCH  16  17
HETATM   17  N   UNL     1     -12.207  12.504  66.397  1.00  0.00    -0.555 NA 
HETATM   18  C   UNL     1     -11.962  13.841  66.963  1.00  0.00    -0.413 C  
HETATM   19  C   UNL     1     -10.879  14.653  64.835  1.00  0.00    -0.436 C  
HETATM   20  C   UNL     1     -10.760  14.564  66.353  1.00  0.00    -0.309 C  
HETATM   21  C   UNL     1     -11.226  13.301  64.216  1.00  0.00    -0.417 C  
HETATM   22  C   UNL     1     -12.397  12.626  64.938  1.00  0.00    -0.498 C  
ENDBRANCH  16  17
ENDBRANCH   4  16
TORSDOF 2
ENDMDL
MODEL       39
REMARK 921   NORMALIZED FREE ENERGY PREDICTED BY IDOCK:   -5.03 KCAL/MOL
REMARK 922        TOTAL FREE ENERGY PREDICTED BY IDOCK:   -6.31 KCAL/MOL
REMARK 923 INTER-LIGAND FREE ENERGY PREDICTED BY IDOCK:   -5.89 KCAL/MOL
REMARK 924 INTRA-LIGAND FREE ENERGY PREDICTED BY IDOCK:   -0.42 KCAL/MOL
REMARK 927      BINDING AFFINITY PREDICTED BY RF-SCORE:    0.00 PKD
ROOT
HETATM    1  O   UNL     1      -8.722  12.693  68.794  1.00  0.00    -0.375 OA 
HETATM    2  C   UNL     1      -9.744  11.846  68.230  1.00  0.00    -0.200 C  
HETATM    3  H   UNL     1      -7.911  12.199  68.758  1.00  0.00     0.000 HD 
HETATM    4  C   UNL     1     -11.076  12.657  68.290  1.00  0.00    -0.295 C  
HETATM    5  C   UNL     1      -9.374  11.629  66.731  1.00  0.00    -0.193 C  
HETATM    6  C   UNL     1      -9.781  10.567  69.085  1.00  0.00    -0.226 A  
HETATM    7  C   UNL     1      -8.027  10.957  66.433  1.00  0.00    -0.157 C  
HETATM    8  C   UNL     1     -10.955   9.813  69.256  1.00  0.00    -0.222 A  
HETATM    9  C   UNL     1     -10.406  10.885  65.863  1.00  0.00    -0.310 C  
HETATM   10  C   UNL     1     -11.034   8.796  70.217  1.00  0.00    -0.255 A  
HETATM   11  C   UNL     1      -8.197  10.448  65.008  1.00  0.00    -0.152 C  
HETATM   12  C   UNL     1      -8.652  10.169  69.826  1.00  0.00    -0.148 A  
HETATM   13  C   UNL     1      -9.614   9.904  65.007  1.00  0.00    -0.364 C  
HETATM   14  C   UNL     1      -9.923   8.472  70.984  1.00  0.00    -0.255 A  
HETATM   15  C   UNL     1      -8.720   9.135  70.768  1.00  0.00    -0.285 A  
ENDROOT
BRANCH   4  16
HETATM   16  C   UNL     1     -11.543  13.041  69.704  1.00  0.00    -0.253 C  
BRANCH  16  17
HETATM   17  N   UNL     1     -12.543  14.132  69.712  1.00  0.00    -0.216 NA 
HETATM   18  C   UNL     1     -13.268  14.298  70.983  1.00  0.00    -0.303 C  
HETATM   19  C   UNL     1     -11.669  16.077  71.780  1.00  0.00    -0.593 C  
HETATM   20  C   UNL     1     -12.394  14.784  72.139  1.00  0.00    -0.408 C  
HETATM   21  C   UNL     1     -10.979  15.979  70.421  1.00  0.00    -0.347 C  
HETATM   22  C   UNL     1     -11.916  15.417  69.345  1.00  0.00    -0.327 C  
ENDBRANCH  16  17
ENDBRANCH   4  16
TORSDOF 2
ENDMDL
MODEL       40
REMARK 921   NORMALIZED FREE ENERGY PREDICTED BY IDOCK:   -5.02 KCAL/MOL
REMARK 922        TOTAL FREE ENERGY PREDICTED BY IDOCK:   -6.30 KCAL/MOL
REMARK 923 INTER-LIGAND FREE ENERGY PREDICTED BY IDOCK:   -5.69 KCAL/MOL
REMARK 924 INTRA-LIGAND FREE ENERGY PREDICTED BY IDOCK:   -0.61 KCAL/MOL
REMARK 927      BINDING AFFINITY PREDICTED BY RF-SCORE:    0.00 PKD
ROOT
HETATM    1  O   UNL     1     -11.262  16.083  65.962  1.00  0.00    -0.065 OA 
HETATM    2  C   UNL     1     -10.111  16.320  66.798  1.00  0.00    -0.278 C  
HETATM    3  H   UNL     1     -11.949  16.657  66.278  1.00  0.00     0.000 HD 
HETATM    4  C   UNL     1      -8.982  15.377  66.279  1.00  0.00    -0.341 C  
HETATM    5  C   UNL     1      -9.667  17.793  66.546  1.00  0.00    -0.324 C  
HETATM    6  C   UNL     1     -10.541  16.007  68.242  1.00  0.00    -0.283 A  
HETATM    7  C   UNL     1     -10.685  18.896  66.868  1.00  0.00    -0.447 C  
HETATM    8  C   UNL     1      -9.634  15.541  69.210  1.00  0.00    -0.266 A  
HETATM    9  C   UNL     1      -8.350  18.243  67.206  1.00  0.00    -0.246 C  
HETATM   10  C   UNL     1     -10.075  15.037  70.440  1.00  0.00     0.247 A  
HETATM   11  C   UNL     1      -9.820  20.142  67.007  1.00  0.00    -0.595 C  
HETATM   12  C   UNL     1     -11.897  16.067  68.614  1.00  0.00    -0.174 A  
HETATM   13  C   UNL     1      -8.612  19.634  67.773  1.00  0.00    -0.366 C  
HETATM   14  C   UNL     1     -11.429  15.045  70.753  1.00  0.00    -0.335 A  
HETATM   15  C   UNL     1     -12.339  15.590  69.854  1.00  0.00    -0.306 A  
ENDROOT
BRANCH   4  16
HETATM   16  C   UNL     1      -9.297  13.873  66.368  1.00  0.00    -0.205 C  
BRANCH  16  17
HETATM   17  N   UNL     1     -10.566  13.503  65.702  1.00  0.00    -0.278 NA 
HETATM   18  C   UNL     1     -10.408  12.743  64.451  1.00  0.00    -0.364 C  
HETATM   19  C   UNL     1     -10.663  10.535  65.642  1.00  0.00    -0.052 C  
HETATM   20  C   UNL     1      -9.836  11.338  64.644  1.00  0.00    -0.314 C  
HETATM   21  C   UNL     1     -10.929  11.326  66.921  1.00  0.00    -0.348 C  
HETATM   22  C   UNL     1     -11.434  12.742  66.621  1.00  0.00    -0.350 C  
ENDBRANCH  16  17
ENDBRANCH   4  16
TORSDOF 2
ENDMDL
MODEL       41
REMARK 921   NORMALIZED FREE ENERGY PREDICTED BY IDOCK:   -5.00 KCAL/MOL
REMARK 922        TOTAL FREE ENERGY PREDICTED BY IDOCK:   -6.27 KCAL/MOL
REMARK 923 INTER-LIGAND FREE ENERGY PREDICTED BY IDOCK:   -5.60 KCAL/MOL
REMARK 924 INTRA-LIGAND FREE ENERGY PREDICTED BY IDOCK:   -0.67 KCAL/MOL
REMARK 927      BINDING AFFINITY PREDICTED BY RF-SCORE:    0.00 PKD
ROOT
HETATM    1  O   UNL     1     -11.382  15.362  67.002  1.00  0.00    -0.288 OA 
HETATM    2  C   UNL     1     -10.418  15.743  68.005  1.00  0.00    -0.270 C  
HETATM    3  H   UNL     1     -12.095  15.987  67.062  1.00  0.00     0.000 HD 
HETATM    4  C   UNL     1      -9.246  14.717  67.907  1.00  0.00    -0.197 C  
HETATM    5  C   UNL     1      -9.871  17.144  67.596  1.00  0.00    -0.270 C  
HETATM    6  C   UNL     1     -11.146  15.696  69.359  1.00  0.00    -0.303 A  
HETATM    7  C   UNL     1     -10.887  18.291  67.500  1.00  0.00    -0.282 C  
HETATM    8  C   UNL     1     -10.476  15.409  70.562  1.00  0.00    -0.140 A  
HETATM    9  C   UNL     1      -8.700  17.701  68.427  1.00  0.00    -0.284 C  
HETATM   10  C   UNL     1     -11.180  15.138  71.742  1.00  0.00    -0.299 A  
HETATM   11  C   UNL     1     -10.018  19.538  67.595  1.00  0.00    -0.498 C  
HETATM   12  C   UNL     1     -12.547  15.828  69.424  1.00  0.00     0.264 A  
HETATM   13  C   UNL     1      -9.014  19.172  68.673  1.00  0.00    -0.411 C  
HETATM   14  C   UNL     1     -12.567  15.207  71.759  1.00  0.00    -0.418 A  
HETATM   15  C   UNL     1     -13.252  15.584  70.609  1.00  0.00    -0.293 A  
ENDROOT
BRANCH   4  16
HETATM   16  C   UNL     1      -9.634  13.255  68.191  1.00  0.00    -0.227 C  
BRANCH  16  17
HETATM   17  N   UNL     1     -10.620  12.716  67.228  1.00  0.00    -0.227 NA 
HETATM   18  C   UNL     1     -10.077  11.742  66.267  1.00  0.00    -0.217 C  
HETATM   19  C   UNL     1     -10.765   9.788  67.704  1.00  0.00    -0.334 C  
HETATM   20  C   UNL     1      -9.635  10.422  66.900  1.00  0.00    -0.207 C  
HETATM   21  C   UNL     1     -11.419  10.793  68.649  1.00  0.00    -0.365 C  
HETATM   22  C   UNL     1     -11.762  12.106  67.937  1.00  0.00    -0.336 C  
ENDBRANCH  16  17
ENDBRANCH   4  16
TORSDOF 2
ENDMDL
MODEL       42
REMARK 921   NORMALIZED FREE ENERGY PREDICTED BY IDOCK:   -4.98 KCAL/MOL
REMARK 922        TOTAL FREE ENERGY PREDICTED BY IDOCK:   -6.26 KCAL/MOL
REMARK 923 INTER-LIGAND FREE ENERGY PREDICTED BY IDOCK:   -5.62 KCAL/MOL
REMARK 924 INTRA-LIGAND FREE ENERGY PREDICTED BY IDOCK:   -0.64 KCAL/MOL
REMARK 927      BINDING AFFINITY PREDICTED BY RF-SCORE:    0.00 PKD
ROOT
HETATM    1  O   UNL     1     -12.400   8.170  70.464  1.00  0.00    -0.479 OA 
HETATM    2  C   UNL     1     -11.001   7.946  70.729  1.00  0.00    -0.252 C  
HETATM    3  H   UNL     1     -12.788   7.316  70.312  1.00  0.00     0.000 HD 
HETATM    4  C   UNL     1     -10.365   9.349  70.979  1.00  0.00    -0.382 C  
HETATM    5  C   UNL     1     -10.918   7.132  72.056  1.00  0.00    -0.267 C  
HETATM    6  C   UNL     1     -10.424   7.236  69.492  1.00  0.00    -0.238 A  
HETATM    7  C   UNL     1     -11.600   5.757  72.078  1.00  0.00    -0.226 C  
HETATM    8  C   UNL     1      -9.082   7.383  69.101  1.00  0.00    -0.134 A  
HETATM    9  C   UNL     1      -9.513   6.904  72.643  1.00  0.00    -0.159 C  
HETATM   10  C   UNL     1      -8.632   6.929  67.854  1.00  0.00    -0.122 A  
HETATM   11  C   UNL     1     -10.929   5.051  73.249  1.00  0.00    -0.384 C  
HETATM   12  C   UNL     1     -11.263   6.498  68.634  1.00  0.00    -0.302 A  
HETATM   13  C   UNL     1      -9.472   5.449  73.097  1.00  0.00    -0.149 C  
HETATM   14  C   UNL     1      -9.501   6.265  66.998  1.00  0.00    -0.146 A  
HETATM   15  C   UNL     1     -10.809   6.019  67.399  1.00  0.00    -0.394 A  
ENDROOT
BRANCH   4  16
HETATM   16  C   UNL     1     -10.445  10.322  69.790  1.00  0.00    -0.259 C  
BRANCH  16  17
HETATM   17  N   UNL     1     -11.834  10.680  69.422  1.00  0.00    -0.276 NA 
HETATM   18  C   UNL     1     -12.507  11.590  70.363  1.00  0.00    -0.240 C  
HETATM   19  C   UNL     1     -11.874  13.621  69.008  1.00  0.00    -0.393 C  
HETATM   20  C   UNL     1     -11.912  12.999  70.400  1.00  0.00    -0.337 C  
HETATM   21  C   UNL     1     -11.266  12.670  67.981  1.00  0.00    -0.308 C  
HETATM   22  C   UNL     1     -11.879  11.267  68.068  1.00  0.00    -0.170 C  
ENDBRANCH  16  17
ENDBRANCH   4  16
TORSDOF 2
ENDMDL
MODEL       43
REMARK 921   NORMALIZED FREE ENERGY PREDICTED BY IDOCK:   -4.97 KCAL/MOL
REMARK 922        TOTAL FREE ENERGY PREDICTED BY IDOCK:   -6.24 KCAL/MOL
REMARK 923 INTER-LIGAND FREE ENERGY PREDICTED BY IDOCK:   -5.79 KCAL/MOL
REMARK 924 INTRA-LIGAND FREE ENERGY PREDICTED BY IDOCK:   -0.45 KCAL/MOL
REMARK 927      BINDING AFFINITY PREDICTED BY RF-SCORE:    0.00 PKD
ROOT
HETATM    1  O   UNL     1     -11.937  11.517  67.581  1.00  0.00    -0.630 OA 
HETATM    2  C   UNL     1     -11.099  12.638  67.926  1.00  0.00    -0.247 C  
HETATM    3  H   UNL     1     -12.082  11.030  68.384  1.00  0.00     0.000 HD 
HETATM    4  C   UNL     1     -10.860  13.438  66.608  1.00  0.00    -0.285 C  
HETATM    5  C   UNL     1     -11.925  13.537  68.896  1.00  0.00    -0.378 C  
HETATM    6  C   UNL     1      -9.804  12.057  68.520  1.00  0.00    -0.177 A  
HETATM    7  C   UNL     1     -12.386  12.904  70.216  1.00  0.00    -0.294 C  
HETATM    8  C   UNL     1      -8.568  12.719  68.416  1.00  0.00    -0.123 A  
HETATM    9  C   UNL     1     -11.305  14.892  69.284  1.00  0.00    -0.315 C  
HETATM   10  C   UNL     1      -7.368  12.078  68.746  1.00  0.00    -0.098 A  
HETATM   11  C   UNL     1     -12.683  14.109  71.098  1.00  0.00    -0.431 C  
HETATM   12  C   UNL     1      -9.794  10.771  69.094  1.00  0.00    -0.194 A  
HETATM   13  C   UNL     1     -11.537  15.054  70.781  1.00  0.00    -0.364 C  
HETATM   14  C   UNL     1      -7.383  10.782  69.246  1.00  0.00    -0.129 A  
HETATM   15  C   UNL     1      -8.597  10.138  69.452  1.00  0.00    -0.183 A  
ENDROOT
BRANCH   4  16
HETATM   16  C   UNL     1     -10.132  12.661  65.497  1.00  0.00    -0.265 C  
BRANCH  16  17
HETATM   17  N   UNL     1     -10.900  11.497  65.000  1.00  0.00    -0.292 NA 
HETATM   18  C   UNL     1     -11.110  11.471  63.544  1.00  0.00    -0.348 C  
HETATM   19  C   UNL     1      -9.095   9.999  63.178  1.00  0.00    -0.296 C  
HETATM   20  C   UNL     1      -9.831  11.260  62.734  1.00  0.00    -0.241 C  
HETATM   21  C   UNL     1      -8.939   9.942  64.695  1.00  0.00    -0.260 C  
HETATM   22  C   UNL     1     -10.260  10.234  65.417  1.00  0.00    -0.242 C  
ENDBRANCH  16  17
ENDBRANCH   4  16
TORSDOF 2
ENDMDL
MODEL       44
REMARK 921   NORMALIZED FREE ENERGY PREDICTED BY IDOCK:   -4.97 KCAL/MOL
REMARK 922        TOTAL FREE ENERGY PREDICTED BY IDOCK:   -6.24 KCAL/MOL
REMARK 923 INTER-LIGAND FREE ENERGY PREDICTED BY IDOCK:   -5.57 KCAL/MOL
REMARK 924 INTRA-LIGAND FREE ENERGY PREDICTED BY IDOCK:   -0.67 KCAL/MOL
REMARK 927      BINDING AFFINITY PREDICTED BY RF-SCORE:    0.00 PKD
ROOT
HETATM    1  O   UNL     1      -8.534   9.567  67.926  1.00  0.00    -0.118 OA 
HETATM    2  C   UNL     1      -9.772   8.848  68.100  1.00  0.00    -0.160 C  
HETATM    3  H   UNL     1      -7.848   9.014  68.280  1.00  0.00     0.000 HD 
HETATM    4  C   UNL     1     -10.900   9.757  67.519  1.00  0.00    -0.286 C  
HETATM    5  C   UNL     1      -9.678   7.567  67.217  1.00  0.00    -0.217 C  
HETATM    6  C   UNL     1      -9.925   8.590  69.609  1.00  0.00    -0.192 A  
HETATM    7  C   UNL     1      -8.544   6.581  67.532  1.00  0.00    -0.119 C  
HETATM    8  C   UNL     1     -11.183   8.483  70.228  1.00  0.00    -0.185 A  
HETATM    9  C   UNL     1     -10.951   6.707  67.105  1.00  0.00    -0.478 C  
HETATM   10  C   UNL     1     -11.312   8.487  71.623  1.00  0.00    -0.362 A  
HETATM   11  C   UNL     1      -9.019   5.284  66.890  1.00  0.00    -0.109 C  
HETATM   12  C   UNL     1      -8.796   8.568  70.450  1.00  0.00    -0.157 A  
HETATM   13  C   UNL     1     -10.498   5.258  67.230  1.00  0.00    -0.236 C  
HETATM   14  C   UNL     1     -10.182   8.536  72.428  1.00  0.00    -0.369 A  
HETATM   15  C   UNL     1      -8.920   8.543  71.845  1.00  0.00    -0.301 A  
ENDROOT
BRANCH   4  16
HETATM   16  C   UNL     1     -11.068  11.116  68.221  1.00  0.00    -0.251 C  
BRANCH  16  17
HETATM   17  N   UNL     1     -10.261  12.194  67.607  1.00  0.00    -0.195 NA 
HETATM   18  C   UNL     1     -10.467  12.372  66.160  1.00  0.00    -0.248 C  
HETATM   19  C   UNL     1     -12.180  14.187  66.526  1.00  0.00    -0.463 C  
HETATM   20  C   UNL     1     -11.856  12.891  65.789  1.00  0.00    -0.469 C  
HETATM   21  C   UNL     1     -11.890  14.073  68.021  1.00  0.00    -0.403 C  
HETATM   22  C   UNL     1     -10.502  13.480  68.290  1.00  0.00    -0.253 C  
ENDBRANCH  16  17
ENDBRANCH   4  16
TORSDOF 2
ENDMDL
MODEL       45
REMARK 921   NORMALIZED FREE ENERGY PREDICTED BY IDOCK:   -4.94 KCAL/MOL
REMARK 922        TOTAL FREE ENERGY PREDICTED BY IDOCK:   -6.21 KCAL/MOL
REMARK 923 INTER-LIGAND FREE ENERGY PREDICTED BY IDOCK:   -6.42 KCAL/MOL
REMARK 924 INTRA-LIGAND FREE ENERGY PREDICTED BY IDOCK:    0.21 KCAL/MOL
REMARK 927      BINDING AFFINITY PREDICTED BY RF-SCORE:    0.00 PKD
ROOT
HETATM    1  O   UNL     1      -8.513  12.470  66.459  1.00  0.00    -0.401 OA 
HETATM    2  C   UNL     1      -9.802  13.113  66.492  1.00  0.00    -0.265 C  
HETATM    3  H   UNL     1      -8.676  11.543  66.326  1.00  0.00     0.000 HD 
HETATM    4  C   UNL     1      -9.534  14.635  66.712  1.00  0.00    -0.275 C  
HETATM    5  C   UNL     1     -10.434  12.931  65.079  1.00  0.00    -0.337 C  
HETATM    6  C   UNL     1     -10.589  12.469  67.647  1.00  0.00    -0.234 A  
HETATM    7  C   UNL     1     -10.668  11.492  64.598  1.00  0.00    -0.379 C  
HETATM    8  C   UNL     1     -11.571  13.171  68.368  1.00  0.00    -0.372 A  
HETATM    9  C   UNL     1     -11.755  13.676  64.808  1.00  0.00    -0.399 C  
HETATM   10  C   UNL     1     -12.107  12.659  69.557  1.00  0.00    -0.253 A  
HETATM   11  C   UNL     1     -11.706  11.656  63.495  1.00  0.00    -0.384 C  
HETATM   12  C   UNL     1     -10.266  11.176  68.099  1.00  0.00    -0.198 A  
HETATM   13  C   UNL     1     -12.656  12.691  64.072  1.00  0.00    -0.429 C  
HETATM   14  C   UNL     1     -11.717  11.408  70.017  1.00  0.00    -0.416 A  
HETATM   15  C   UNL     1     -10.821  10.649  69.273  1.00  0.00    -0.282 A  
ENDROOT
BRANCH   4  16
HETATM   16  C   UNL     1      -8.823  14.989  68.030  1.00  0.00    -0.165 C  
BRANCH  16  17
HETATM   17  N   UNL     1      -9.362  16.207  68.675  1.00  0.00    -0.212 NA 
HETATM   18  C   UNL     1      -8.398  17.310  68.815  1.00  0.00    -0.228 C  
HETATM   19  C   UNL     1      -9.168  18.390  66.670  1.00  0.00    -0.305 C  
HETATM   20  C   UNL     1      -7.964  17.931  67.486  1.00  0.00    -0.217 C  
HETATM   21  C   UNL     1     -10.237  17.303  66.579  1.00  0.00    -0.325 C  
HETATM   22  C   UNL     1     -10.552  16.697  67.951  1.00  0.00    -0.342 C  
ENDBRANCH  16  17
ENDBRANCH   4  16
TORSDOF 2
ENDMDL
MODEL       46
REMARK 921   NORMALIZED FREE ENERGY PREDICTED BY IDOCK:   -4.94 KCAL/MOL
REMARK 922        TOTAL FREE ENERGY PREDICTED BY IDOCK:   -6.21 KCAL/MOL
REMARK 923 INTER-LIGAND FREE ENERGY PREDICTED BY IDOCK:   -5.69 KCAL/MOL
REMARK 924 INTRA-LIGAND FREE ENERGY PREDICTED BY IDOCK:   -0.51 KCAL/MOL
REMARK 927      BINDING AFFINITY PREDICTED BY RF-SCORE:    0.00 PKD
ROOT
HETATM    1  O   UNL     1      -8.777  15.207  68.475  1.00  0.00    -0.158 OA 
HETATM    2  C   UNL     1     -10.102  14.785  68.094  1.00  0.00    -0.221 C  
HETATM    3  H   UNL     1      -8.509  14.644  69.192  1.00  0.00     0.000 HD 
HETATM    4  C   UNL     1     -10.542  15.710  66.917  1.00  0.00    -0.311 C  
HETATM    5  C   UNL     1      -9.972  13.331  67.546  1.00  0.00    -0.223 C  
HETATM    6  C   UNL     1     -10.990  14.935  69.341  1.00  0.00    -0.284 A  
HETATM    7  C   UNL     1      -9.426  12.267  68.509  1.00  0.00    -0.115 C  
HETATM    8  C   UNL     1     -12.367  15.208  69.253  1.00  0.00    -0.128 A  
HETATM    9  C   UNL     1     -11.234  12.711  66.919  1.00  0.00    -0.348 C  
HETATM   10  C   UNL     1     -13.111  15.574  70.382  1.00  0.00    -0.160 A  
HETATM   11  C   UNL     1      -9.892  10.958  67.884  1.00  0.00    -0.189 C  
HETATM   12  C   UNL     1     -10.424  14.918  70.630  1.00  0.00     0.232 A  
HETATM   13  C   UNL     1     -11.307  11.279  67.436  1.00  0.00    -0.349 C  
HETATM   14  C   UNL     1     -12.508  15.617  71.632  1.00  0.00    -0.503 A  
HETATM   15  C   UNL     1     -11.172  15.257  71.765  1.00  0.00    -0.364 A  
ENDROOT
BRANCH   4  16
HETATM   16  C   UNL     1     -10.632  17.207  67.263  1.00  0.00    -0.270 C  
BRANCH  16  17
HETATM   17  N   UNL     1      -9.982  18.077  66.257  1.00  0.00    -0.432 NA 
HETATM   18  C   UNL     1     -10.401  19.488  66.297  1.00  0.00    -0.506 C  
HETATM   19  C   UNL     1      -8.454  20.130  67.765  1.00  0.00    -0.311 C  
HETATM   20  C   UNL     1      -9.962  20.232  67.558  1.00  0.00    -0.557 C  
HETATM   21  C   UNL     1      -7.963  18.689  67.638  1.00  0.00    -0.261 C  
HETATM   22  C   UNL     1      -8.513  18.008  66.379  1.00  0.00    -0.235 C  
ENDBRANCH  16  17
ENDBRANCH   4  16
TORSDOF 2
ENDMDL
MODEL       47
REMARK 921   NORMALIZED FREE ENERGY PREDICTED BY IDOCK:   -4.92 KCAL/MOL
REMARK 922        TOTAL FREE ENERGY PREDICTED BY IDOCK:   -6.19 KCAL/MOL
REMARK 923 INTER-LIGAND FREE ENERGY PREDICTED BY IDOCK:   -5.86 KCAL/MOL
REMARK 924 INTRA-LIGAND FREE ENERGY PREDICTED BY IDOCK:   -0.33 KCAL/MOL
REMARK 927      BINDING AFFINITY PREDICTED BY RF-SCORE:    0.00 PKD
ROOT
HETATM    1  O   UNL     1     -12.153  10.791  68.320  1.00  0.00    -0.805 OA 
HETATM    2  C   UNL     1     -11.076  11.750  68.347  1.00  0.00    -0.237 C  
HETATM    3  H   UNL     1     -12.138  10.391  67.458  1.00  0.00     0.000 HD 
HETATM    4  C   UNL     1     -11.102  12.406  69.763  1.00  0.00     0.102 C  
HETATM    5  C   UNL     1      -9.750  10.943  68.210  1.00  0.00    -0.171 C  
HETATM    6  C   UNL     1     -11.349  12.754  67.214  1.00  0.00    -0.364 A  
HETATM    7  C   UNL     1      -9.567  10.108  66.935  1.00  0.00    -0.219 C  
HETATM    8  C   UNL     1     -10.926  14.093  67.280  1.00  0.00    -0.304 A  
HETATM    9  C   UNL     1      -8.437  11.732  68.375  1.00  0.00    -0.155 C  
HETATM   10  C   UNL     1     -11.381  15.048  66.362  1.00  0.00    -0.275 A  
HETATM   11  C   UNL     1      -8.062   9.887  66.872  1.00  0.00    -0.113 C  
HETATM   12  C   UNL     1     -12.144  12.389  66.110  1.00  0.00    -0.295 A  
HETATM   13  C   UNL     1      -7.503  11.240  67.277  1.00  0.00    -0.126 C  
HETATM   14  C   UNL     1     -12.221  14.672  65.322  1.00  0.00    -0.249 A  
HETATM   15  C   UNL     1     -12.578  13.336  65.175  1.00  0.00    -0.512 A  
ENDROOT
BRANCH   4  16
HETATM   16  C   UNL     1     -12.392  13.171  70.104  1.00  0.00    -0.213 C  
BRANCH  16  17
HETATM   17  N   UNL     1     -12.191  14.634  70.213  1.00  0.00    -0.311 NA 
HETATM   18  C   UNL     1     -13.430  15.421  70.331  1.00  0.00     0.122 C  
HETATM   19  C   UNL     1     -13.290  15.451  72.849  1.00  0.00    -0.636 C  
HETATM   20  C   UNL     1     -14.187  15.198  71.641  1.00  0.00    -0.664 C  
HETATM   21  C   UNL     1     -11.953  14.725  72.721  1.00  0.00    -0.244 C  
HETATM   22  C   UNL     1     -11.307  14.955  71.350  1.00  0.00    -0.189 C  
ENDBRANCH  16  17
ENDBRANCH   4  16
TORSDOF 2
ENDMDL
MODEL       48
REMARK 921   NORMALIZED FREE ENERGY PREDICTED BY IDOCK:   -4.91 KCAL/MOL
REMARK 922        TOTAL FREE ENERGY PREDICTED BY IDOCK:   -6.17 KCAL/MOL
REMARK 923 INTER-LIGAND FREE ENERGY PREDICTED BY IDOCK:   -5.56 KCAL/MOL
REMARK 924 INTRA-LIGAND FREE ENERGY PREDICTED BY IDOCK:   -0.61 KCAL/MOL
REMARK 927      BINDING AFFINITY PREDICTED BY RF-SCORE:    0.00 PKD
ROOT
HETATM    1  O   UNL     1      -9.076   9.749  70.527  1.00  0.00    -0.319 OA 
HETATM    2  C   UNL     1     -10.022   8.724  70.890  1.00  0.00    -0.222 C  
HETATM    3  H   UNL     1      -9.524  10.330  69.924  1.00  0.00     0.000 HD 
HETATM    4  C   UNL     1      -9.285   7.768  71.879  1.00  0.00    -0.182 C  
HETATM    5  C   UNL     1     -11.176   9.429  71.665  1.00  0.00    -0.431 C  
HETATM    6  C   UNL     1     -10.444   8.028  69.584  1.00  0.00    -0.224 A  
HETATM    7  C   UNL     1     -11.962  10.513  70.915  1.00  0.00    -0.481 C  
HETATM    8  C   UNL     1     -10.837   6.678  69.546  1.00  0.00    -0.339 A  
HETATM    9  C   UNL     1     -12.240   8.518  72.305  1.00  0.00    -0.454 C  
HETATM   10  C   UNL     1     -10.987   5.997  68.332  1.00  0.00    -0.340 A  
HETATM   11  C   UNL     1     -13.259  10.618  71.708  1.00  0.00    -0.526 C  
HETATM   12  C   UNL     1     -10.337   8.697  68.350  1.00  0.00    -0.239 A  
HETATM   13  C   UNL     1     -13.587   9.168  72.016  1.00  0.00    -0.520 C  
HETATM   14  C   UNL     1     -10.808   6.666  67.129  1.00  0.00    -0.471 A  
HETATM   15  C   UNL     1     -10.515   8.025  67.134  1.00  0.00    -0.408 A  
ENDROOT
BRANCH   4  16
HETATM   16  C   UNL     1      -8.051   7.054  71.299  1.00  0.00    -0.108 C  
BRANCH  16  17
HETATM   17  N   UNL     1      -6.805   7.841  71.434  1.00  0.00    -0.048 NA 
HETATM   18  C   UNL     1      -6.655   8.547  72.717  1.00  0.00    -0.064 C  
HETATM   19  C   UNL     1      -5.296   6.667  73.707  1.00  0.00    -0.042 C  
HETATM   20  C   UNL     1      -6.468   7.620  73.919  1.00  0.00    -0.087 C  
HETATM   21  C   UNL     1      -5.365   5.982  72.344  1.00  0.00    -0.026 C  
HETATM   22  C   UNL     1      -5.622   6.986  71.214  1.00  0.00    -0.028 C  
ENDBRANCH  16  17
ENDBRANCH   4  16
TORSDOF 2
ENDMDL
MODEL       49
REMARK 921   NORMALIZED FREE ENERGY PREDICTED BY IDOCK:   -4.89 KCAL/MOL
REMARK 922        TOTAL FREE ENERGY PREDICTED BY IDOCK:   -6.16 KCAL/MOL
REMARK 923 INTER-LIGAND FREE ENERGY PREDICTED BY IDOCK:   -5.54 KCAL/MOL
REMARK 924 INTRA-LIGAND FREE ENERGY PREDICTED BY IDOCK:   -0.62 KCAL/MOL
REMARK 927      BINDING AFFINITY PREDICTED BY RF-SCORE:    0.00 PKD
ROOT
HETATM    1  O   UNL     1     -12.327   7.186  71.361  1.00  0.00    -0.337 OA 
HETATM    2  C   UNL     1     -10.959   7.205  71.815  1.00  0.00    -0.229 C  
HETATM    3  H   UNL     1     -12.531   6.281  71.153  1.00  0.00     0.000 HD 
HETATM    4  C   UNL     1     -10.624   8.691  72.155  1.00  0.00    -0.411 C  
HETATM    5  C   UNL     1     -10.911   6.382  73.138  1.00  0.00    -0.249 C  
HETATM    6  C   UNL     1     -10.103   6.645  70.666  1.00  0.00    -0.205 A  
HETATM    7  C   UNL     1     -11.332   4.907  73.060  1.00  0.00    -0.354 C  
HETATM    8  C   UNL     1      -8.768   7.038  70.464  1.00  0.00    -0.153 A  
HETATM    9  C   UNL     1      -9.579   6.389  73.911  1.00  0.00    -0.199 C  
HETATM   10  C   UNL     1      -8.081   6.707  69.289  1.00  0.00    -0.116 A  
HETATM   11  C   UNL     1     -10.709   4.298  74.309  1.00  0.00    -0.268 C  
HETATM   12  C   UNL     1     -10.672   5.795  69.698  1.00  0.00    -0.416 A  
HETATM   13  C   UNL     1      -9.340   4.952  74.361  1.00  0.00    -0.130 C  
HETATM   14  C   UNL     1      -8.693   5.925  68.319  1.00  0.00    -0.112 A  
HETATM   15  C   UNL     1      -9.978   5.439  68.535  1.00  0.00    -0.223 A  
ENDROOT
BRANCH   4  16
HETATM   16  C   UNL     1     -10.717   9.668  70.971  1.00  0.00    -0.323 C  
BRANCH  16  17
HETATM   17  N   UNL     1     -12.103   9.883  70.498  1.00  0.00    -0.240 NA 
HETATM   18  C   UNL     1     -13.024  10.426  71.511  1.00  0.00    -0.458 C  
HETATM   19  C   UNL     1     -12.642  12.794  70.732  1.00  0.00    -0.308 C  
HETATM   20  C   UNL     1     -12.705  11.860  71.936  1.00  0.00    -0.214 C  
HETATM   21  C   UNL     1     -11.769  12.222  69.618  1.00  0.00    -0.386 C  
HETATM   22  C   UNL     1     -12.119  10.761  69.312  1.00  0.00    -0.207 C  
ENDBRANCH  16  17
ENDBRANCH   4  16
TORSDOF 2
ENDMDL
MODEL       50
REMARK 921   NORMALIZED FREE ENERGY PREDICTED BY IDOCK:   -4.88 KCAL/MOL
REMARK 922        TOTAL FREE ENERGY PREDICTED BY IDOCK:   -6.14 KCAL/MOL
REMARK 923 INTER-LIGAND FREE ENERGY PREDICTED BY IDOCK:   -5.56 KCAL/MOL
REMARK 924 INTRA-LIGAND FREE ENERGY PREDICTED BY IDOCK:   -0.58 KCAL/MOL
REMARK 927      BINDING AFFINITY PREDICTED BY RF-SCORE:    0.00 PKD
ROOT
HETATM    1  O   UNL     1      -9.048  14.496  69.784  1.00  0.00    -0.263 OA 
HETATM    2  C   UNL     1     -10.388  14.787  69.337  1.00  0.00    -0.160 C  
HETATM    3  H   UNL     1      -8.817  15.175  70.407  1.00  0.00     0.000 HD 
HETATM    4  C   UNL     1     -10.766  13.672  68.312  1.00  0.00    -0.266 C  
HETATM    5  C   UNL     1     -11.319  14.641  70.578  1.00  0.00    -0.209 C  
HETATM    6  C   UNL     1     -10.351  16.191  68.710  1.00  0.00    -0.248 A  
HETATM    7  C   UNL     1     -11.040  15.563  71.774  1.00  0.00    -0.237 C  
HETATM    8  C   UNL     1     -11.223  16.575  67.676  1.00  0.00    -0.038 A  
HETATM    9  C   UNL     1     -12.835  14.744  70.325  1.00  0.00    -0.263 C  
HETATM   10  C   UNL     1     -11.025  17.761  66.958  1.00  0.00     0.057 A  
HETATM   11  C   UNL     1     -12.353  15.542  72.546  1.00  0.00    -0.505 C  
HETATM   12  C   UNL     1      -9.351  17.113  69.078  1.00  0.00    -0.143 A  
HETATM   13  C   UNL     1     -13.397  15.610  71.445  1.00  0.00    -0.512 C  
HETATM   14  C   UNL     1      -9.987  18.619  67.299  1.00  0.00    -0.360 A  
HETATM   15  C   UNL     1      -9.168  18.313  68.381  1.00  0.00    -0.332 A  
ENDROOT
BRANCH   4  16
HETATM   16  C   UNL     1      -9.879  13.612  67.057  1.00  0.00    -0.251 C  
BRANCH  16  17
HETATM   17  N   UNL     1     -10.449  12.772  65.980  1.00  0.00    -0.269 NA 
HETATM   18  C   UNL     1     -11.902  12.557  66.067  1.00  0.00    -0.418 C  
HETATM   19  C   UNL     1     -12.381  14.475  64.501  1.00  0.00    -0.434 C  
HETATM   20  C   UNL     1     -12.733  13.819  65.833  1.00  0.00    -0.452 C  
HETATM   21  C   UNL     1     -10.872  14.631  64.331  1.00  0.00    -0.032 C  
HETATM   22  C   UNL     1     -10.123  13.333  64.654  1.00  0.00    -0.225 C  
ENDBRANCH  16  17
ENDBRANCH   4  16
TORSDOF 2
ENDMDL
MODEL       51
REMARK 921   NORMALIZED FREE ENERGY PREDICTED BY IDOCK:   -4.83 KCAL/MOL
REMARK 922        TOTAL FREE ENERGY PREDICTED BY IDOCK:   -6.08 KCAL/MOL
REMARK 923 INTER-LIGAND FREE ENERGY PREDICTED BY IDOCK:   -5.48 KCAL/MOL
REMARK 924 INTRA-LIGAND FREE ENERGY PREDICTED BY IDOCK:   -0.60 KCAL/MOL
REMARK 927      BINDING AFFINITY PREDICTED BY RF-SCORE:    0.00 PKD
ROOT
HETATM    1  O   UNL     1      -8.650  15.583  66.445  1.00  0.00    -0.294 OA 
HETATM    2  C   UNL     1      -8.914  16.291  67.673  1.00  0.00    -0.192 C  
HETATM    3  H   UNL     1      -9.436  15.656  65.916  1.00  0.00     0.000 HD 
HETATM    4  C   UNL     1      -7.623  16.171  68.542  1.00  0.00    -0.170 C  
HETATM    5  C   UNL     1      -9.108  17.791  67.297  1.00  0.00    -0.246 C  
HETATM    6  C   UNL     1     -10.137  15.616  68.318  1.00  0.00    -0.218 A  
HETATM    7  C   UNL     1     -10.256  18.128  66.335  1.00  0.00    -0.405 C  
HETATM    8  C   UNL     1     -10.331  15.589  69.711  1.00  0.00    -0.316 A  
HETATM    9  C   UNL     1      -9.243  18.787  68.464  1.00  0.00    -0.386 C  
HETATM   10  C   UNL     1     -11.311  14.776  70.294  1.00  0.00    -0.277 A  
HETATM   11  C   UNL     1     -10.489  19.614  66.575  1.00  0.00    -0.612 C  
HETATM   12  C   UNL     1     -11.055  14.895  67.531  1.00  0.00    -0.319 A  
HETATM   13  C   UNL     1     -10.372  19.738  68.084  1.00  0.00    -0.561 C  
HETATM   14  C   UNL     1     -12.159  14.020  69.494  1.00  0.00    -0.397 A  
HETATM   15  C   UNL     1     -12.054  14.103  68.110  1.00  0.00    -0.297 A  
ENDROOT
BRANCH   4  16
HETATM   16  C   UNL     1      -7.228  14.735  68.928  1.00  0.00    -0.126 C  
BRANCH  16  17
HETATM   17  N   UNL     1      -6.794  13.918  67.772  1.00  0.00    -0.163 NA 
HETATM   18  C   UNL     1      -5.409  13.427  67.848  1.00  0.00    -0.102 C  
HETATM   19  C   UNL     1      -6.138  11.222  68.831  1.00  0.00    -0.046 C  
HETATM   20  C   UNL     1      -5.173  12.397  68.953  1.00  0.00    -0.055 C  
HETATM   21  C   UNL     1      -7.580  11.692  68.656  1.00  0.00    -0.133 C  
HETATM   22  C   UNL     1      -7.702  12.771  67.574  1.00  0.00    -0.168 C  
ENDBRANCH  16  17
ENDBRANCH   4  16
TORSDOF 2
ENDMDL
MODEL       52
REMARK 921   NORMALIZED FREE ENERGY PREDICTED BY IDOCK:   -4.79 KCAL/MOL
REMARK 922        TOTAL FREE ENERGY PREDICTED BY IDOCK:   -6.04 KCAL/MOL
REMARK 923 INTER-LIGAND FREE ENERGY PREDICTED BY IDOCK:   -5.61 KCAL/MOL
REMARK 924 INTRA-LIGAND FREE ENERGY PREDICTED BY IDOCK:   -0.42 KCAL/MOL
REMARK 927      BINDING AFFINITY PREDICTED BY RF-SCORE:    0.00 PKD
ROOT
HETATM    1  O   UNL     1     -11.778   9.850  68.436  1.00  0.00    -0.534 OA 
HETATM    2  C   UNL     1     -10.419   9.632  68.865  1.00  0.00    -0.215 C  
HETATM    3  H   UNL     1     -12.249   9.043  68.607  1.00  0.00     0.000 HD 
HETATM    4  C   UNL     1      -9.646  10.957  68.584  1.00  0.00    -0.192 C  
HETATM    5  C   UNL     1     -10.464   9.414  70.408  1.00  0.00    -0.311 C  
HETATM    6  C   UNL     1      -9.884   8.440  68.053  1.00  0.00    -0.202 A  
HETATM    7  C   UNL     1     -11.288   8.226  70.924  1.00  0.00    -0.292 C  
HETATM    8  C   UNL     1      -8.523   8.302  67.731  1.00  0.00    -0.131 A  
HETATM    9  C   UNL     1      -9.109   9.320  71.135  1.00  0.00    -0.197 C  
HETATM   10  C   UNL     1      -8.086   7.351  66.800  1.00  0.00    -0.123 A  
HETATM   11  C   UNL     1     -10.732   7.994  72.323  1.00  0.00    -0.360 C  
HETATM   12  C   UNL     1     -10.770   7.495  67.500  1.00  0.00    -0.296 A  
HETATM   13  C   UNL     1      -9.236   8.171  72.128  1.00  0.00    -0.258 C  
HETATM   14  C   UNL     1      -8.994   6.477  66.217  1.00  0.00    -0.168 A  
HETATM   15  C   UNL     1     -10.333   6.524  66.591  1.00  0.00    -0.217 A  
ENDROOT
BRANCH   4  16
HETATM   16  C   UNL     1      -9.586  11.376  67.105  1.00  0.00    -0.179 C  
BRANCH  16  17
HETATM   17  N   UNL     1     -10.923  11.569  66.499  1.00  0.00    -0.293 NA 
HETATM   18  C   UNL     1     -11.701  12.684  67.061  1.00  0.00    -0.369 C  
HETATM   19  C   UNL     1     -10.917  14.270  65.263  1.00  0.00    -0.347 C  
HETATM   20  C   UNL     1     -11.116  14.065  66.761  1.00  0.00    -0.311 C  
HETATM   21  C   UNL     1     -10.194  13.087  64.623  1.00  0.00    -0.324 C  
HETATM   22  C   UNL     1     -10.812  11.747  65.038  1.00  0.00    -0.295 C  
ENDBRANCH  16  17
ENDBRANCH   4  16
TORSDOF 2
ENDMDL
MODEL       53
REMARK 921   NORMALIZED FREE ENERGY PREDICTED BY IDOCK:   -4.76 KCAL/MOL
REMARK 922        TOTAL FREE ENERGY PREDICTED BY IDOCK:   -6.01 KCAL/MOL
REMARK 923 INTER-LIGAND FREE ENERGY PREDICTED BY IDOCK:   -5.35 KCAL/MOL
REMARK 924 INTRA-LIGAND FREE ENERGY PREDICTED BY IDOCK:   -0.66 KCAL/MOL
REMARK 927      BINDING AFFINITY PREDICTED BY RF-SCORE:    0.00 PKD
ROOT
HETATM    1  O   UNL     1     -11.757   9.869  68.042  1.00  0.00    -0.531 OA 
HETATM    2  C   UNL     1     -10.478   9.913  68.705  1.00  0.00    -0.213 C  
HETATM    3  H   UNL     1     -11.949   8.952  67.883  1.00  0.00     0.000 HD 
HETATM    4  C   UNL     1     -10.163  11.419  68.965  1.00  0.00    -0.137 C  
HETATM    5  C   UNL     1     -10.662   9.210  70.085  1.00  0.00    -0.263 C  
HETATM    6  C   UNL     1      -9.466   9.242  67.761  1.00  0.00    -0.160 A  
HETATM    7  C   UNL     1     -11.103   7.740  70.068  1.00  0.00    -0.182 C  
HETATM    8  C   UNL     1      -8.106   9.600  67.742  1.00  0.00    -0.113 A  
HETATM    9  C   UNL     1      -9.469   9.271  71.058  1.00  0.00    -0.313 C  
HETATM   10  C   UNL     1      -7.250   9.157  66.725  1.00  0.00    -0.086 A  
HETATM   11  C   UNL     1     -10.702   7.238  71.449  1.00  0.00    -0.247 C  
HETATM   12  C   UNL     1      -9.896   8.316  66.792  1.00  0.00    -0.333 A  
HETATM   13  C   UNL     1      -9.342   7.878  71.663  1.00  0.00    -0.189 C  
HETATM   14  C   UNL     1      -7.721   8.298  65.741  1.00  0.00    -0.091 A  
HETATM   15  C   UNL     1      -9.036   7.849  65.790  1.00  0.00    -0.125 A  
ENDROOT
BRANCH   4  16
HETATM   16  C   UNL     1     -10.041  12.287  67.701  1.00  0.00    -0.200 C  
BRANCH  16  17
HETATM   17  N   UNL     1     -11.350  12.720  67.162  1.00  0.00    -0.296 NA 
HETATM   18  C   UNL     1     -11.674  14.138  67.388  1.00  0.00    -0.391 C  
HETATM   19  C   UNL     1     -10.787  14.805  65.123  1.00  0.00    -0.417 C  
HETATM   20  C   UNL     1     -10.780  15.111  66.617  1.00  0.00    -0.310 C  
HETATM   21  C   UNL     1     -10.547  13.322  64.849  1.00  0.00    -0.381 C  
HETATM   22  C   UNL     1     -11.441  12.429  65.718  1.00  0.00    -0.370 C  
ENDBRANCH  16  17
ENDBRANCH   4  16
TORSDOF 2
ENDMDL
MODEL       54
REMARK 921   NORMALIZED FREE ENERGY PREDICTED BY IDOCK:   -4.76 KCAL/MOL
REMARK 922        TOTAL FREE ENERGY PREDICTED BY IDOCK:   -6.00 KCAL/MOL
REMARK 923 INTER-LIGAND FREE ENERGY PREDICTED BY IDOCK:   -5.76 KCAL/MOL
REMARK 924 INTRA-LIGAND FREE ENERGY PREDICTED BY IDOCK:   -0.25 KCAL/MOL
REMARK 927      BINDING AFFINITY PREDICTED BY RF-SCORE:    0.00 PKD
ROOT
HETATM    1  O   UNL     1      -8.585  10.927  69.287  1.00  0.00    -0.339 OA 
HETATM    2  C   UNL     1      -9.860  10.620  68.687  1.00  0.00    -0.179 C  
HETATM    3  H   UNL     1      -7.969  11.033  68.572  1.00  0.00     0.000 HD 
HETATM    4  C   UNL     1     -10.873  10.446  69.862  1.00  0.00    -0.353 C  
HETATM    5  C   UNL     1     -10.284  11.874  67.863  1.00  0.00    -0.203 C  
HETATM    6  C   UNL     1      -9.665   9.335  67.866  1.00  0.00    -0.180 A  
HETATM    7  C   UNL     1      -9.353  12.311  66.724  1.00  0.00    -0.218 C  
HETATM    8  C   UNL     1     -10.709   8.418  67.648  1.00  0.00    -0.191 A  
HETATM    9  C   UNL     1     -11.699  11.857  67.254  1.00  0.00    -0.319 C  
HETATM   10  C   UNL     1     -10.463   7.149  67.108  1.00  0.00    -0.389 A  
HETATM   11  C   UNL     1     -10.251  13.172  65.847  1.00  0.00    -0.294 C  
HETATM   12  C   UNL     1      -8.388   8.973  67.395  1.00  0.00    -0.112 A  
HETATM   13  C   UNL     1     -11.559  12.400  65.837  1.00  0.00    -0.449 C  
HETATM   14  C   UNL     1      -9.179   6.793  66.716  1.00  0.00    -0.172 A  
HETATM   15  C   UNL     1      -8.145   7.715  66.828  1.00  0.00    -0.115 A  
ENDROOT
BRANCH   4  16
HETATM   16  C   UNL     1     -10.549   9.300  70.837  1.00  0.00    -0.296 C  
BRANCH  16  17
HETATM   17  N   UNL     1     -11.371   9.332  72.068  1.00  0.00    -0.284 NA 
HETATM   18  C   UNL     1     -12.644  10.060  71.942  1.00  0.00    -0.362 C  
HETATM   19  C   UNL     1     -13.919   7.946  71.428  1.00  0.00    -0.384 C  
HETATM   20  C   UNL     1     -13.656   9.389  71.012  1.00  0.00    -0.120 C  
HETATM   21  C   UNL     1     -12.618   7.179  71.661  1.00  0.00    -0.410 C  
HETATM   22  C   UNL     1     -11.644   7.963  72.548  1.00  0.00    -0.386 C  
ENDBRANCH  16  17
ENDBRANCH   4  16
TORSDOF 2
ENDMDL
MODEL       55
REMARK 921   NORMALIZED FREE ENERGY PREDICTED BY IDOCK:   -4.71 KCAL/MOL
REMARK 922        TOTAL FREE ENERGY PREDICTED BY IDOCK:   -5.95 KCAL/MOL
REMARK 923 INTER-LIGAND FREE ENERGY PREDICTED BY IDOCK:   -5.54 KCAL/MOL
REMARK 924 INTRA-LIGAND FREE ENERGY PREDICTED BY IDOCK:   -0.41 KCAL/MOL
REMARK 927      BINDING AFFINITY PREDICTED BY RF-SCORE:    0.00 PKD
ROOT
HETATM    1  O   UNL     1      -9.665   9.846  65.220  1.00  0.00    -0.281 OA 
HETATM    2  C   UNL     1      -9.928  10.600  66.420  1.00  0.00    -0.222 C  
HETATM    3  H   UNL     1      -9.008   9.197  65.447  1.00  0.00     0.000 HD 
HETATM    4  C   UNL     1     -11.006  11.666  66.048  1.00  0.00    -0.338 C  
HETATM    5  C   UNL     1     -10.559   9.610  67.446  1.00  0.00    -0.333 C  
HETATM    6  C   UNL     1      -8.591  11.224  66.854  1.00  0.00    -0.150 A  
HETATM    7  C   UNL     1      -9.712   8.399  67.861  1.00  0.00    -0.189 C  
HETATM    8  C   UNL     1      -8.523  12.441  67.555  1.00  0.00    -0.175 A  
HETATM    9  C   UNL     1     -11.083  10.215  68.762  1.00  0.00    -0.250 C  
HETATM   10  C   UNL     1      -7.306  13.112  67.734  1.00  0.00    -0.143 A  
HETATM   11  C   UNL     1     -10.350   7.957  69.171  1.00  0.00    -0.225 C  
HETATM   12  C   UNL     1      -7.369  10.648  66.455  1.00  0.00    -0.134 A  
HETATM   13  C   UNL     1     -10.634   9.273  69.873  1.00  0.00    -0.246 C  
HETATM   14  C   UNL     1      -6.124  12.552  67.268  1.00  0.00    -0.119 A  
HETATM   15  C   UNL     1      -6.148  11.303  66.657  1.00  0.00    -0.143 A  
ENDROOT
BRANCH   4  16
HETATM   16  C   UNL     1     -10.579  12.676  64.969  1.00  0.00    -0.303 C  
BRANCH  16  17
HETATM   17  N   UNL     1     -11.479  13.847  64.877  1.00  0.00    -0.336 NA 
HETATM   18  C   UNL     1     -12.481  13.942  65.951  1.00  0.00    -0.481 C  
HETATM   19  C   UNL     1     -11.016  15.471  67.321  1.00  0.00    -0.303 C  
HETATM   20  C   UNL     1     -11.888  14.220  67.333  1.00  0.00    -0.441 C  
HETATM   21  C   UNL     1     -10.022  15.455  66.162  1.00  0.00    -0.330 C  
HETATM   22  C   UNL     1     -10.700  15.101  64.833  1.00  0.00    -0.398 C  
ENDBRANCH  16  17
ENDBRANCH   4  16
TORSDOF 2
ENDMDL
MODEL       56
REMARK 921   NORMALIZED FREE ENERGY PREDICTED BY IDOCK:   -4.70 KCAL/MOL
REMARK 922        TOTAL FREE ENERGY PREDICTED BY IDOCK:   -5.94 KCAL/MOL
REMARK 923 INTER-LIGAND FREE ENERGY PREDICTED BY IDOCK:   -5.32 KCAL/MOL
REMARK 924 INTRA-LIGAND FREE ENERGY PREDICTED BY IDOCK:   -0.62 KCAL/MOL
REMARK 927      BINDING AFFINITY PREDICTED BY RF-SCORE:    0.00 PKD
ROOT
HETATM    1  O   UNL     1     -11.606  11.155  66.843  1.00  0.00    -0.428 OA 
HETATM    2  C   UNL     1     -10.404  10.833  67.571  1.00  0.00    -0.206 C  
HETATM    3  H   UNL     1     -11.982  11.918  67.265  1.00  0.00     0.000 HD 
HETATM    4  C   UNL     1      -9.787   9.578  66.878  1.00  0.00    -0.262 C  
HETATM    5  C   UNL     1      -9.423  12.028  67.374  1.00  0.00    -0.177 C  
HETATM    6  C   UNL     1     -10.826  10.569  69.027  1.00  0.00    -0.272 A  
HETATM    7  C   UNL     1      -9.888  13.404  67.871  1.00  0.00    -0.237 C  
HETATM    8  C   UNL     1     -10.120   9.687  69.864  1.00  0.00    -0.279 A  
HETATM    9  C   UNL     1      -7.996  11.852  67.925  1.00  0.00    -0.144 C  
HETATM   10  C   UNL     1     -10.644   9.275  71.096  1.00  0.00    -0.402 A  
HETATM   11  C   UNL     1      -8.588  14.187  68.003  1.00  0.00    -0.172 C  
HETATM   12  C   UNL     1     -12.016  11.121  69.539  1.00  0.00    -0.425 A  
HETATM   13  C   UNL     1      -7.637  13.168  68.607  1.00  0.00    -0.089 C  
HETATM   14  C   UNL     1     -11.855   9.785  71.545  1.00  0.00    -0.476 A  
HETATM   15  C   UNL     1     -12.528  10.733  70.783  1.00  0.00    -0.481 A  
ENDROOT
BRANCH   4  16
HETATM   16  C   UNL     1     -10.673   8.321  66.898  1.00  0.00    -0.109 C  
BRANCH  16  17
HETATM   17  N   UNL     1      -9.926   7.076  66.607  1.00  0.00    -0.181 NA 
HETATM   18  C   UNL     1      -8.536   7.062  67.093  1.00  0.00    -0.121 C  
HETATM   19  C   UNL     1      -9.188   5.892  69.229  1.00  0.00    -0.134 C  
HETATM   20  C   UNL     1      -8.409   7.052  68.616  1.00  0.00    -0.122 C  
HETATM   21  C   UNL     1     -10.611   5.815  68.680  1.00  0.00    -0.305 C  
HETATM   22  C   UNL     1     -10.637   5.902  67.150  1.00  0.00    -0.299 C  
ENDBRANCH  16  17
ENDBRANCH   4  16
TORSDOF 2
ENDMDL
MODEL       57
REMARK 921   NORMALIZED FREE ENERGY PREDICTED BY IDOCK:   -4.69 KCAL/MOL
REMARK 922        TOTAL FREE ENERGY PREDICTED BY IDOCK:   -5.93 KCAL/MOL
REMARK 923 INTER-LIGAND FREE ENERGY PREDICTED BY IDOCK:   -5.37 KCAL/MOL
REMARK 924 INTRA-LIGAND FREE ENERGY PREDICTED BY IDOCK:   -0.56 KCAL/MOL
REMARK 927      BINDING AFFINITY PREDICTED BY RF-SCORE:    0.00 PKD
ROOT
HETATM    1  O   UNL     1     -10.065  15.764  68.521  1.00  0.00    -0.210 OA 
HETATM    2  C   UNL     1      -9.498  16.548  67.452  1.00  0.00    -0.228 C  
HETATM    3  H   UNL     1      -9.843  16.209  69.330  1.00  0.00     0.000 HD 
HETATM    4  C   UNL     1      -9.863  15.817  66.122  1.00  0.00    -0.341 C  
HETATM    5  C   UNL     1     -10.230  17.925  67.466  1.00  0.00    -0.366 C  
HETATM    6  C   UNL     1      -7.982  16.613  67.706  1.00  0.00    -0.182 A  
HETATM    7  C   UNL     1     -10.114  18.767  68.744  1.00  0.00    -0.407 C  
HETATM    8  C   UNL     1      -7.051  16.736  66.660  1.00  0.00    -0.275 A  
HETATM    9  C   UNL     1      -9.915  18.890  66.307  1.00  0.00    -0.429 C  
HETATM   10  C   UNL     1      -5.679  16.556  66.880  1.00  0.00    -0.054 A  
HETATM   11  C   UNL     1     -10.465  20.171  68.272  1.00  0.00    -0.357 C  
HETATM   12  C   UNL     1      -7.466  16.433  69.003  1.00  0.00    -0.227 A  
HETATM   13  C   UNL     1      -9.753  20.269  66.934  1.00  0.00    -0.584 C  
HETATM   14  C   UNL     1      -5.204  16.310  68.161  1.00  0.00    -0.106 A  
HETATM   15  C   UNL     1      -6.092  16.281  69.231  1.00  0.00    -0.161 A  
ENDROOT
BRANCH   4  16
HETATM   16  C   UNL     1      -9.294  14.394  65.983  1.00  0.00    -0.132 C  
BRANCH  16  17
HETATM   17  N   UNL     1     -10.096  13.374  66.695  1.00  0.00    -0.269 NA 
HETATM   18  C   UNL     1     -10.634  12.303  65.839  1.00  0.00    -0.256 C  
HETATM   19  C   UNL     1      -8.686  10.784  66.343  1.00  0.00    -0.163 C  
HETATM   20  C   UNL     1      -9.566  11.381  65.250  1.00  0.00    -0.256 C  
HETATM   21  C   UNL     1      -8.182  11.853  67.310  1.00  0.00    -0.170 C  
HETATM   22  C   UNL     1      -9.315  12.767  67.790  1.00  0.00    -0.199 C  
ENDBRANCH  16  17
ENDBRANCH   4  16
TORSDOF 2
ENDMDL
MODEL       58
REMARK 921   NORMALIZED FREE ENERGY PREDICTED BY IDOCK:   -4.68 KCAL/MOL
REMARK 922        TOTAL FREE ENERGY PREDICTED BY IDOCK:   -5.92 KCAL/MOL
REMARK 923 INTER-LIGAND FREE ENERGY PREDICTED BY IDOCK:   -5.32 KCAL/MOL
REMARK 924 INTRA-LIGAND FREE ENERGY PREDICTED BY IDOCK:   -0.60 KCAL/MOL
REMARK 927      BINDING AFFINITY PREDICTED BY RF-SCORE:    0.00 PKD
ROOT
HETATM    1  O   UNL     1     -12.203  11.982  67.814  1.00  0.00    -0.474 OA 
HETATM    2  C   UNL     1     -11.031  11.839  66.987  1.00  0.00    -0.285 C  
HETATM    3  H   UNL     1     -12.633  12.783  67.538  1.00  0.00     0.000 HD 
HETATM    4  C   UNL     1     -10.323  10.524  67.441  1.00  0.00    -0.269 C  
HETATM    5  C   UNL     1     -11.533  11.639  65.525  1.00  0.00    -0.168 C  
HETATM    6  C   UNL     1     -10.171  13.094  67.215  1.00  0.00    -0.243 A  
HETATM    7  C   UNL     1     -12.373  12.769  64.913  1.00  0.00    -0.551 C  
HETATM    8  C   UNL     1      -8.770  13.075  67.097  1.00  0.00    -0.204 A  
HETATM    9  C   UNL     1     -10.468  11.299  64.466  1.00  0.00    -0.396 C  
HETATM   10  C   UNL     1      -7.987  14.151  67.535  1.00  0.00    -0.202 A  
HETATM   11  C   UNL     1     -12.261  12.518  63.415  1.00  0.00    -0.613 C  
HETATM   12  C   UNL     1     -10.758  14.291  67.669  1.00  0.00    -0.259 A  
HETATM   13  C   UNL     1     -10.800  12.143  63.241  1.00  0.00    -0.381 C  
HETATM   14  C   UNL     1      -8.592  15.293  68.044  1.00  0.00    -0.152 A  
HETATM   15  C   UNL     1      -9.979  15.379  68.081  1.00  0.00    -0.221 A  
ENDROOT
BRANCH   4  16
HETATM   16  C   UNL     1      -9.843  10.514  68.903  1.00  0.00    -0.201 C  
BRANCH  16  17
HETATM   17  N   UNL     1      -8.915   9.401  69.204  1.00  0.00    -0.142 NA 
HETATM   18  C   UNL     1      -8.180   8.878  68.042  1.00  0.00    -0.110 C  
HETATM   19  C   UNL     1      -6.188  10.353  68.510  1.00  0.00    -0.047 C  
HETATM   20  C   UNL     1      -7.169   9.861  67.450  1.00  0.00    -0.086 C  
HETATM   21  C   UNL     1      -6.909  10.819  69.773  1.00  0.00    -0.151 C  
HETATM   22  C   UNL     1      -7.948   9.797  70.247  1.00  0.00    -0.162 C  
ENDBRANCH  16  17
ENDBRANCH   4  16
TORSDOF 2
ENDMDL
MODEL       59
REMARK 921   NORMALIZED FREE ENERGY PREDICTED BY IDOCK:   -4.68 KCAL/MOL
REMARK 922        TOTAL FREE ENERGY PREDICTED BY IDOCK:   -5.92 KCAL/MOL
REMARK 923 INTER-LIGAND FREE ENERGY PREDICTED BY IDOCK:   -5.24 KCAL/MOL
REMARK 924 INTRA-LIGAND FREE ENERGY PREDICTED BY IDOCK:   -0.68 KCAL/MOL
REMARK 927      BINDING AFFINITY PREDICTED BY RF-SCORE:    0.00 PKD
ROOT
HETATM    1  O   UNL     1      -9.232   8.270  71.530  1.00  0.00    -0.148 OA 
HETATM    2  C   UNL     1     -10.060   7.098  71.391  1.00  0.00    -0.188 C  
HETATM    3  H   UNL     1      -9.347   8.579  72.421  1.00  0.00     0.000 HD 
HETATM    4  C   UNL     1      -9.871   6.592  69.927  1.00  0.00    -0.185 C  
HETATM    5  C   UNL     1      -9.480   6.020  72.356  1.00  0.00    -0.153 C  
HETATM    6  C   UNL     1     -11.503   7.536  71.694  1.00  0.00    -0.292 A  
HETATM    7  C   UNL     1      -9.446   6.364  73.851  1.00  0.00    -0.178 C  
HETATM    8  C   UNL     1     -12.616   6.905  71.111  1.00  0.00    -0.366 A  
HETATM    9  C   UNL     1     -10.096   4.610  72.272  1.00  0.00    -0.250 C  
HETATM   10  C   UNL     1     -13.900   7.458  71.207  1.00  0.00    -0.357 A  
HETATM   11  C   UNL     1      -9.329   5.002  74.522  1.00  0.00    -0.133 C  
HETATM   12  C   UNL     1     -11.755   8.673  72.486  1.00  0.00    -0.330 A  
HETATM   13  C   UNL     1     -10.279   4.140  73.710  1.00  0.00    -0.214 C  
HETATM   14  C   UNL     1     -14.107   8.620  71.938  1.00  0.00    -0.512 A  
HETATM   15  C   UNL     1     -13.041   9.212  72.606  1.00  0.00    -0.345 A  
ENDROOT
BRANCH   4  16
HETATM   16  C   UNL     1     -10.309   7.581  68.833  1.00  0.00    -0.211 C  
BRANCH  16  17
HETATM   17  N   UNL     1      -9.375   8.717  68.666  1.00  0.00    -0.141 NA 
HETATM   18  C   UNL     1      -8.538   8.657  67.457  1.00  0.00    -0.135 C  
HETATM   19  C   UNL     1     -10.146  10.093  66.149  1.00  0.00    -0.314 C  
HETATM   20  C   UNL     1      -9.318   8.812  66.151  1.00  0.00    -0.297 C  
HETATM   21  C   UNL     1     -10.961  10.240  67.433  1.00  0.00    -0.317 C  
HETATM   22  C   UNL     1     -10.106  10.000  68.682  1.00  0.00    -0.172 C  
ENDBRANCH  16  17
ENDBRANCH   4  16
TORSDOF 2
ENDMDL
MODEL       60
REMARK 921   NORMALIZED FREE ENERGY PREDICTED BY IDOCK:   -4.66 KCAL/MOL
REMARK 922        TOTAL FREE ENERGY PREDICTED BY IDOCK:   -5.90 KCAL/MOL
REMARK 923 INTER-LIGAND FREE ENERGY PREDICTED BY IDOCK:   -5.40 KCAL/MOL
REMARK 924 INTRA-LIGAND FREE ENERGY PREDICTED BY IDOCK:   -0.49 KCAL/MOL
REMARK 927      BINDING AFFINITY PREDICTED BY RF-SCORE:    0.00 PKD
ROOT
HETATM    1  O   UNL     1      -8.673  12.638  67.574  1.00  0.00    -0.164 OA 
HETATM    2  C   UNL     1     -10.013  13.078  67.875  1.00  0.00    -0.230 C  
HETATM    3  H   UNL     1      -8.298  13.289  66.993  1.00  0.00     0.000 HD 
HETATM    4  C   UNL     1     -10.629  12.007  68.829  1.00  0.00    -0.237 C  
HETATM    5  C   UNL     1      -9.881  14.415  68.666  1.00  0.00    -0.231 C  
HETATM    6  C   UNL     1     -10.756  13.185  66.532  1.00  0.00    -0.288 A  
HETATM    7  C   UNL     1      -9.180  15.582  67.957  1.00  0.00    -0.187 C  
HETATM    8  C   UNL     1     -12.144  12.990  66.425  1.00  0.00    -0.428 A  
HETATM    9  C   UNL     1     -11.179  15.007  69.248  1.00  0.00    -0.297 C  
HETATM   10  C   UNL     1     -12.767  12.856  65.178  1.00  0.00    -0.443 A  
HETATM   11  C   UNL     1      -9.655  16.802  68.736  1.00  0.00    -0.260 C  
HETATM   12  C   UNL     1     -10.042  13.371  65.332  1.00  0.00    -0.270 A  
HETATM   13  C   UNL     1     -11.125  16.505  68.970  1.00  0.00    -0.284 C  
HETATM   14  C   UNL     1     -12.025  12.974  64.010  1.00  0.00    -0.523 A  
HETATM   15  C   UNL     1     -10.668  13.265  64.084  1.00  0.00    -0.350 A  
ENDROOT
BRANCH   4  16
HETATM   16  C   UNL     1     -10.745  10.593  68.234  1.00  0.00    -0.219 C  
BRANCH  16  17
HETATM   17  N   UNL     1     -10.450   9.523  69.212  1.00  0.00    -0.205 NA 
HETATM   18  C   UNL     1     -10.409   8.164  68.647  1.00  0.00    -0.200 C  
HETATM   19  C   UNL     1      -7.906   8.256  68.349  1.00  0.00    -0.118 C  
HETATM   20  C   UNL     1      -9.241   7.923  67.690  1.00  0.00    -0.147 C  
HETATM   21  C   UNL     1      -7.938   9.623  69.030  1.00  0.00    -0.088 C  
HETATM   22  C   UNL     1      -9.179   9.792  69.913  1.00  0.00    -0.234 C  
ENDBRANCH  16  17
ENDBRANCH   4  16
TORSDOF 2
ENDMDL
MODEL       61
REMARK 921   NORMALIZED FREE ENERGY PREDICTED BY IDOCK:   -4.65 KCAL/MOL
REMARK 922        TOTAL FREE ENERGY PREDICTED BY IDOCK:   -5.89 KCAL/MOL
REMARK 923 INTER-LIGAND FREE ENERGY PREDICTED BY IDOCK:   -5.41 KCAL/MOL
REMARK 924 INTRA-LIGAND FREE ENERGY PREDICTED BY IDOCK:   -0.48 KCAL/MOL
REMARK 927      BINDING AFFINITY PREDICTED BY RF-SCORE:    0.00 PKD
ROOT
HETATM    1  O   UNL     1      -8.891  14.182  68.079  1.00  0.00    -0.166 OA 
HETATM    2  C   UNL     1     -10.228  13.680  68.277  1.00  0.00    -0.243 C  
HETATM    3  H   UNL     1      -8.968  15.123  67.975  1.00  0.00     0.000 HD 
HETATM    4  C   UNL     1     -10.102  12.134  68.447  1.00  0.00    -0.210 C  
HETATM    5  C   UNL     1     -10.738  14.277  69.625  1.00  0.00    -0.034 C  
HETATM    6  C   UNL     1     -11.042  14.085  67.036  1.00  0.00    -0.312 A  
HETATM    7  C   UNL     1     -10.818  15.806  69.727  1.00  0.00    -0.314 C  
HETATM    8  C   UNL     1     -12.128  13.323  66.570  1.00  0.00    -0.435 A  
HETATM    9  C   UNL     1     -12.092  13.758  70.145  1.00  0.00    -0.429 C  
HETATM   10  C   UNL     1     -12.706  13.566  65.318  1.00  0.00    -0.481 A  
HETATM   11  C   UNL     1     -11.782  16.030  70.885  1.00  0.00    -0.438 C  
HETATM   12  C   UNL     1     -10.647  15.183  66.248  1.00  0.00    -0.312 A  
HETATM   13  C   UNL     1     -12.853  14.981  70.643  1.00  0.00    -0.413 C  
HETATM   14  C   UNL     1     -12.249  14.615  64.530  1.00  0.00    -0.473 A  
HETATM   15  C   UNL     1     -11.241  15.446  65.007  1.00  0.00    -0.393 A  
ENDROOT
BRANCH   4  16
HETATM   16  C   UNL     1      -9.521  11.390  67.232  1.00  0.00    -0.167 C  
BRANCH  16  17
HETATM   17  N   UNL     1      -8.755  10.179  67.602  1.00  0.00    -0.122 NA 
HETATM   18  C   UNL     1      -8.015   9.553  66.494  1.00  0.00    -0.112 C  
HETATM   19  C   UNL     1      -5.895  10.786  67.081  1.00  0.00    -0.050 C  
HETATM   20  C   UNL     1      -6.858  10.399  65.962  1.00  0.00    -0.128 C  
HETATM   21  C   UNL     1      -6.634  11.354  68.290  1.00  0.00    -0.058 C  
HETATM   22  C   UNL     1      -7.817  10.471  68.703  1.00  0.00    -0.116 C  
ENDBRANCH  16  17
ENDBRANCH   4  16
TORSDOF 2
ENDMDL
MODEL       62
REMARK 921   NORMALIZED FREE ENERGY PREDICTED BY IDOCK:   -4.65 KCAL/MOL
REMARK 922        TOTAL FREE ENERGY PREDICTED BY IDOCK:   -5.89 KCAL/MOL
REMARK 923 INTER-LIGAND FREE ENERGY PREDICTED BY IDOCK:   -5.49 KCAL/MOL
REMARK 924 INTRA-LIGAND FREE ENERGY PREDICTED BY IDOCK:   -0.39 KCAL/MOL
REMARK 927      BINDING AFFINITY PREDICTED BY RF-SCORE:    0.00 PKD
ROOT
HETATM    1  O   UNL     1     -12.235   6.711  71.580  1.00  0.00    -0.343 OA 
HETATM    2  C   UNL     1     -11.421   7.757  71.012  1.00  0.00    -0.281 C  
HETATM    3  H   UNL     1     -12.478   7.000  72.452  1.00  0.00     0.000 HD 
HETATM    4  C   UNL     1     -11.021   7.281  69.581  1.00  0.00    -0.204 C  
HETATM    5  C   UNL     1     -12.334   9.012  70.869  1.00  0.00    -0.159 C  
HETATM    6  C   UNL     1     -10.211   7.933  71.946  1.00  0.00    -0.258 A  
HETATM    7  C   UNL     1     -12.951   9.579  72.156  1.00  0.00    -0.497 C  
HETATM    8  C   UNL     1      -8.959   8.371  71.478  1.00  0.00    -0.251 A  
HETATM    9  C   UNL     1     -11.737  10.224  70.131  1.00  0.00    -0.364 C  
HETATM   10  C   UNL     1      -7.815   8.300  72.283  1.00  0.00    -0.176 A  
HETATM   11  C   UNL     1     -13.323  11.004  71.768  1.00  0.00    -0.400 C  
HETATM   12  C   UNL     1     -10.288   7.546  73.298  1.00  0.00    -0.412 A  
HETATM   13  C   UNL     1     -12.133  11.453  70.940  1.00  0.00    -0.383 C  
HETATM   14  C   UNL     1      -7.909   7.848  73.593  1.00  0.00    -0.217 A  
HETATM   15  C   UNL     1      -9.151   7.502  74.114  1.00  0.00    -0.249 A  
ENDROOT
BRANCH   4  16
HETATM   16  C   UNL     1     -10.188   5.989  69.532  1.00  0.00    -0.208 C  
BRANCH  16  17
HETATM   17  N   UNL     1      -9.135   6.013  68.491  1.00  0.00    -0.113 NA 
HETATM   18  C   UNL     1      -8.496   4.713  68.229  1.00  0.00    -0.097 C  
HETATM   19  C   UNL     1     -10.053   4.221  66.308  1.00  0.00    -0.196 C  
HETATM   20  C   UNL     1      -9.424   3.681  67.588  1.00  0.00    -0.234 C  
HETATM   21  C   UNL     1     -10.648   5.612  66.514  1.00  0.00    -0.320 C  
HETATM   22  C   UNL     1      -9.667   6.552  67.224  1.00  0.00    -0.132 C  
ENDBRANCH  16  17
ENDBRANCH   4  16
TORSDOF 2
ENDMDL
MODEL       63
REMARK 921   NORMALIZED FREE ENERGY PREDICTED BY IDOCK:   -4.61 KCAL/MOL
REMARK 922        TOTAL FREE ENERGY PREDICTED BY IDOCK:   -5.84 KCAL/MOL
REMARK 923 INTER-LIGAND FREE ENERGY PREDICTED BY IDOCK:   -5.15 KCAL/MOL
REMARK 924 INTRA-LIGAND FREE ENERGY PREDICTED BY IDOCK:   -0.70 KCAL/MOL
REMARK 927      BINDING AFFINITY PREDICTED BY RF-SCORE:    0.00 PKD
ROOT
HETATM    1  O   UNL     1     -11.020   8.436  68.256  1.00  0.00    -0.447 OA 
HETATM    2  C   UNL     1     -10.385   8.745  69.513  1.00  0.00    -0.213 C  
HETATM    3  H   UNL     1     -11.002   7.490  68.170  1.00  0.00     0.000 HD 
HETATM    4  C   UNL     1     -10.414  10.299  69.655  1.00  0.00    -0.286 C  
HETATM    5  C   UNL     1     -11.282   8.139  70.634  1.00  0.00    -0.268 C  
HETATM    6  C   UNL     1      -8.958   8.175  69.440  1.00  0.00    -0.147 A  
HETATM    7  C   UNL     1     -11.501   6.619  70.610  1.00  0.00    -0.420 C  
HETATM    8  C   UNL     1      -7.883   8.751  70.141  1.00  0.00    -0.094 A  
HETATM    9  C   UNL     1     -10.900   8.476  72.087  1.00  0.00    -0.427 C  
HETATM   10  C   UNL     1      -6.559   8.373  69.883  1.00  0.00    -0.038 A  
HETATM   11  C   UNL     1     -11.947   6.307  72.032  1.00  0.00    -0.353 C  
HETATM   12  C   UNL     1      -8.655   7.114  68.566  1.00  0.00    -0.124 A  
HETATM   13  C   UNL     1     -11.032   7.178  72.875  1.00  0.00    -0.359 C  
HETATM   14  C   UNL     1      -6.286   7.370  68.963  1.00  0.00    -0.035 A  
HETATM   15  C   UNL     1      -7.334   6.715  68.327  1.00  0.00    -0.090 A  
ENDROOT
BRANCH   4  16
HETATM   16  C   UNL     1      -9.648  11.068  68.564  1.00  0.00    -0.187 C  
BRANCH  16  17
HETATM   17  N   UNL     1     -10.433  11.257  67.323  1.00  0.00    -0.204 NA 
HETATM   18  C   UNL     1     -11.760  11.864  67.517  1.00  0.00    -0.265 C  
HETATM   19  C   UNL     1     -10.883  14.178  67.035  1.00  0.00    -0.295 C  
HETATM   20  C   UNL     1     -11.716  13.320  67.981  1.00  0.00    -0.394 C  
HETATM   21  C   UNL     1      -9.531  13.536  66.733  1.00  0.00    -0.272 C  
HETATM   22  C   UNL     1      -9.674  12.060  66.344  1.00  0.00    -0.225 C  
ENDBRANCH  16  17
ENDBRANCH   4  16
TORSDOF 2
ENDMDL
MODEL       64
REMARK 921   NORMALIZED FREE ENERGY PREDICTED BY IDOCK:   -4.60 KCAL/MOL
REMARK 922        TOTAL FREE ENERGY PREDICTED BY IDOCK:   -5.82 KCAL/MOL
REMARK 923 INTER-LIGAND FREE ENERGY PREDICTED BY IDOCK:   -5.23 KCAL/MOL
REMARK 924 INTRA-LIGAND FREE ENERGY PREDICTED BY IDOCK:   -0.59 KCAL/MOL
REMARK 927      BINDING AFFINITY PREDICTED BY RF-SCORE:    0.00 PKD
ROOT
HETATM    1  O   UNL     1     -11.087  14.045  68.648  1.00  0.00    -0.243 OA 
HETATM    2  C   UNL     1     -10.278  13.967  67.457  1.00  0.00    -0.245 C  
HETATM    3  H   UNL     1     -11.855  14.554  68.420  1.00  0.00     0.000 HD 
HETATM    4  C   UNL     1      -9.015  13.130  67.831  1.00  0.00    -0.200 C  
HETATM    5  C   UNL     1     -11.100  13.161  66.405  1.00  0.00    -0.311 C  
HETATM    6  C   UNL     1      -9.943  15.413  67.053  1.00  0.00    -0.239 A  
HETATM    7  C   UNL     1     -12.457  13.742  65.983  1.00  0.00    -0.491 C  
HETATM    8  C   UNL     1      -8.758  15.747  66.373  1.00  0.00    -0.372 A  
HETATM    9  C   UNL     1     -10.381  12.799  65.092  1.00  0.00    -0.314 C  
HETATM   10  C   UNL     1      -8.355  17.080  66.224  1.00  0.00    -0.308 A  
HETATM   11  C   UNL     1     -12.738  13.049  64.656  1.00  0.00    -0.367 C  
HETATM   12  C   UNL     1     -10.768  16.479  67.460  1.00  0.00    -0.283 A  
HETATM   13  C   UNL     1     -11.382  13.060  63.973  1.00  0.00    -0.458 C  
HETATM   14  C   UNL     1      -9.157  18.110  66.697  1.00  0.00    -0.290 A  
HETATM   15  C   UNL     1     -10.381  17.814  67.287  1.00  0.00    -0.364 A  
ENDROOT
BRANCH   4  16
HETATM   16  C   UNL     1      -8.131  13.740  68.933  1.00  0.00     0.059 C  
BRANCH  16  17
HETATM   17  N   UNL     1      -6.688  13.474  68.737  1.00  0.00    -0.099 NA 
HETATM   18  C   UNL     1      -5.956  14.534  68.024  1.00  0.00    -0.151 C  
HETATM   19  C   UNL     1      -5.223  15.617  70.180  1.00  0.00    -0.130 C  
HETATM   20  C   UNL     1      -5.841  15.844  68.804  1.00  0.00    -0.101 C  
HETATM   21  C   UNL     1      -5.896  14.461  70.917  1.00  0.00    -0.195 C  
HETATM   22  C   UNL     1      -6.026  13.217  70.031  1.00  0.00    -0.134 C  
ENDBRANCH  16  17
ENDBRANCH   4  16
TORSDOF 2
ENDMDL
MODEL       65
REMARK 921   NORMALIZED FREE ENERGY PREDICTED BY IDOCK:   -4.58 KCAL/MOL
REMARK 922        TOTAL FREE ENERGY PREDICTED BY IDOCK:   -5.81 KCAL/MOL
REMARK 923 INTER-LIGAND FREE ENERGY PREDICTED BY IDOCK:   -5.44 KCAL/MOL
REMARK 924 INTRA-LIGAND FREE ENERGY PREDICTED BY IDOCK:   -0.37 KCAL/MOL
REMARK 927      BINDING AFFINITY PREDICTED BY RF-SCORE:    0.00 PKD
ROOT
HETATM    1  O   UNL     1     -10.088   9.760  64.882  1.00  0.00    -0.386 OA 
HETATM    2  C   UNL     1      -9.822   9.969  66.284  1.00  0.00    -0.236 C  
HETATM    3  H   UNL     1      -9.520   9.052  64.602  1.00  0.00     0.000 HD 
HETATM    4  C   UNL     1     -10.754  11.133  66.744  1.00  0.00    -0.326 C  
HETATM    5  C   UNL     1     -10.264   8.671  67.025  1.00  0.00    -0.360 C  
HETATM    6  C   UNL     1      -8.328  10.313  66.405  1.00  0.00    -0.132 A  
HETATM    7  C   UNL     1      -9.561   7.366  66.630  1.00  0.00    -0.251 C  
HETATM    8  C   UNL     1      -7.827  11.134  67.430  1.00  0.00    -0.121 A  
HETATM    9  C   UNL     1     -10.232   8.707  68.565  1.00  0.00    -0.221 C  
HETATM   10  C   UNL     1      -6.517  11.629  67.394  1.00  0.00    -0.103 A  
HETATM   11  C   UNL     1      -9.823   6.452  67.820  1.00  0.00    -0.136 C  
HETATM   12  C   UNL     1      -7.416   9.904  65.412  1.00  0.00    -0.132 A  
HETATM   13  C   UNL     1      -9.633   7.378  69.009  1.00  0.00    -0.148 C  
HETATM   14  C   UNL     1      -5.661  11.264  66.364  1.00  0.00    -0.146 A  
HETATM   15  C   UNL     1      -6.098  10.374  65.388  1.00  0.00    -0.132 A  
ENDROOT
BRANCH   4  16
HETATM   16  C   UNL     1     -10.515  12.479  66.037  1.00  0.00    -0.258 C  
BRANCH  16  17
HETATM   17  N   UNL     1     -11.350  13.577  66.574  1.00  0.00    -0.311 NA 
HETATM   18  C   UNL     1     -10.635  14.844  66.799  1.00  0.00    -0.305 C  
HETATM   19  C   UNL     1     -11.317  15.745  64.545  1.00  0.00    -0.324 C  
HETATM   20  C   UNL     1     -10.161  15.527  65.516  1.00  0.00    -0.415 C  
HETATM   21  C   UNL     1     -12.143  14.474  64.356  1.00  0.00    -0.492 C  
HETATM   22  C   UNL     1     -12.509  13.827  65.696  1.00  0.00    -0.503 C  
ENDBRANCH  16  17
ENDBRANCH   4  16
TORSDOF 2
ENDMDL
MODEL       66
REMARK 921   NORMALIZED FREE ENERGY PREDICTED BY IDOCK:   -4.57 KCAL/MOL
REMARK 922        TOTAL FREE ENERGY PREDICTED BY IDOCK:   -5.80 KCAL/MOL
REMARK 923 INTER-LIGAND FREE ENERGY PREDICTED BY IDOCK:   -5.30 KCAL/MOL
REMARK 924 INTRA-LIGAND FREE ENERGY PREDICTED BY IDOCK:   -0.50 KCAL/MOL
REMARK 927      BINDING AFFINITY PREDICTED BY RF-SCORE:    0.00 PKD
ROOT
HETATM    1  O   UNL     1     -10.524  14.482  69.435  1.00  0.00    -0.350 OA 
HETATM    2  C   UNL     1      -9.936  14.769  68.151  1.00  0.00    -0.221 C  
HETATM    3  H   UNL     1     -10.268  15.189  70.015  1.00  0.00     0.000 HD 
HETATM    4  C   UNL     1     -10.356  13.607  67.199  1.00  0.00    -0.250 C  
HETATM    5  C   UNL     1     -10.598  16.083  67.635  1.00  0.00    -0.309 C  
HETATM    6  C   UNL     1      -8.415  14.848  68.368  1.00  0.00    -0.153 A  
HETATM    7  C   UNL     1     -10.421  17.341  68.497  1.00  0.00    -0.375 C  
HETATM    8  C   UNL     1      -7.494  14.514  67.359  1.00  0.00    -0.194 A  
HETATM    9  C   UNL     1     -10.253  16.516  66.198  1.00  0.00    -0.360 C  
HETATM   10  C   UNL     1      -6.130  14.362  67.638  1.00  0.00    -0.070 A  
HETATM   11  C   UNL     1     -10.710  18.476  67.523  1.00  0.00    -0.419 C  
HETATM   12  C   UNL     1      -7.888  15.150  69.639  1.00  0.00    -0.125 A  
HETATM   13  C   UNL     1     -10.014  18.020  66.253  1.00  0.00    -0.338 C  
HETATM   14  C   UNL     1      -5.648  14.599  68.919  1.00  0.00    -0.087 A  
HETATM   15  C   UNL     1      -6.520  15.025  69.914  1.00  0.00    -0.169 A  
ENDROOT
BRANCH   4  16
HETATM   16  C   UNL     1      -9.861  12.211  67.615  1.00  0.00    -0.194 C  
BRANCH  16  17
HETATM   17  N   UNL     1     -10.919  11.177  67.565  1.00  0.00    -0.256 NA 
HETATM   18  C   UNL     1     -10.447   9.799  67.774  1.00  0.00    -0.246 C  
HETATM   19  C   UNL     1     -10.977   9.884  70.238  1.00  0.00    -0.366 C  
HETATM   20  C   UNL     1      -9.931   9.525  69.187  1.00  0.00    -0.185 C  
HETATM   21  C   UNL     1     -11.561  11.275  70.000  1.00  0.00    -0.404 C  
HETATM   22  C   UNL     1     -11.985  11.475  68.541  1.00  0.00    -0.224 C  
ENDBRANCH  16  17
ENDBRANCH   4  16
TORSDOF 2
ENDMDL
MODEL       67
REMARK 921   NORMALIZED FREE ENERGY PREDICTED BY IDOCK:   -4.56 KCAL/MOL
REMARK 922        TOTAL FREE ENERGY PREDICTED BY IDOCK:   -5.79 KCAL/MOL
REMARK 923 INTER-LIGAND FREE ENERGY PREDICTED BY IDOCK:   -5.28 KCAL/MOL
REMARK 924 INTRA-LIGAND FREE ENERGY PREDICTED BY IDOCK:   -0.51 KCAL/MOL
REMARK 927      BINDING AFFINITY PREDICTED BY RF-SCORE:    0.00 PKD
ROOT
HETATM    1  O   UNL     1      -8.777   9.850  68.282  1.00  0.00    -0.118 OA 
HETATM    2  C   UNL     1      -9.986   9.066  68.309  1.00  0.00    -0.173 C  
HETATM    3  H   UNL     1      -8.084   9.290  68.610  1.00  0.00     0.000 HD 
HETATM    4  C   UNL     1     -11.126   9.986  67.770  1.00  0.00    -0.246 C  
HETATM    5  C   UNL     1      -9.788   7.897  67.297  1.00  0.00    -0.256 C  
HETATM    6  C   UNL     1     -10.202   8.634  69.770  1.00  0.00    -0.206 A  
HETATM    7  C   UNL     1      -8.626   6.930  67.564  1.00  0.00    -0.121 C  
HETATM    8  C   UNL     1     -11.483   8.406  70.304  1.00  0.00    -0.063 A  
HETATM    9  C   UNL     1     -11.012   7.002  67.022  1.00  0.00    -0.357 C  
HETATM   10  C   UNL     1     -11.681   8.248  71.681  1.00  0.00    -0.341 A  
HETATM   11  C   UNL     1      -9.005   5.694  66.759  1.00  0.00    -0.116 C  
HETATM   12  C   UNL     1      -9.116   8.565  70.664  1.00  0.00    -0.184 A  
HETATM   13  C   UNL     1     -10.497   5.568  67.012  1.00  0.00    -0.336 C  
HETATM   14  C   UNL     1     -10.596   8.254  72.548  1.00  0.00    -0.407 A  
HETATM   15  C   UNL     1      -9.308   8.379  72.038  1.00  0.00    -0.332 A  
ENDROOT
BRANCH   4  16
HETATM   16  C   UNL     1     -11.394  11.250  68.607  1.00  0.00    -0.273 C  
BRANCH  16  17
HETATM   17  N   UNL     1     -11.813  12.411  67.790  1.00  0.00    -0.436 NA 
HETATM   18  C   UNL     1     -12.026  13.655  68.549  1.00  0.00    -0.361 C  
HETATM   19  C   UNL     1      -9.685  14.465  68.074  1.00  0.00    -0.221 C  
HETATM   20  C   UNL     1     -10.749  14.247  69.146  1.00  0.00    -0.239 C  
HETATM   21  C   UNL     1      -9.500  13.224  67.202  1.00  0.00    -0.240 C  
HETATM   22  C   UNL     1     -10.840  12.667  66.710  1.00  0.00    -0.250 C  
ENDBRANCH  16  17
ENDBRANCH   4  16
TORSDOF 2
ENDMDL
MODEL       68
REMARK 921   NORMALIZED FREE ENERGY PREDICTED BY IDOCK:   -4.56 KCAL/MOL
REMARK 922        TOTAL FREE ENERGY PREDICTED BY IDOCK:   -5.78 KCAL/MOL
REMARK 923 INTER-LIGAND FREE ENERGY PREDICTED BY IDOCK:   -5.19 KCAL/MOL
REMARK 924 INTRA-LIGAND FREE ENERGY PREDICTED BY IDOCK:   -0.59 KCAL/MOL
REMARK 927      BINDING AFFINITY PREDICTED BY RF-SCORE:    0.00 PKD
ROOT
HETATM    1  O   UNL     1     -12.065  11.982  66.040  1.00  0.00    -0.561 OA 
HETATM    2  C   UNL     1     -10.735  12.226  66.540  1.00  0.00    -0.246 C  
HETATM    3  H   UNL     1     -12.664  12.399  66.649  1.00  0.00     0.000 HD 
HETATM    4  C   UNL     1      -9.752  11.541  65.541  1.00  0.00    -0.259 C  
HETATM    5  C   UNL     1     -10.503  13.766  66.470  1.00  0.00    -0.282 C  
HETATM    6  C   UNL     1     -10.675  11.621  67.953  1.00  0.00    -0.241 A  
HETATM    7  C   UNL     1     -11.453  14.655  67.285  1.00  0.00    -0.386 C  
HETATM    8  C   UNL     1      -9.482  11.123  68.506  1.00  0.00    -0.193 A  
HETATM    9  C   UNL     1      -9.085  14.269  66.801  1.00  0.00    -0.269 C  
HETATM   10  C   UNL     1      -9.485  10.366  69.684  1.00  0.00    -0.118 A  
HETATM   11  C   UNL     1     -10.684  15.963  67.416  1.00  0.00    -0.313 C  
HETATM   12  C   UNL     1     -11.852  11.438  68.704  1.00  0.00    -0.377 A  
HETATM   13  C   UNL     1      -9.264  15.498  67.684  1.00  0.00    -0.190 C  
HETATM   14  C   UNL     1     -10.673  10.143  70.368  1.00  0.00    -0.329 A  
HETATM   15  C   UNL     1     -11.854  10.705  69.897  1.00  0.00    -0.392 A  
ENDROOT
BRANCH   4  16
HETATM   16  C   UNL     1      -9.910  10.016  65.414  1.00  0.00    -0.314 C  
BRANCH  16  17
HETATM   17  N   UNL     1      -8.733   9.357  64.804  1.00  0.00    -0.187 NA 
HETATM   18  C   UNL     1      -7.469  10.098  64.941  1.00  0.00    -0.137 C  
HETATM   19  C   UNL     1      -6.822   8.810  67.011  1.00  0.00    -0.070 C  
HETATM   20  C   UNL     1      -6.955  10.192  66.379  1.00  0.00    -0.105 C  
HETATM   21  C   UNL     1      -8.082   7.972  66.808  1.00  0.00    -0.107 C  
HETATM   22  C   UNL     1      -8.556   7.997  65.350  1.00  0.00    -0.114 C  
ENDBRANCH  16  17
ENDBRANCH   4  16
TORSDOF 2
ENDMDL
MODEL       69
REMARK 921   NORMALIZED FREE ENERGY PREDICTED BY IDOCK:   -4.56 KCAL/MOL
REMARK 922        TOTAL FREE ENERGY PREDICTED BY IDOCK:   -5.78 KCAL/MOL
REMARK 923 INTER-LIGAND FREE ENERGY PREDICTED BY IDOCK:   -5.12 KCAL/MOL
REMARK 924 INTRA-LIGAND FREE ENERGY PREDICTED BY IDOCK:   -0.66 KCAL/MOL
REMARK 927      BINDING AFFINITY PREDICTED BY RF-SCORE:    0.00 PKD
ROOT
HETATM    1  O   UNL     1      -9.326  14.833  65.939  1.00  0.00    -0.464 OA 
HETATM    2  C   UNL     1      -8.624  15.163  67.154  1.00  0.00    -0.223 C  
HETATM    3  H   UNL     1      -9.839  15.598  65.706  1.00  0.00     0.000 HD 
HETATM    4  C   UNL     1      -7.782  13.906  67.537  1.00  0.00    -0.192 C  
HETATM    5  C   UNL     1      -7.638  16.319  66.806  1.00  0.00    -0.285 C  
HETATM    6  C   UNL     1      -9.694  15.512  68.203  1.00  0.00    -0.208 A  
HETATM    7  C   UNL     1      -8.249  17.625  66.278  1.00  0.00    -0.264 C  
HETATM    8  C   UNL     1      -9.494  15.299  69.578  1.00  0.00    -0.204 A  
HETATM    9  C   UNL     1      -6.650  16.744  67.908  1.00  0.00    -0.153 C  
HETATM   10  C   UNL     1     -10.551  15.396  70.492  1.00  0.00    -0.229 A  
HETATM   11  C   UNL     1      -7.151  18.651  66.522  1.00  0.00    -0.244 C  
HETATM   12  C   UNL     1     -10.970  15.953  67.804  1.00  0.00    -0.315 A  
HETATM   13  C   UNL     1      -6.627  18.268  67.895  1.00  0.00    -0.203 C  
HETATM   14  C   UNL     1     -11.817  15.767  70.059  1.00  0.00    -0.365 A  
HETATM   15  C   UNL     1     -12.022  16.079  68.720  1.00  0.00    -0.088 A  
ENDROOT
BRANCH   4  16
HETATM   16  C   UNL     1      -8.601  12.635  67.824  1.00  0.00    -0.179 C  
BRANCH  16  17
HETATM   17  N   UNL     1      -9.335  12.135  66.640  1.00  0.00    -0.221 NA 
HETATM   18  C   UNL     1      -8.854  10.847  66.114  1.00  0.00    -0.186 C  
HETATM   19  C   UNL     1     -10.571   9.553  67.432  1.00  0.00    -0.337 C  
HETATM   20  C   UNL     1      -9.099   9.662  67.049  1.00  0.00    -0.154 C  
HETATM   21  C   UNL     1     -11.135  10.894  67.896  1.00  0.00    -0.362 C  
HETATM   22  C   UNL     1     -10.779  12.028  66.928  1.00  0.00    -0.244 C  
ENDBRANCH  16  17
ENDBRANCH   4  16
TORSDOF 2
ENDMDL
MODEL       70
REMARK 921   NORMALIZED FREE ENERGY PREDICTED BY IDOCK:   -4.52 KCAL/MOL
REMARK 922        TOTAL FREE ENERGY PREDICTED BY IDOCK:   -5.75 KCAL/MOL
REMARK 923 INTER-LIGAND FREE ENERGY PREDICTED BY IDOCK:   -5.32 KCAL/MOL
REMARK 924 INTRA-LIGAND FREE ENERGY PREDICTED BY IDOCK:   -0.43 KCAL/MOL
REMARK 927      BINDING AFFINITY PREDICTED BY RF-SCORE:    0.00 PKD
ROOT
HETATM    1  O   UNL     1      -8.109   9.166  68.372  1.00  0.00    -0.102 OA 
HETATM    2  C   UNL     1      -9.245   9.043  67.492  1.00  0.00    -0.135 C  
HETATM    3  H   UNL     1      -7.359   8.833  67.894  1.00  0.00     0.000 HD 
HETATM    4  C   UNL     1     -10.477   9.589  68.278  1.00  0.00    -0.265 C  
HETATM    5  C   UNL     1      -8.982   9.990  66.282  1.00  0.00    -0.170 C  
HETATM    6  C   UNL     1      -9.371   7.551  67.137  1.00  0.00    -0.174 A  
HETATM    7  C   UNL     1      -7.732   9.713  65.435  1.00  0.00    -0.117 C  
HETATM    8  C   UNL     1     -10.608   6.954  66.837  1.00  0.00    -0.372 A  
HETATM    9  C   UNL     1     -10.133  10.162  65.273  1.00  0.00    -0.344 C  
HETATM   10  C   UNL     1     -10.743   5.562  66.750  1.00  0.00    -0.329 A  
HETATM   11  C   UNL     1      -8.032  10.427  64.123  1.00  0.00    -0.073 C  
HETATM   12  C   UNL     1      -8.253   6.699  67.216  1.00  0.00    -0.121 A  
HETATM   13  C   UNL     1      -9.498  10.106  63.889  1.00  0.00    -0.332 C  
HETATM   14  C   UNL     1      -9.633   4.742  66.901  1.00  0.00    -0.185 A  
HETATM   15  C   UNL     1      -8.380   5.310  67.102  1.00  0.00    -0.107 A  
ENDROOT
BRANCH   4  16
HETATM   16  C   UNL     1     -10.823   8.820  69.565  1.00  0.00    -0.142 C  
BRANCH  16  17
HETATM   17  N   UNL     1     -10.752   9.659  70.783  1.00  0.00    -0.311 NA 
HETATM   18  C   UNL     1     -11.868  10.603  70.949  1.00  0.00    -0.331 C  
HETATM   19  C   UNL     1     -13.141   8.996  72.417  1.00  0.00    -0.487 C  
HETATM   20  C   UNL     1     -13.217   9.933  71.215  1.00  0.00    -0.465 C  
HETATM   21  C   UNL     1     -11.939   8.059  72.328  1.00  0.00    -0.412 C  
HETATM   22  C   UNL     1     -10.649   8.817  71.990  1.00  0.00    -0.344 C  
ENDBRANCH  16  17
ENDBRANCH   4  16
TORSDOF 2
ENDMDL
MODEL       71
REMARK 921   NORMALIZED FREE ENERGY PREDICTED BY IDOCK:   -4.50 KCAL/MOL
REMARK 922        TOTAL FREE ENERGY PREDICTED BY IDOCK:   -5.71 KCAL/MOL
REMARK 923 INTER-LIGAND FREE ENERGY PREDICTED BY IDOCK:   -5.31 KCAL/MOL
REMARK 924 INTRA-LIGAND FREE ENERGY PREDICTED BY IDOCK:   -0.41 KCAL/MOL
REMARK 927      BINDING AFFINITY PREDICTED BY RF-SCORE:    0.00 PKD
ROOT
HETATM    1  O   UNL     1     -11.830  11.913  67.999  1.00  0.00    -0.460 OA 
HETATM    2  C   UNL     1     -10.727  11.971  67.072  1.00  0.00    -0.242 C  
HETATM    3  H   UNL     1     -12.401  12.642  67.786  1.00  0.00     0.000 HD 
HETATM    4  C   UNL     1      -9.789  10.775  67.422  1.00  0.00    -0.204 C  
HETATM    5  C   UNL     1     -11.319  11.725  65.651  1.00  0.00    -0.293 C  
HETATM    6  C   UNL     1     -10.054  13.341  67.270  1.00  0.00    -0.234 A  
HETATM    7  C   UNL     1     -12.373  12.722  65.150  1.00  0.00    -0.555 C  
HETATM    8  C   UNL     1      -8.683  13.544  67.036  1.00  0.00    -0.197 A  
HETATM    9  C   UNL     1     -10.311  11.577  64.496  1.00  0.00    -0.354 C  
HETATM   10  C   UNL     1      -8.040  14.720  67.443  1.00  0.00    -0.220 A  
HETATM   11  C   UNL     1     -12.355  12.522  63.640  1.00  0.00    -0.618 C  
HETATM   12  C   UNL     1     -10.777  14.421  67.812  1.00  0.00    -0.248 A  
HETATM   13  C   UNL     1     -10.875  12.384  63.332  1.00  0.00    -0.417 C  
HETATM   14  C   UNL     1      -8.767  15.742  68.038  1.00  0.00    -0.171 A  
HETATM   15  C   UNL     1     -10.142  15.610  68.194  1.00  0.00    -0.222 A  
ENDROOT
BRANCH   4  16
HETATM   16  C   UNL     1      -9.187  10.810  68.837  1.00  0.00    -0.173 C  
BRANCH  16  17
HETATM   17  N   UNL     1      -7.780  10.353  68.884  1.00  0.00    -0.102 NA 
HETATM   18  C   UNL     1      -7.232  10.174  70.239  1.00  0.00    -0.121 C  
HETATM   19  C   UNL     1      -7.785   7.714  70.246  1.00  0.00    -0.091 C  
HETATM   20  C   UNL     1      -7.869   9.025  71.021  1.00  0.00    -0.174 C  
HETATM   21  C   UNL     1      -8.257   7.879  68.803  1.00  0.00    -0.127 C  
HETATM   22  C   UNL     1      -7.615   9.096  68.128  1.00  0.00    -0.084 C  
ENDBRANCH  16  17
ENDBRANCH   4  16
TORSDOF 2
ENDMDL
MODEL       72
REMARK 921   NORMALIZED FREE ENERGY PREDICTED BY IDOCK:   -4.49 KCAL/MOL
REMARK 922        TOTAL FREE ENERGY PREDICTED BY IDOCK:   -5.71 KCAL/MOL
REMARK 923 INTER-LIGAND FREE ENERGY PREDICTED BY IDOCK:   -5.28 KCAL/MOL
REMARK 924 INTRA-LIGAND FREE ENERGY PREDICTED BY IDOCK:   -0.43 KCAL/MOL
REMARK 927      BINDING AFFINITY PREDICTED BY RF-SCORE:    0.00 PKD
ROOT
HETATM    1  O   UNL     1      -9.492  10.857  66.665  1.00  0.00    -0.174 OA 
HETATM    2  C   UNL     1      -9.793  12.267  66.698  1.00  0.00    -0.220 C  
HETATM    3  H   UNL     1     -10.321  10.405  66.560  1.00  0.00     0.000 HD 
HETATM    4  C   UNL     1      -8.431  13.009  66.871  1.00  0.00    -0.087 C  
HETATM    5  C   UNL     1     -10.374  12.637  65.300  1.00  0.00    -0.309 C  
HETATM    6  C   UNL     1     -10.752  12.487  67.882  1.00  0.00    -0.239 A  
HETATM    7  C   UNL     1     -11.658  11.919  64.863  1.00  0.00    -0.290 C  
HETATM    8  C   UNL     1     -10.795  13.697  68.597  1.00  0.00    -0.283 A  
HETATM    9  C   UNL     1     -10.625  14.132  65.027  1.00  0.00    -0.436 C  
HETATM   10  C   UNL     1     -11.493  13.803  69.807  1.00  0.00    -0.267 A  
HETATM   11  C   UNL     1     -12.212  12.825  63.771  1.00  0.00    -0.572 C  
HETATM   12  C   UNL     1     -11.546  11.429  68.366  1.00  0.00    -0.385 A  
HETATM   13  C   UNL     1     -11.979  14.216  64.332  1.00  0.00    -0.478 C  
HETATM   14  C   UNL     1     -12.211  12.720  70.296  1.00  0.00    -0.351 A  
HETATM   15  C   UNL     1     -12.267  11.542  69.561  1.00  0.00    -0.287 A  
ENDROOT
BRANCH   4  16
HETATM   16  C   UNL     1      -7.671  12.683  68.169  1.00  0.00    -0.142 C  
BRANCH  16  17
HETATM   17  N   UNL     1      -6.311  13.265  68.210  1.00  0.00    -0.087 NA 
HETATM   18  C   UNL     1      -6.254  14.674  68.632  1.00  0.00    -0.086 C  
HETATM   19  C   UNL     1      -5.800  14.041  71.030  1.00  0.00    -0.209 C  
HETATM   20  C   UNL     1      -6.641  14.902  70.093  1.00  0.00    -0.139 C  
HETATM   21  C   UNL     1      -5.756  12.585  70.573  1.00  0.00    -0.170 C  
HETATM   22  C   UNL     1      -5.427  12.465  69.081  1.00  0.00    -0.069 C  
ENDBRANCH  16  17
ENDBRANCH   4  16
TORSDOF 2
ENDMDL
MODEL       73
REMARK 921   NORMALIZED FREE ENERGY PREDICTED BY IDOCK:   -4.48 KCAL/MOL
REMARK 922        TOTAL FREE ENERGY PREDICTED BY IDOCK:   -5.70 KCAL/MOL
REMARK 923 INTER-LIGAND FREE ENERGY PREDICTED BY IDOCK:   -5.00 KCAL/MOL
REMARK 924 INTRA-LIGAND FREE ENERGY PREDICTED BY IDOCK:   -0.70 KCAL/MOL
REMARK 927      BINDING AFFINITY PREDICTED BY RF-SCORE:    0.00 PKD
ROOT
HETATM    1  O   UNL     1     -11.452  11.096  66.955  1.00  0.00    -0.442 OA 
HETATM    2  C   UNL     1     -10.157  10.942  67.571  1.00  0.00    -0.184 C  
HETATM    3  H   UNL     1     -11.714  10.232  66.659  1.00  0.00     0.000 HD 
HETATM    4  C   UNL     1      -9.725  12.361  68.057  1.00  0.00    -0.210 C  
HETATM    5  C   UNL     1     -10.358  10.039  68.826  1.00  0.00    -0.216 C  
HETATM    6  C   UNL     1      -9.221  10.365  66.495  1.00  0.00    -0.184 A  
HETATM    7  C   UNL     1     -10.907   8.626  68.590  1.00  0.00    -0.003 C  
HETATM    8  C   UNL     1      -7.839  10.627  66.484  1.00  0.00    -0.140 A  
HETATM    9  C   UNL     1      -9.141   9.859  69.752  1.00  0.00    -0.249 C  
HETATM   10  C   UNL     1      -7.044  10.297  65.379  1.00  0.00    -0.139 A  
HETATM   11  C   UNL     1     -10.511   7.879  69.857  1.00  0.00    -0.229 C  
HETATM   12  C   UNL     1      -9.742   9.641  65.406  1.00  0.00    -0.365 A  
HETATM   13  C   UNL     1      -9.102   8.380  70.120  1.00  0.00    -0.150 C  
HETATM   14  C   UNL     1      -7.601   9.644  64.288  1.00  0.00    -0.128 A  
HETATM   15  C   UNL     1      -8.944   9.285  64.312  1.00  0.00    -0.142 A  
ENDROOT
BRANCH   4  16
HETATM   16  C   UNL     1      -9.570  13.413  66.945  1.00  0.00    -0.257 C  
BRANCH  16  17
HETATM   17  N   UNL     1     -10.848  14.061  66.574  1.00  0.00    -0.298 NA 
HETATM   18  C   UNL     1     -11.565  14.698  67.690  1.00  0.00    -0.361 C  
HETATM   19  C   UNL     1     -10.548  16.951  67.190  1.00  0.00    -0.249 C  
HETATM   20  C   UNL     1     -10.852  15.920  68.272  1.00  0.00    -0.315 C  
HETATM   21  C   UNL     1      -9.886  16.312  65.971  1.00  0.00    -0.371 C  
HETATM   22  C   UNL     1     -10.636  15.058  65.506  1.00  0.00    -0.363 C  
ENDBRANCH  16  17
ENDBRANCH   4  16
TORSDOF 2
ENDMDL
MODEL       74
REMARK 921   NORMALIZED FREE ENERGY PREDICTED BY IDOCK:   -4.46 KCAL/MOL
REMARK 922        TOTAL FREE ENERGY PREDICTED BY IDOCK:   -5.67 KCAL/MOL
REMARK 923 INTER-LIGAND FREE ENERGY PREDICTED BY IDOCK:   -5.91 KCAL/MOL
REMARK 924 INTRA-LIGAND FREE ENERGY PREDICTED BY IDOCK:    0.24 KCAL/MOL
REMARK 927      BINDING AFFINITY PREDICTED BY RF-SCORE:    0.00 PKD
ROOT
HETATM    1  O   UNL     1     -10.439  14.435  67.224  1.00  0.00    -0.266 OA 
HETATM    2  C   UNL     1      -9.924  15.215  68.321  1.00  0.00    -0.223 C  
HETATM    3  H   UNL     1      -9.924  14.668  66.460  1.00  0.00     0.000 HD 
HETATM    4  C   UNL     1     -10.770  14.832  69.575  1.00  0.00    -0.229 C  
HETATM    5  C   UNL     1      -8.458  14.741  68.562  1.00  0.00    -0.159 C  
HETATM    6  C   UNL     1     -10.074  16.693  67.922  1.00  0.00    -0.270 A  
HETATM    7  C   UNL     1      -7.470  14.904  67.398  1.00  0.00    -0.228 C  
HETATM    8  C   UNL     1     -10.261  17.711  68.874  1.00  0.00    -0.354 A  
HETATM    9  C   UNL     1      -7.738  15.314  69.796  1.00  0.00    -0.079 C  
HETATM   10  C   UNL     1     -10.631  19.007  68.491  1.00  0.00    -0.052 A  
HETATM   11  C   UNL     1      -6.110  14.847  68.082  1.00  0.00    -0.145 C  
HETATM   12  C   UNL     1     -10.146  17.065  66.566  1.00  0.00    -0.318 A  
HETATM   13  C   UNL     1      -6.328  15.669  69.340  1.00  0.00    -0.150 C  
HETATM   14  C   UNL     1     -10.762  19.328  67.146  1.00  0.00    -0.584 A  
HETATM   15  C   UNL     1     -10.488  18.367  66.180  1.00  0.00    -0.422 A  
ENDROOT
BRANCH   4  16
HETATM   16  C   UNL     1     -12.272  15.148  69.469  1.00  0.00    -0.233 C  
BRANCH  16  17
HETATM   17  N   UNL     1     -12.754  16.058  70.532  1.00  0.00    -0.243 NA 
HETATM   18  C   UNL     1     -13.948  15.588  71.254  1.00  0.00    -0.292 C  
HETATM   19  C   UNL     1     -12.557  14.560  73.089  1.00  0.00    -0.435 C  
HETATM   20  C   UNL     1     -13.708  14.345  72.111  1.00  0.00    -0.557 C  
HETATM   21  C   UNL     1     -11.326  15.137  72.395  1.00  0.00    -0.272 C  
HETATM   22  C   UNL     1     -11.681  16.335  71.506  1.00  0.00    -0.403 C  
ENDBRANCH  16  17
ENDBRANCH   4  16
TORSDOF 2
ENDMDL
MODEL       75
REMARK 921   NORMALIZED FREE ENERGY PREDICTED BY IDOCK:   -4.44 KCAL/MOL
REMARK 922        TOTAL FREE ENERGY PREDICTED BY IDOCK:   -5.65 KCAL/MOL
REMARK 923 INTER-LIGAND FREE ENERGY PREDICTED BY IDOCK:   -5.10 KCAL/MOL
REMARK 924 INTRA-LIGAND FREE ENERGY PREDICTED BY IDOCK:   -0.54 KCAL/MOL
REMARK 927      BINDING AFFINITY PREDICTED BY RF-SCORE:    0.00 PKD
ROOT
HETATM    1  O   UNL     1     -11.257  15.271  68.922  1.00  0.00    -0.252 OA 
HETATM    2  C   UNL     1     -10.288  15.006  67.887  1.00  0.00    -0.241 C  
HETATM    3  H   UNL     1     -12.013  15.654  68.492  1.00  0.00     0.000 HD 
HETATM    4  C   UNL     1      -9.046  14.377  68.593  1.00  0.00    -0.178 C  
HETATM    5  C   UNL     1     -10.912  13.927  66.951  1.00  0.00    -0.300 C  
HETATM    6  C   UNL     1      -9.979  16.354  67.214  1.00  0.00    -0.258 A  
HETATM    7  C   UNL     1     -12.226  14.289  66.245  1.00  0.00    -0.433 C  
HETATM    8  C   UNL     1      -8.731  16.631  66.628  1.00  0.00    -0.280 A  
HETATM    9  C   UNL     1     -10.000  13.352  65.851  1.00  0.00    -0.287 C  
HETATM   10  C   UNL     1      -8.383  17.929  66.233  1.00  0.00    -0.230 A  
HETATM   11  C   UNL     1     -12.283  13.305  65.084  1.00  0.00    -0.487 C  
HETATM   12  C   UNL     1     -10.909  17.410  67.266  1.00  0.00    -0.126 A  
HETATM   13  C   UNL     1     -10.848  13.282  64.587  1.00  0.00    -0.396 C  
HETATM   14  C   UNL     1      -9.298  18.967  66.361  1.00  0.00    -0.343 A  
HETATM   15  C   UNL     1     -10.574  18.704  66.847  1.00  0.00    -0.437 A  
ENDROOT
BRANCH   4  16
HETATM   16  C   UNL     1      -8.358  15.282  69.630  1.00  0.00    -0.108 C  
BRANCH  16  17
HETATM   17  N   UNL     1      -7.007  14.810  70.010  1.00  0.00    -0.149 NA 
HETATM   18  C   UNL     1      -6.417  13.822  69.094  1.00  0.00    -0.109 C  
HETATM   19  C   UNL     1      -5.175  15.603  67.812  1.00  0.00    -0.124 C  
HETATM   20  C   UNL     1      -6.079  14.379  67.710  1.00  0.00    -0.132 C  
HETATM   21  C   UNL     1      -5.705  16.615  68.826  1.00  0.00    -0.128 C  
HETATM   22  C   UNL     1      -6.079  15.948  70.155  1.00  0.00    -0.105 C  
ENDBRANCH  16  17
ENDBRANCH   4  16
TORSDOF 2
ENDMDL
MODEL       76
REMARK 921   NORMALIZED FREE ENERGY PREDICTED BY IDOCK:   -4.42 KCAL/MOL
REMARK 922        TOTAL FREE ENERGY PREDICTED BY IDOCK:   -5.63 KCAL/MOL
REMARK 923 INTER-LIGAND FREE ENERGY PREDICTED BY IDOCK:   -5.20 KCAL/MOL
REMARK 924 INTRA-LIGAND FREE ENERGY PREDICTED BY IDOCK:   -0.42 KCAL/MOL
REMARK 927      BINDING AFFINITY PREDICTED BY RF-SCORE:    0.00 PKD
ROOT
HETATM    1  O   UNL     1     -12.083  10.538  68.019  1.00  0.00    -0.697 OA 
HETATM    2  C   UNL     1     -11.172  11.649  67.899  1.00  0.00    -0.269 C  
HETATM    3  H   UNL     1     -12.210  10.392  68.949  1.00  0.00     0.000 HD 
HETATM    4  C   UNL     1     -10.964  11.890  66.371  1.00  0.00    -0.337 C  
HETATM    5  C   UNL     1     -11.899  12.895  68.491  1.00  0.00    -0.350 C  
HETATM    6  C   UNL     1      -9.879  11.242  68.625  1.00  0.00    -0.208 A  
HETATM    7  C   UNL     1     -12.320  12.824  69.966  1.00  0.00    -0.182 C  
HETATM    8  C   UNL     1      -8.618  11.735  68.245  1.00  0.00    -0.162 A  
HETATM    9  C   UNL     1     -11.190  14.253  68.330  1.00  0.00    -0.291 C  
HETATM   10  C   UNL     1      -7.436  11.181  68.753  1.00  0.00    -0.118 A  
HETATM   11  C   UNL     1     -12.508  14.286  70.347  1.00  0.00    -0.426 C  
HETATM   12  C   UNL     1      -9.903  10.260  69.634  1.00  0.00    -0.230 A  
HETATM   13  C   UNL     1     -11.334  14.969  69.668  1.00  0.00    -0.309 C  
HETATM   14  C   UNL     1      -7.490  10.164  69.696  1.00  0.00    -0.147 A  
HETATM   15  C   UNL     1      -8.723   9.723  70.164  1.00  0.00    -0.215 A  
ENDROOT
BRANCH   4  16
HETATM   16  C   UNL     1     -10.337  10.712  65.605  1.00  0.00    -0.216 C  
BRANCH  16  17
HETATM   17  N   UNL     1      -9.061  11.061  64.940  1.00  0.00    -0.181 NA 
HETATM   18  C   UNL     1      -8.012  10.033  65.036  1.00  0.00    -0.143 C  
HETATM   19  C   UNL     1      -8.635   9.046  62.800  1.00  0.00    -0.191 C  
HETATM   20  C   UNL     1      -8.325   8.750  64.264  1.00  0.00    -0.158 C  
HETATM   21  C   UNL     1      -9.653  10.175  62.655  1.00  0.00    -0.200 C  
HETATM   22  C   UNL     1      -9.287  11.388  63.519  1.00  0.00    -0.173 C  
ENDBRANCH  16  17
ENDBRANCH   4  16
TORSDOF 2
ENDMDL
MODEL       77
REMARK 921   NORMALIZED FREE ENERGY PREDICTED BY IDOCK:   -4.41 KCAL/MOL
REMARK 922        TOTAL FREE ENERGY PREDICTED BY IDOCK:   -5.62 KCAL/MOL
REMARK 923 INTER-LIGAND FREE ENERGY PREDICTED BY IDOCK:   -5.22 KCAL/MOL
REMARK 924 INTRA-LIGAND FREE ENERGY PREDICTED BY IDOCK:   -0.40 KCAL/MOL
REMARK 927      BINDING AFFINITY PREDICTED BY RF-SCORE:    0.00 PKD
ROOT
HETATM    1  O   UNL     1      -9.502   7.467  71.734  1.00  0.00    -0.144 OA 
HETATM    2  C   UNL     1     -10.716   6.941  71.163  1.00  0.00    -0.225 C  
HETATM    3  H   UNL     1      -9.471   8.389  71.503  1.00  0.00     0.000 HD 
HETATM    4  C   UNL     1     -10.766   5.428  71.542  1.00  0.00    -0.262 C  
HETATM    5  C   UNL     1     -11.900   7.660  71.878  1.00  0.00    -0.332 C  
HETATM    6  C   UNL     1     -10.630   7.178  69.645  1.00  0.00    -0.249 A  
HETATM    7  C   UNL     1     -11.974   9.187  71.746  1.00  0.00    -0.449 C  
HETATM    8  C   UNL     1     -11.260   6.330  68.717  1.00  0.00    -0.357 A  
HETATM    9  C   UNL     1     -13.317   7.150  71.556  1.00  0.00    -0.413 C  
HETATM   10  C   UNL     1     -10.982   6.415  67.346  1.00  0.00    -0.463 A  
HETATM   11  C   UNL     1     -13.426   9.499  72.083  1.00  0.00    -0.535 C  
HETATM   12  C   UNL     1      -9.811   8.198  69.125  1.00  0.00    -0.182 A  
HETATM   13  C   UNL     1     -14.185   8.390  71.375  1.00  0.00    -0.406 C  
HETATM   14  C   UNL     1     -10.115   7.389  66.869  1.00  0.00    -0.327 A  
HETATM   15  C   UNL     1      -9.553   8.304  67.753  1.00  0.00    -0.178 A  
ENDROOT
BRANCH   4  16
HETATM   16  C   UNL     1      -9.607   4.579  70.991  1.00  0.00    -0.178 C  
BRANCH  16  17
HETATM   17  N   UNL     1      -9.852   3.123  71.090  1.00  0.00    -0.132 NA 
HETATM   18  C   UNL     1      -8.730   2.276  70.652  1.00  0.00    -0.058 C  
HETATM   19  C   UNL     1      -7.851   2.050  73.005  1.00  0.00    -0.045 C  
HETATM   20  C   UNL     1      -7.498   2.360  71.554  1.00  0.00    -0.040 C  
HETATM   21  C   UNL     1      -9.071   2.841  73.471  1.00  0.00    -0.090 C  
HETATM   22  C   UNL     1     -10.227   2.750  72.468  1.00  0.00    -0.154 C  
ENDBRANCH  16  17
ENDBRANCH   4  16
TORSDOF 2
ENDMDL
MODEL       78
REMARK 921   NORMALIZED FREE ENERGY PREDICTED BY IDOCK:   -4.38 KCAL/MOL
REMARK 922        TOTAL FREE ENERGY PREDICTED BY IDOCK:   -5.58 KCAL/MOL
REMARK 923 INTER-LIGAND FREE ENERGY PREDICTED BY IDOCK:   -5.05 KCAL/MOL
REMARK 924 INTRA-LIGAND FREE ENERGY PREDICTED BY IDOCK:   -0.53 KCAL/MOL
REMARK 927      BINDING AFFINITY PREDICTED BY RF-SCORE:    0.00 PKD
ROOT
HETATM    1  O   UNL     1     -11.166   6.426  69.809  1.00  0.00    -0.352 OA 
HETATM    2  C   UNL     1     -10.984   7.701  70.458  1.00  0.00    -0.249 C  
HETATM    3  H   UNL     1     -11.600   5.862  70.438  1.00  0.00     0.000 HD 
HETATM    4  C   UNL     1     -10.270   8.628  69.426  1.00  0.00    -0.211 C  
HETATM    5  C   UNL     1     -12.408   8.278  70.725  1.00  0.00     0.062 C  
HETATM    6  C   UNL     1     -10.140   7.441  71.717  1.00  0.00    -0.197 A  
HETATM    7  C   UNL     1     -13.341   7.452  71.622  1.00  0.00    -0.426 C  
HETATM    8  C   UNL     1      -9.275   8.411  72.254  1.00  0.00    -0.329 A  
HETATM    9  C   UNL     1     -12.482   9.717  71.268  1.00  0.00    -0.461 C  
HETATM   10  C   UNL     1      -8.343   8.087  73.249  1.00  0.00    -0.269 A  
HETATM   11  C   UNL     1     -14.377   8.470  72.081  1.00  0.00    -0.529 C  
HETATM   12  C   UNL     1     -10.118   6.165  72.314  1.00  0.00    -0.201 A  
HETATM   13  C   UNL     1     -13.539   9.704  72.366  1.00  0.00    -0.397 C  
HETATM   14  C   UNL     1      -8.298   6.800  73.770  1.00  0.00    -0.137 A  
HETATM   15  C   UNL     1      -9.206   5.846  73.328  1.00  0.00    -0.132 A  
ENDROOT
BRANCH   4  16
HETATM   16  C   UNL     1      -8.877   8.152  68.976  1.00  0.00    -0.144 C  
BRANCH  16  17
HETATM   17  N   UNL     1      -8.909   7.348  67.734  1.00  0.00    -0.128 NA 
HETATM   18  C   UNL     1      -9.946   7.743  66.768  1.00  0.00    -0.261 C  
HETATM   19  C   UNL     1      -8.342   9.215  65.495  1.00  0.00    -0.138 C  
HETATM   20  C   UNL     1      -9.721   9.120  66.140  1.00  0.00    -0.357 C  
HETATM   21  C   UNL     1      -7.243   8.724  66.435  1.00  0.00    -0.084 C  
HETATM   22  C   UNL     1      -7.593   7.371  67.065  1.00  0.00    -0.106 C  
ENDBRANCH  16  17
ENDBRANCH   4  16
TORSDOF 2
ENDMDL
MODEL       79
REMARK 921   NORMALIZED FREE ENERGY PREDICTED BY IDOCK:   -4.37 KCAL/MOL
REMARK 922        TOTAL FREE ENERGY PREDICTED BY IDOCK:   -5.58 KCAL/MOL
REMARK 923 INTER-LIGAND FREE ENERGY PREDICTED BY IDOCK:   -5.08 KCAL/MOL
REMARK 924 INTRA-LIGAND FREE ENERGY PREDICTED BY IDOCK:   -0.49 KCAL/MOL
REMARK 927      BINDING AFFINITY PREDICTED BY RF-SCORE:    0.00 PKD
ROOT
HETATM    1  O   UNL     1     -10.220  11.351  67.437  1.00  0.00    -0.188 OA 
HETATM    2  C   UNL     1     -10.024  12.747  67.136  1.00  0.00    -0.218 C  
HETATM    3  H   UNL     1     -11.158  11.216  67.502  1.00  0.00     0.000 HD 
HETATM    4  C   UNL     1      -8.483  12.967  67.030  1.00  0.00    -0.142 C  
HETATM    5  C   UNL     1     -10.648  12.996  65.729  1.00  0.00    -0.291 C  
HETATM    6  C   UNL     1     -10.668  13.542  68.285  1.00  0.00    -0.271 A  
HETATM    7  C   UNL     1     -12.149  12.713  65.569  1.00  0.00    -0.515 C  
HETATM    8  C   UNL     1     -10.198  14.809  68.676  1.00  0.00    -0.236 A  
HETATM    9  C   UNL     1     -10.424  14.387  65.107  1.00  0.00    -0.437 C  
HETATM   10  C   UNL     1     -10.632  15.413  69.863  1.00  0.00    -0.315 A  
HETATM   11  C   UNL     1     -12.524  13.504  64.323  1.00  0.00    -0.311 C  
HETATM   12  C   UNL     1     -11.688  12.970  69.068  1.00  0.00    -0.376 A  
HETATM   13  C   UNL     1     -11.759  14.803  64.501  1.00  0.00    -0.398 C  
HETATM   14  C   UNL     1     -11.590  14.791  70.653  1.00  0.00    -0.324 A  
HETATM   15  C   UNL     1     -12.145  13.584  70.241  1.00  0.00    -0.425 A  
ENDROOT
BRANCH   4  16
HETATM   16  C   UNL     1      -7.692  12.672  68.316  1.00  0.00    -0.135 C  
BRANCH  16  17
HETATM   17  N   UNL     1      -6.537  11.773  68.097  1.00  0.00    -0.054 NA 
HETATM   18  C   UNL     1      -5.492  11.847  69.131  1.00  0.00    -0.052 C  
HETATM   19  C   UNL     1      -6.467   9.897  70.398  1.00  0.00    -0.115 C  
HETATM   20  C   UNL     1      -5.931  11.321  70.498  1.00  0.00    -0.112 C  
HETATM   21  C   UNL     1      -7.489   9.757  69.272  1.00  0.00    -0.090 C  
HETATM   22  C   UNL     1      -6.984  10.373  67.963  1.00  0.00    -0.078 C  
ENDBRANCH  16  17
ENDBRANCH   4  16
TORSDOF 2
ENDMDL
MODEL       80
REMARK 921   NORMALIZED FREE ENERGY PREDICTED BY IDOCK:   -4.36 KCAL/MOL
REMARK 922        TOTAL FREE ENERGY PREDICTED BY IDOCK:   -5.56 KCAL/MOL
REMARK 923 INTER-LIGAND FREE ENERGY PREDICTED BY IDOCK:   -5.17 KCAL/MOL
REMARK 924 INTRA-LIGAND FREE ENERGY PREDICTED BY IDOCK:   -0.39 KCAL/MOL
REMARK 927      BINDING AFFINITY PREDICTED BY RF-SCORE:    0.00 PKD
ROOT
HETATM    1  O   UNL     1     -11.720   7.120  70.031  1.00  0.00    -0.523 OA 
HETATM    2  C   UNL     1     -10.299   7.182  70.270  1.00  0.00    -0.201 C  
HETATM    3  H   UNL     1     -11.844   6.542  69.287  1.00  0.00     0.000 HD 
HETATM    4  C   UNL     1     -10.095   8.132  71.491  1.00  0.00    -0.243 C  
HETATM    5  C   UNL     1      -9.850   5.749  70.690  1.00  0.00    -0.240 C  
HETATM    6  C   UNL     1      -9.655   7.715  68.979  1.00  0.00    -0.151 A  
HETATM    7  C   UNL     1     -10.081   4.619  69.677  1.00  0.00    -0.232 C  
HETATM    8  C   UNL     1      -8.462   8.460  68.988  1.00  0.00    -0.123 A  
HETATM    9  C   UNL     1      -8.392   5.589  71.160  1.00  0.00    -0.125 C  
HETATM   10  C   UNL     1      -8.017   9.136  67.845  1.00  0.00    -0.101 A  
HETATM   11  C   UNL     1      -9.122   3.531  70.141  1.00  0.00    -0.202 C  
HETATM   12  C   UNL     1     -10.309   7.572  67.740  1.00  0.00    -0.278 A  
HETATM   13  C   UNL     1      -7.873   4.312  70.509  1.00  0.00    -0.052 C  
HETATM   14  C   UNL     1      -8.722   9.032  66.653  1.00  0.00    -0.140 A  
HETATM   15  C   UNL     1      -9.851   8.224  66.589  1.00  0.00    -0.337 A  
ENDROOT
BRANCH   4  16
HETATM   16  C   UNL     1     -10.576   9.578  71.280  1.00  0.00    -0.288 C  
BRANCH  16  17
HETATM   17  N   UNL     1     -11.835   9.667  70.507  1.00  0.00    -0.247 NA 
HETATM   18  C   UNL     1     -13.037   9.937  71.313  1.00  0.00    -0.400 C  
HETATM   19  C   UNL     1     -12.882  12.419  70.893  1.00  0.00    -0.176 C  
HETATM   20  C   UNL     1     -13.062  11.330  71.945  1.00  0.00    -0.510 C  
HETATM   21  C   UNL     1     -11.697  12.127  69.974  1.00  0.00    -0.330 C  
HETATM   22  C   UNL     1     -11.726  10.688  69.447  1.00  0.00    -0.273 C  
ENDBRANCH  16  17
ENDBRANCH   4  16
TORSDOF 2
ENDMDL
MODEL       81
REMARK 921   NORMALIZED FREE ENERGY PREDICTED BY IDOCK:   -4.36 KCAL/MOL
REMARK 922        TOTAL FREE ENERGY PREDICTED BY IDOCK:   -5.56 KCAL/MOL
REMARK 923 INTER-LIGAND FREE ENERGY PREDICTED BY IDOCK:   -4.90 KCAL/MOL
REMARK 924 INTRA-LIGAND FREE ENERGY PREDICTED BY IDOCK:   -0.66 KCAL/MOL
REMARK 927      BINDING AFFINITY PREDICTED BY RF-SCORE:    0.00 PKD
ROOT
HETATM    1  O   UNL     1      -9.397  17.163  68.241  1.00  0.00    -0.249 OA 
HETATM    2  C   UNL     1      -8.279  17.069  67.335  1.00  0.00    -0.183 C  
HETATM    3  H   UNL     1      -9.123  17.731  68.951  1.00  0.00     0.000 HD 
HETATM    4  C   UNL     1      -8.728  16.135  66.169  1.00  0.00    -0.358 C  
HETATM    5  C   UNL     1      -8.050  18.497  66.753  1.00  0.00    -0.267 C  
HETATM    6  C   UNL     1      -7.101  16.498  68.143  1.00  0.00    -0.149 A  
HETATM    7  C   UNL     1      -7.720  19.616  67.751  1.00  0.00    -0.319 C  
HETATM    8  C   UNL     1      -6.089  15.724  67.548  1.00  0.00    -0.162 A  
HETATM    9  C   UNL     1      -7.006  18.629  65.628  1.00  0.00    -0.255 C  
HETATM   10  C   UNL     1      -5.161  15.017  68.324  1.00  0.00    -0.114 A  
HETATM   11  C   UNL     1      -7.079  20.687  66.879  1.00  0.00    -0.353 C  
HETATM   12  C   UNL     1      -7.059  16.637  69.544  1.00  0.00    -0.063 A  
HETATM   13  C   UNL     1      -6.195  19.880  65.944  1.00  0.00    -0.210 C  
HETATM   14  C   UNL     1      -5.187  15.118  69.709  1.00  0.00    -0.096 A  
HETATM   15  C   UNL     1      -6.115  15.954  70.320  1.00  0.00    -0.042 A  
ENDROOT
BRANCH   4  16
HETATM   16  C   UNL     1      -9.088  14.698  66.585  1.00  0.00    -0.258 C  
BRANCH  16  17
HETATM   17  N   UNL     1     -10.494  14.553  67.025  1.00  0.00    -0.267 NA 
HETATM   18  C   UNL     1     -11.484  14.541  65.935  1.00  0.00    -0.345 C  
HETATM   19  C   UNL     1     -11.499  12.021  65.842  1.00  0.00    -0.392 C  
HETATM   20  C   UNL     1     -11.400  13.309  65.032  1.00  0.00    -0.326 C  
HETATM   21  C   UNL     1     -10.552  12.033  67.040  1.00  0.00    -0.258 C  
HETATM   22  C   UNL     1     -10.662  13.335  67.841  1.00  0.00    -0.239 C  
ENDBRANCH  16  17
ENDBRANCH   4  16
TORSDOF 2
ENDMDL
MODEL       82
REMARK 921   NORMALIZED FREE ENERGY PREDICTED BY IDOCK:   -4.36 KCAL/MOL
REMARK 922        TOTAL FREE ENERGY PREDICTED BY IDOCK:   -5.56 KCAL/MOL
REMARK 923 INTER-LIGAND FREE ENERGY PREDICTED BY IDOCK:   -5.03 KCAL/MOL
REMARK 924 INTRA-LIGAND FREE ENERGY PREDICTED BY IDOCK:   -0.53 KCAL/MOL
REMARK 927      BINDING AFFINITY PREDICTED BY RF-SCORE:    0.00 PKD
ROOT
HETATM    1  O   UNL     1      -9.184   9.670  65.625  1.00  0.00    -0.181 OA 
HETATM    2  C   UNL     1      -9.701   9.159  66.869  1.00  0.00    -0.194 C  
HETATM    3  H   UNL     1      -8.404   9.165  65.427  1.00  0.00     0.000 HD 
HETATM    4  C   UNL     1     -10.982   9.990  67.193  1.00  0.00    -0.177 C  
HETATM    5  C   UNL     1     -10.133   7.685  66.607  1.00  0.00    -0.278 C  
HETATM    6  C   UNL     1      -8.589   9.337  67.917  1.00  0.00    -0.120 A  
HETATM    7  C   UNL     1      -9.043   6.708  66.145  1.00  0.00    -0.143 C  
HETATM    8  C   UNL     1      -8.867   9.533  69.281  1.00  0.00    -0.153 A  
HETATM    9  C   UNL     1     -10.873   6.964  67.750  1.00  0.00    -0.312 C  
HETATM   10  C   UNL     1      -7.868   9.927  70.180  1.00  0.00    -0.186 A  
HETATM   11  C   UNL     1      -9.635   5.342  66.469  1.00  0.00    -0.167 C  
HETATM   12  C   UNL     1      -7.240   9.424  67.522  1.00  0.00    -0.079 A  
HETATM   13  C   UNL     1     -10.278   5.564  67.826  1.00  0.00    -0.237 C  
HETATM   14  C   UNL     1      -6.557  10.073  69.746  1.00  0.00    -0.074 A  
HETATM   15  C   UNL     1      -6.234   9.791  68.424  1.00  0.00    -0.050 A  
ENDROOT
BRANCH   4  16
HETATM   16  C   UNL     1     -10.748  11.498  67.391  1.00  0.00    -0.232 C  
BRANCH  16  17
HETATM   17  N   UNL     1     -11.798  12.337  66.772  1.00  0.00    -0.591 NA 
HETATM   18  C   UNL     1     -11.748  13.762  67.139  1.00  0.00    -0.385 C  
HETATM   19  C   UNL     1     -10.402  14.347  65.089  1.00  0.00    -0.447 C  
HETATM   20  C   UNL     1     -10.522  14.501  66.602  1.00  0.00    -0.274 C  
HETATM   21  C   UNL     1     -10.542  12.890  64.657  1.00  0.00    -0.384 C  
HETATM   22  C   UNL     1     -11.760  12.218  65.301  1.00  0.00    -0.361 C  
ENDBRANCH  16  17
ENDBRANCH   4  16
TORSDOF 2
ENDMDL
MODEL       83
REMARK 921   NORMALIZED FREE ENERGY PREDICTED BY IDOCK:   -4.34 KCAL/MOL
REMARK 922        TOTAL FREE ENERGY PREDICTED BY IDOCK:   -5.54 KCAL/MOL
REMARK 923 INTER-LIGAND FREE ENERGY PREDICTED BY IDOCK:   -4.96 KCAL/MOL
REMARK 924 INTRA-LIGAND FREE ENERGY PREDICTED BY IDOCK:   -0.58 KCAL/MOL
REMARK 927      BINDING AFFINITY PREDICTED BY RF-SCORE:    0.00 PKD
ROOT
HETATM    1  O   UNL     1      -7.447  10.786  68.844  1.00  0.00    -0.097 OA 
HETATM    2  C   UNL     1      -8.677  10.383  68.210  1.00  0.00    -0.128 C  
HETATM    3  H   UNL     1      -7.102  10.015  69.280  1.00  0.00     0.000 HD 
HETATM    4  C   UNL     1      -9.244  11.649  67.494  1.00  0.00    -0.172 C  
HETATM    5  C   UNL     1      -8.300   9.336  67.118  1.00  0.00    -0.124 C  
HETATM    6  C   UNL     1      -9.599   9.859  69.324  1.00  0.00    -0.215 A  
HETATM    7  C   UNL     1      -7.603   8.052  67.590  1.00  0.00    -0.102 C  
HETATM    8  C   UNL     1     -11.000   9.945  69.241  1.00  0.00    -0.244 A  
HETATM    9  C   UNL     1      -9.432   8.870  66.183  1.00  0.00    -0.318 C  
HETATM   10  C   UNL     1     -11.814   9.686  70.352  1.00  0.00    -0.219 A  
HETATM   11  C   UNL     1      -7.836   7.083  66.438  1.00  0.00    -0.106 C  
HETATM   12  C   UNL     1      -9.060   9.375  70.531  1.00  0.00    -0.308 A  
HETATM   13  C   UNL     1      -9.277   7.360  66.046  1.00  0.00    -0.092 C  
HETATM   14  C   UNL     1     -11.247   9.276  71.552  1.00  0.00    -0.457 A  
HETATM   15  C   UNL     1      -9.872   9.088  71.635  1.00  0.00    -0.366 A  
ENDROOT
BRANCH   4  16
HETATM   16  C   UNL     1      -9.584  12.826  68.424  1.00  0.00    -0.175 C  
BRANCH  16  17
HETATM   17  N   UNL     1     -10.639  13.712  67.882  1.00  0.00    -0.245 NA 
HETATM   18  C   UNL     1     -11.986  13.474  68.425  1.00  0.00    -0.343 C  
HETATM   19  C   UNL     1     -11.706  15.270  70.174  1.00  0.00    -0.342 C  
HETATM   20  C   UNL     1     -12.132  13.830  69.906  1.00  0.00    -0.412 C  
HETATM   21  C   UNL     1     -10.352  15.585  69.544  1.00  0.00    -0.271 C  
HETATM   22  C   UNL     1     -10.282  15.130  68.082  1.00  0.00    -0.227 C  
ENDBRANCH  16  17
ENDBRANCH   4  16
TORSDOF 2
ENDMDL
MODEL       84
REMARK 921   NORMALIZED FREE ENERGY PREDICTED BY IDOCK:   -4.34 KCAL/MOL
REMARK 922        TOTAL FREE ENERGY PREDICTED BY IDOCK:   -5.54 KCAL/MOL
REMARK 923 INTER-LIGAND FREE ENERGY PREDICTED BY IDOCK:   -5.02 KCAL/MOL
REMARK 924 INTRA-LIGAND FREE ENERGY PREDICTED BY IDOCK:   -0.52 KCAL/MOL
REMARK 927      BINDING AFFINITY PREDICTED BY RF-SCORE:    0.00 PKD
ROOT
HETATM    1  O   UNL     1     -12.079  11.935  66.722  1.00  0.00    -0.593 OA 
HETATM    2  C   UNL     1     -10.834  12.383  67.293  1.00  0.00    -0.243 C  
HETATM    3  H   UNL     1     -12.730  11.995  67.411  1.00  0.00     0.000 HD 
HETATM    4  C   UNL     1      -9.764  12.284  66.161  1.00  0.00    -0.256 C  
HETATM    5  C   UNL     1     -11.019  13.888  67.655  1.00  0.00    -0.278 C  
HETATM    6  C   UNL     1     -10.535  11.458  68.485  1.00  0.00    -0.223 A  
HETATM    7  C   UNL     1     -12.122  14.234  68.665  1.00  0.00    -0.295 C  
HETATM    8  C   UNL     1      -9.223  11.170  68.901  1.00  0.00    -0.106 A  
HETATM    9  C   UNL     1      -9.768  14.646  68.136  1.00  0.00    -0.220 C  
HETATM   10  C   UNL     1      -8.958  10.151  69.825  1.00  0.00    -0.159 A  
HETATM   11  C   UNL     1     -11.718  15.615  69.165  1.00  0.00    -0.402 C  
HETATM   12  C   UNL     1     -11.577  10.769  69.136  1.00  0.00    -0.376 A  
HETATM   13  C   UNL     1     -10.213  15.495  69.320  1.00  0.00    -0.252 C  
HETATM   14  C   UNL     1     -10.004   9.440  70.399  1.00  0.00    -0.306 A  
HETATM   15  C   UNL     1     -11.317   9.769  70.081  1.00  0.00    -0.305 A  
ENDROOT
BRANCH   4  16
HETATM   16  C   UNL     1      -9.521  10.866  65.616  1.00  0.00    -0.215 C  
BRANCH  16  17
HETATM   17  N   UNL     1      -8.088  10.555  65.417  1.00  0.00    -0.156 NA 
HETATM   18  C   UNL     1      -7.540   9.546  66.337  1.00  0.00    -0.097 C  
HETATM   19  C   UNL     1      -7.932   7.681  64.685  1.00  0.00    -0.136 C  
HETATM   20  C   UNL     1      -8.107   8.141  66.129  1.00  0.00    -0.109 C  
HETATM   21  C   UNL     1      -8.403   8.742  63.693  1.00  0.00    -0.146 C  
HETATM   22  C   UNL     1      -7.836  10.127  64.027  1.00  0.00    -0.149 C  
ENDBRANCH  16  17
ENDBRANCH   4  16
TORSDOF 2
ENDMDL
MODEL       85
REMARK 921   NORMALIZED FREE ENERGY PREDICTED BY IDOCK:   -4.33 KCAL/MOL
REMARK 922        TOTAL FREE ENERGY PREDICTED BY IDOCK:   -5.53 KCAL/MOL
REMARK 923 INTER-LIGAND FREE ENERGY PREDICTED BY IDOCK:   -5.10 KCAL/MOL
REMARK 924 INTRA-LIGAND FREE ENERGY PREDICTED BY IDOCK:   -0.43 KCAL/MOL
REMARK 927      BINDING AFFINITY PREDICTED BY RF-SCORE:    0.00 PKD
ROOT
HETATM    1  O   UNL     1     -11.430   6.933  67.256  1.00  0.00    -0.697 OA 
HETATM    2  C   UNL     1     -10.299   7.512  67.936  1.00  0.00    -0.210 C  
HETATM    3  H   UNL     1     -11.383   5.996  67.401  1.00  0.00     0.000 HD 
HETATM    4  C   UNL     1     -10.376   9.052  67.697  1.00  0.00    -0.317 C  
HETATM    5  C   UNL     1     -10.504   7.246  69.459  1.00  0.00    -0.238 C  
HETATM    6  C   UNL     1      -9.040   6.872  67.327  1.00  0.00    -0.127 A  
HETATM    7  C   UNL     1     -10.590   5.781  69.908  1.00  0.00    -0.388 C  
HETATM    8  C   UNL     1      -7.809   7.548  67.264  1.00  0.00    -0.118 A  
HETATM    9  C   UNL     1      -9.503   7.913  70.421  1.00  0.00    -0.163 C  
HETATM   10  C   UNL     1      -6.743   7.054  66.501  1.00  0.00    -0.053 A  
HETATM   11  C   UNL     1     -10.279   5.852  71.397  1.00  0.00    -0.261 C  
HETATM   12  C   UNL     1      -9.110   5.613  66.698  1.00  0.00    -0.129 A  
HETATM   13  C   UNL     1      -9.144   6.858  71.460  1.00  0.00    -0.144 C  
HETATM   14  C   UNL     1      -6.865   5.842  65.835  1.00  0.00    -0.060 A  
HETATM   15  C   UNL     1      -8.036   5.103  65.958  1.00  0.00    -0.109 A  
ENDROOT
BRANCH   4  16
HETATM   16  C   UNL     1     -10.284   9.489  66.225  1.00  0.00    -0.220 C  
BRANCH  16  17
HETATM   17  N   UNL     1      -9.690  10.833  66.051  1.00  0.00    -0.208 NA 
HETATM   18  C   UNL     1      -9.546  11.270  64.653  1.00  0.00    -0.231 C  
HETATM   19  C   UNL     1     -11.742  12.507  64.708  1.00  0.00    -0.411 C  
HETATM   20  C   UNL     1     -10.875  11.517  63.938  1.00  0.00    -0.469 C  
HETATM   21  C   UNL     1     -11.841  12.141  66.187  1.00  0.00    -0.327 C  
HETATM   22  C   UNL     1     -10.465  11.846  66.794  1.00  0.00    -0.221 C  
ENDBRANCH  16  17
ENDBRANCH   4  16
TORSDOF 2
ENDMDL
MODEL       86
REMARK 921   NORMALIZED FREE ENERGY PREDICTED BY IDOCK:   -4.31 KCAL/MOL
REMARK 922        TOTAL FREE ENERGY PREDICTED BY IDOCK:   -5.51 KCAL/MOL
REMARK 923 INTER-LIGAND FREE ENERGY PREDICTED BY IDOCK:   -4.86 KCAL/MOL
REMARK 924 INTRA-LIGAND FREE ENERGY PREDICTED BY IDOCK:   -0.65 KCAL/MOL
REMARK 927      BINDING AFFINITY PREDICTED BY RF-SCORE:    0.00 PKD
ROOT
HETATM    1  O   UNL     1     -11.143   6.255  66.577  1.00  0.00    -0.687 OA 
HETATM    2  C   UNL     1      -9.944   6.443  67.356  1.00  0.00    -0.138 C  
HETATM    3  H   UNL     1     -10.986   6.665  65.735  1.00  0.00     0.000 HD 
HETATM    4  C   UNL     1     -10.202   5.769  68.739  1.00  0.00    -0.255 C  
HETATM    5  C   UNL     1      -8.810   5.652  66.635  1.00  0.00    -0.119 C  
HETATM    6  C   UNL     1      -9.716   7.961  67.459  1.00  0.00    -0.204 A  
HETATM    7  C   UNL     1      -8.474   6.066  65.195  1.00  0.00    -0.112 C  
HETATM    8  C   UNL     1      -9.071   8.549  68.561  1.00  0.00    -0.135 A  
HETATM    9  C   UNL     1      -7.456   5.562  67.364  1.00  0.00    -0.084 C  
HETATM   10  C   UNL     1      -9.081   9.936  68.756  1.00  0.00    -0.147 A  
HETATM   11  C   UNL     1      -7.075   5.501  64.985  1.00  0.00    -0.061 C  
HETATM   12  C   UNL     1     -10.257   8.833  66.495  1.00  0.00    -0.314 A  
HETATM   13  C   UNL     1      -6.386   5.799  66.305  1.00  0.00    -0.039 C  
HETATM   14  C   UNL     1      -9.683  10.769  67.822  1.00  0.00    -0.179 A  
HETATM   15  C   UNL     1     -10.244  10.222  66.673  1.00  0.00    -0.294 A  
ENDROOT
BRANCH   4  16
HETATM   16  C   UNL     1     -11.362   6.371  69.552  1.00  0.00    -0.393 C  
BRANCH  16  17
HETATM   17  N   UNL     1     -11.382   5.921  70.961  1.00  0.00    -0.222 NA 
HETATM   18  C   UNL     1     -10.091   6.022  71.661  1.00  0.00    -0.190 C  
HETATM   19  C   UNL     1     -10.673   8.280  72.621  1.00  0.00    -0.384 C  
HETATM   20  C   UNL     1      -9.617   7.458  71.889  1.00  0.00    -0.174 C  
HETATM   21  C   UNL     1     -12.050   8.128  71.980  1.00  0.00    -0.388 C  
HETATM   22  C   UNL     1     -12.404   6.658  71.729  1.00  0.00    -0.337 C  
ENDBRANCH  16  17
ENDBRANCH   4  16
TORSDOF 2
ENDMDL
MODEL       87
REMARK 921   NORMALIZED FREE ENERGY PREDICTED BY IDOCK:   -4.31 KCAL/MOL
REMARK 922        TOTAL FREE ENERGY PREDICTED BY IDOCK:   -5.51 KCAL/MOL
REMARK 923 INTER-LIGAND FREE ENERGY PREDICTED BY IDOCK:   -5.14 KCAL/MOL
REMARK 924 INTRA-LIGAND FREE ENERGY PREDICTED BY IDOCK:   -0.36 KCAL/MOL
REMARK 927      BINDING AFFINITY PREDICTED BY RF-SCORE:    0.00 PKD
ROOT
HETATM    1  O   UNL     1      -8.631  14.563  69.826  1.00  0.00    -0.285 OA 
HETATM    2  C   UNL     1      -8.145  14.314  68.492  1.00  0.00    -0.147 C  
HETATM    3  H   UNL     1      -8.922  13.726  70.168  1.00  0.00     0.000 HD 
HETATM    4  C   UNL     1      -7.668  15.689  67.929  1.00  0.00    -0.143 C  
HETATM    5  C   UNL     1      -6.898  13.388  68.632  1.00  0.00    -0.098 C  
HETATM    6  C   UNL     1      -9.317  13.713  67.697  1.00  0.00    -0.215 A  
HETATM    7  C   UNL     1      -7.115  12.017  69.288  1.00  0.00     0.019 C  
HETATM    8  C   UNL     1      -9.452  13.891  66.309  1.00  0.00    -0.235 A  
HETATM    9  C   UNL     1      -6.095  13.107  67.348  1.00  0.00    -0.028 C  
HETATM   10  C   UNL     1     -10.635  13.547  65.642  1.00  0.00    -0.284 A  
HETATM   11  C   UNL     1      -5.909  11.211  68.824  1.00  0.00    -0.043 C  
HETATM   12  C   UNL     1     -10.369  13.054  68.362  1.00  0.00    -0.257 A  
HETATM   13  C   UNL     1      -5.768  11.619  67.368  1.00  0.00    -0.088 C  
HETATM   14  C   UNL     1     -11.684  12.961  66.337  1.00  0.00    -0.454 A  
HETATM   15  C   UNL     1     -11.542  12.683  67.692  1.00  0.00    -0.414 A  
ENDROOT
BRANCH   4  16
HETATM   16  C   UNL     1      -8.764  16.761  67.812  1.00  0.00    -0.210 C  
BRANCH  16  17
HETATM   17  N   UNL     1      -8.243  18.087  67.411  1.00  0.00    -0.222 NA 
HETATM   18  C   UNL     1      -8.803  18.618  66.157  1.00  0.00    -0.118 C  
HETATM   19  C   UNL     1     -10.561  19.944  67.386  1.00  0.00    -0.505 C  
HETATM   20  C   UNL     1     -10.287  18.975  66.240  1.00  0.00    -0.530 C  
HETATM   21  C   UNL     1      -9.916  19.475  68.689  1.00  0.00    -0.538 C  
HETATM   22  C   UNL     1      -8.450  19.076  68.487  1.00  0.00    -0.352 C  
ENDBRANCH  16  17
ENDBRANCH   4  16
TORSDOF 2
ENDMDL
MODEL       88
REMARK 921   NORMALIZED FREE ENERGY PREDICTED BY IDOCK:   -4.29 KCAL/MOL
REMARK 922        TOTAL FREE ENERGY PREDICTED BY IDOCK:   -5.49 KCAL/MOL
REMARK 923 INTER-LIGAND FREE ENERGY PREDICTED BY IDOCK:   -4.89 KCAL/MOL
REMARK 924 INTRA-LIGAND FREE ENERGY PREDICTED BY IDOCK:   -0.60 KCAL/MOL
REMARK 927      BINDING AFFINITY PREDICTED BY RF-SCORE:    0.00 PKD
ROOT
HETATM    1  O   UNL     1      -7.360  11.559  68.271  1.00  0.00    -0.080 OA 
HETATM    2  C   UNL     1      -8.584  11.785  67.544  1.00  0.00    -0.157 C  
HETATM    3  H   UNL     1      -7.287  10.619  68.393  1.00  0.00     0.000 HD 
HETATM    4  C   UNL     1      -8.704  13.328  67.345  1.00  0.00    -0.206 C  
HETATM    5  C   UNL     1      -8.405  11.127  66.143  1.00  0.00    -0.144 C  
HETATM    6  C   UNL     1      -9.721  11.199  68.399  1.00  0.00    -0.191 A  
HETATM    7  C   UNL     1      -8.140   9.615  66.108  1.00  0.00    -0.108 C  
HETATM    8  C   UNL     1     -11.028  11.716  68.365  1.00  0.00    -0.265 A  
HETATM    9  C   UNL     1      -9.523  11.373  65.112  1.00  0.00    -0.223 C  
HETATM   10  C   UNL     1     -11.988  11.335  69.312  1.00  0.00    -0.411 A  
HETATM   11  C   UNL     1      -8.516   9.226  64.684  1.00  0.00    -0.192 C  
HETATM   12  C   UNL     1      -9.459  10.186  69.342  1.00  0.00    -0.240 A  
HETATM   13  C   UNL     1      -9.778  10.033  64.433  1.00  0.00    -0.277 C  
HETATM   14  C   UNL     1     -11.679  10.383  70.275  1.00  0.00    -0.406 A  
HETATM   15  C   UNL     1     -10.425   9.782  70.272  1.00  0.00    -0.345 A  
ENDROOT
BRANCH   4  16
HETATM   16  C   UNL     1      -8.797  14.148  68.643  1.00  0.00    -0.132 C  
BRANCH  16  17
HETATM   17  N   UNL     1      -9.343  15.508  68.436  1.00  0.00    -0.188 NA 
HETATM   18  C   UNL     1     -10.396  15.602  67.412  1.00  0.00    -0.275 C  
HETATM   19  C   UNL     1     -12.228  15.384  69.132  1.00  0.00    -0.192 C  
HETATM   20  C   UNL     1     -11.697  14.891  67.789  1.00  0.00    -0.340 C  
HETATM   21  C   UNL     1     -11.139  15.390  70.202  1.00  0.00    -0.324 C  
HETATM   22  C   UNL     1      -9.854  16.063  69.705  1.00  0.00    -0.196 C  
ENDBRANCH  16  17
ENDBRANCH   4  16
TORSDOF 2
ENDMDL
MODEL       89
REMARK 921   NORMALIZED FREE ENERGY PREDICTED BY IDOCK:   -4.29 KCAL/MOL
REMARK 922        TOTAL FREE ENERGY PREDICTED BY IDOCK:   -5.49 KCAL/MOL
REMARK 923 INTER-LIGAND FREE ENERGY PREDICTED BY IDOCK:   -4.85 KCAL/MOL
REMARK 924 INTRA-LIGAND FREE ENERGY PREDICTED BY IDOCK:   -0.64 KCAL/MOL
REMARK 927      BINDING AFFINITY PREDICTED BY RF-SCORE:    0.00 PKD
ROOT
HETATM    1  O   UNL     1      -8.598   9.795  70.947  1.00  0.00    -0.363 OA 
HETATM    2  C   UNL     1      -8.782   8.438  70.496  1.00  0.00    -0.147 C  
HETATM    3  H   UNL     1      -8.638   9.772  71.896  1.00  0.00     0.000 HD 
HETATM    4  C   UNL     1      -8.717   8.475  68.937  1.00  0.00    -0.131 C  
HETATM    5  C   UNL     1      -7.560   7.621  71.014  1.00  0.00    -0.083 C  
HETATM    6  C   UNL     1     -10.149   7.975  71.030  1.00  0.00    -0.213 A  
HETATM    7  C   UNL     1      -7.352   7.559  72.533  1.00  0.00    -0.081 C  
HETATM    8  C   UNL     1     -10.933   7.021  70.357  1.00  0.00    -0.301 A  
HETATM    9  C   UNL     1      -7.439   6.166  70.523  1.00  0.00    -0.090 C  
HETATM   10  C   UNL     1     -12.265   6.786  70.721  1.00  0.00    -0.353 A  
HETATM   11  C   UNL     1      -6.457   6.340  72.716  1.00  0.00    -0.063 C  
HETATM   12  C   UNL     1     -10.719   8.585  72.164  1.00  0.00    -0.426 A  
HETATM   13  C   UNL     1      -7.045   5.337  71.739  1.00  0.00    -0.075 C  
HETATM   14  C   UNL     1     -12.823   7.455  71.803  1.00  0.00    -0.365 A  
HETATM   15  C   UNL     1     -12.041   8.331  72.547  1.00  0.00    -0.400 A  
ENDROOT
BRANCH   4  16
HETATM   16  C   UNL     1      -9.807   9.323  68.259  1.00  0.00    -0.158 C  
BRANCH  16  17
HETATM   17  N   UNL     1      -9.426  10.745  68.102  1.00  0.00    -0.153 NA 
HETATM   18  C   UNL     1      -9.140  11.159  66.719  1.00  0.00    -0.166 C  
HETATM   19  C   UNL     1     -11.494  11.998  66.378  1.00  0.00    -0.417 C  
HETATM   20  C   UNL     1     -10.364  11.151  65.802  1.00  0.00    -0.316 C  
HETATM   21  C   UNL     1     -11.759  11.663  67.844  1.00  0.00    -0.329 C  
HETATM   22  C   UNL     1     -10.465  11.629  68.665  1.00  0.00    -0.213 C  
ENDBRANCH  16  17
ENDBRANCH   4  16
TORSDOF 2
ENDMDL
MODEL       90
REMARK 921   NORMALIZED FREE ENERGY PREDICTED BY IDOCK:   -4.29 KCAL/MOL
REMARK 922        TOTAL FREE ENERGY PREDICTED BY IDOCK:   -5.48 KCAL/MOL
REMARK 923 INTER-LIGAND FREE ENERGY PREDICTED BY IDOCK:   -4.79 KCAL/MOL
REMARK 924 INTRA-LIGAND FREE ENERGY PREDICTED BY IDOCK:   -0.69 KCAL/MOL
REMARK 927      BINDING AFFINITY PREDICTED BY RF-SCORE:    0.00 PKD
ROOT
HETATM    1  O   UNL     1      -8.927  12.119  68.861  1.00  0.00    -0.380 OA 
HETATM    2  C   UNL     1     -10.180  12.810  68.682  1.00  0.00    -0.152 C  
HETATM    3  H   UNL     1      -8.297  12.551  68.297  1.00  0.00     0.000 HD 
HETATM    4  C   UNL     1     -11.216  12.099  69.608  1.00  0.00    -0.137 C  
HETATM    5  C   UNL     1      -9.974  14.262  69.209  1.00  0.00     0.058 C  
HETATM    6  C   UNL     1     -10.536  12.702  67.189  1.00  0.00    -0.245 A  
HETATM    7  C   UNL     1      -8.896  15.111  68.519  1.00  0.00    -0.185 C  
HETATM    8  C   UNL     1     -11.866  12.693  66.733  1.00  0.00    -0.440 A  
HETATM    9  C   UNL     1     -11.224  15.160  69.276  1.00  0.00    -0.287 C  
HETATM   10  C   UNL     1     -12.181  12.359  65.410  1.00  0.00    -0.386 A  
HETATM   11  C   UNL     1      -9.286  16.537  68.885  1.00  0.00    -0.258 C  
HETATM   12  C   UNL     1      -9.530  12.490  66.227  1.00  0.00    -0.210 A  
HETATM   13  C   UNL     1     -10.798  16.523  68.746  1.00  0.00    -0.342 C  
HETATM   14  C   UNL     1     -11.169  12.086  64.499  1.00  0.00    -0.390 A  
HETATM   15  C   UNL     1      -9.840  12.183  64.896  1.00  0.00    -0.173 A  
ENDROOT
BRANCH   4  16
HETATM   16  C   UNL     1     -11.472  10.617  69.284  1.00  0.00    -0.281 C  
BRANCH  16  17
HETATM   17  N   UNL     1     -10.398   9.721  69.767  1.00  0.00    -0.227 NA 
HETATM   18  C   UNL     1     -10.335   9.564  71.230  1.00  0.00    -0.217 C  
HETATM   19  C   UNL     1     -11.734   7.467  71.166  1.00  0.00    -0.322 C  
HETATM   20  C   UNL     1     -11.533   8.826  71.829  1.00  0.00    -0.413 C  
HETATM   21  C   UNL     1     -11.711   7.572  69.643  1.00  0.00     0.400 C  
HETATM   22  C   UNL     1     -10.512   8.387  69.145  1.00  0.00    -0.206 C  
ENDBRANCH  16  17
ENDBRANCH   4  16
TORSDOF 2
ENDMDL
MODEL       91
REMARK 921   NORMALIZED FREE ENERGY PREDICTED BY IDOCK:   -4.29 KCAL/MOL
REMARK 922        TOTAL FREE ENERGY PREDICTED BY IDOCK:   -5.48 KCAL/MOL
REMARK 923 INTER-LIGAND FREE ENERGY PREDICTED BY IDOCK:   -4.79 KCAL/MOL
REMARK 924 INTRA-LIGAND FREE ENERGY PREDICTED BY IDOCK:   -0.69 KCAL/MOL
REMARK 927      BINDING AFFINITY PREDICTED BY RF-SCORE:    0.00 PKD
ROOT
HETATM    1  O   UNL     1      -7.588  10.967  66.063  1.00  0.00    -0.266 OA 
HETATM    2  C   UNL     1      -8.315   9.724  66.129  1.00  0.00    -0.120 C  
HETATM    3  H   UNL     1      -6.800  10.848  66.581  1.00  0.00     0.000 HD 
HETATM    4  C   UNL     1      -9.610   9.921  65.279  1.00  0.00    -0.361 C  
HETATM    5  C   UNL     1      -7.433   8.648  65.427  1.00  0.00    -0.086 C  
HETATM    6  C   UNL     1      -8.607   9.460  67.616  1.00  0.00    -0.116 A  
HETATM    7  C   UNL     1      -6.045   8.382  66.026  1.00  0.00    -0.045 C  
HETATM    8  C   UNL     1      -9.740   8.744  68.043  1.00  0.00    -0.183 A  
HETATM    9  C   UNL     1      -8.066   7.258  65.222  1.00  0.00    -0.134 C  
HETATM   10  C   UNL     1     -10.118   8.715  69.391  1.00  0.00    -0.204 A  
HETATM   11  C   UNL     1      -5.683   7.008  65.476  1.00  0.00    -0.032 C  
HETATM   12  C   UNL     1      -7.800  10.034  68.617  1.00  0.00    -0.091 A  
HETATM   13  C   UNL     1      -6.989   6.242  65.585  1.00  0.00    -0.057 C  
HETATM   14  C   UNL     1      -9.339   9.350  70.349  1.00  0.00    -0.317 A  
HETATM   15  C   UNL     1      -8.161   9.983  69.969  1.00  0.00    -0.154 A  
ENDROOT
BRANCH   4  16
HETATM   16  C   UNL     1     -10.559  11.023  65.782  1.00  0.00    -0.195 C  
BRANCH  16  17
HETATM   17  N   UNL     1     -10.075  12.390  65.487  1.00  0.00    -0.267 NA 
HETATM   18  C   UNL     1     -10.417  12.890  64.145  1.00  0.00    -0.406 C  
HETATM   19  C   UNL     1     -12.481  14.060  64.999  1.00  0.00    -0.446 C  
HETATM   20  C   UNL     1     -11.912  13.129  63.933  1.00  0.00    -0.550 C  
HETATM   21  C   UNL     1     -12.070  13.628  66.404  1.00  0.00    -0.478 C  
HETATM   22  C   UNL     1     -10.566  13.347  66.497  1.00  0.00    -0.287 C  
ENDBRANCH  16  17
ENDBRANCH   4  16
TORSDOF 2
ENDMDL
MODEL       92
REMARK 921   NORMALIZED FREE ENERGY PREDICTED BY IDOCK:   -4.27 KCAL/MOL
REMARK 922        TOTAL FREE ENERGY PREDICTED BY IDOCK:   -5.46 KCAL/MOL
REMARK 923 INTER-LIGAND FREE ENERGY PREDICTED BY IDOCK:   -5.55 KCAL/MOL
REMARK 924 INTRA-LIGAND FREE ENERGY PREDICTED BY IDOCK:    0.09 KCAL/MOL
REMARK 927      BINDING AFFINITY PREDICTED BY RF-SCORE:    0.00 PKD
ROOT
HETATM    1  O   UNL     1     -11.028  17.200  66.867  1.00  0.00    -0.077 OA 
HETATM    2  C   UNL     1     -10.204  16.039  67.092  1.00  0.00    -0.278 C  
HETATM    3  H   UNL     1     -11.024  17.696  67.677  1.00  0.00     0.000 HD 
HETATM    4  C   UNL     1     -10.210  15.224  65.761  1.00  0.00    -0.372 C  
HETATM    5  C   UNL     1      -8.754  16.556  67.338  1.00  0.00    -0.195 C  
HETATM    6  C   UNL     1     -10.831  15.272  68.269  1.00  0.00    -0.262 A  
HETATM    7  C   UNL     1      -8.538  17.492  68.535  1.00  0.00    -0.276 C  
HETATM    8  C   UNL     1     -10.720  13.876  68.399  1.00  0.00    -0.267 A  
HETATM    9  C   UNL     1      -7.646  15.490  67.444  1.00  0.00    -0.231 C  
HETATM   10  C   UNL     1     -11.487  13.168  69.333  1.00  0.00    -0.321 A  
HETATM   11  C   UNL     1      -7.040  17.393  68.792  1.00  0.00    -0.246 C  
HETATM   12  C   UNL     1     -11.646  15.938  69.204  1.00  0.00    -0.382 A  
HETATM   13  C   UNL     1      -6.760  15.911  68.610  1.00  0.00    -0.119 C  
HETATM   14  C   UNL     1     -12.336  13.846  70.198  1.00  0.00    -0.400 A  
HETATM   15  C   UNL     1     -12.393  15.235  70.158  1.00  0.00    -0.392 A  
ENDROOT
BRANCH   4  16
HETATM   16  C   UNL     1     -11.592  14.713  65.315  1.00  0.00    -0.354 C  
BRANCH  16  17
HETATM   17  N   UNL     1     -11.519  13.511  64.455  1.00  0.00    -0.366 NA 
HETATM   18  C   UNL     1     -10.175  12.925  64.324  1.00  0.00    -0.312 C  
HETATM   19  C   UNL     1     -10.603  11.278  66.186  1.00  0.00    -0.312 C  
HETATM   20  C   UNL     1      -9.635  12.311  65.617  1.00  0.00    -0.148 C  
HETATM   21  C   UNL     1     -12.030  11.817  66.251  1.00  0.00     0.211 C  
HETATM   22  C   UNL     1     -12.453  12.472  64.932  1.00  0.00    -0.450 C  
ENDBRANCH  16  17
ENDBRANCH   4  16
TORSDOF 2
ENDMDL
MODEL       93
REMARK 921   NORMALIZED FREE ENERGY PREDICTED BY IDOCK:   -4.26 KCAL/MOL
REMARK 922        TOTAL FREE ENERGY PREDICTED BY IDOCK:   -5.45 KCAL/MOL
REMARK 923 INTER-LIGAND FREE ENERGY PREDICTED BY IDOCK:   -4.79 KCAL/MOL
REMARK 924 INTRA-LIGAND FREE ENERGY PREDICTED BY IDOCK:   -0.66 KCAL/MOL
REMARK 927      BINDING AFFINITY PREDICTED BY RF-SCORE:    0.00 PKD
ROOT
HETATM    1  O   UNL     1      -6.918  16.063  67.394  1.00  0.00    -0.154 OA 
HETATM    2  C   UNL     1      -7.398  17.407  67.594  1.00  0.00    -0.175 C  
HETATM    3  H   UNL     1      -5.969  16.105  67.432  1.00  0.00     0.000 HD 
HETATM    4  C   UNL     1      -8.956  17.337  67.531  1.00  0.00    -0.222 C  
HETATM    5  C   UNL     1      -6.989  17.823  69.039  1.00  0.00    -0.236 C  
HETATM    6  C   UNL     1      -6.789  18.266  66.471  1.00  0.00    -0.249 A  
HETATM    7  C   UNL     1      -5.489  17.834  69.366  1.00  0.00    -0.201 C  
HETATM    8  C   UNL     1      -7.438  19.405  65.963  1.00  0.00    -0.305 A  
HETATM    9  C   UNL     1      -7.532  19.169  69.554  1.00  0.00    -0.015 C  
HETATM   10  C   UNL     1      -6.995  20.035  64.793  1.00  0.00     0.047 A  
HETATM   11  C   UNL     1      -5.405  18.729  70.596  1.00  0.00    -0.242 C  
HETATM   12  C   UNL     1      -5.601  17.867  65.829  1.00  0.00    -0.216 A  
HETATM   13  C   UNL     1      -6.372  19.853  70.267  1.00  0.00    -0.328 C  
HETATM   14  C   UNL     1      -5.857  19.576  64.141  1.00  0.00    -0.308 A  
HETATM   15  C   UNL     1      -5.139  18.512  64.675  1.00  0.00    -0.174 A  
ENDROOT
BRANCH   4  16
HETATM   16  C   UNL     1      -9.533  16.849  66.190  1.00  0.00    -0.245 C  
BRANCH  16  17
HETATM   17  N   UNL     1      -9.439  15.383  66.014  1.00  0.00    -0.330 NA 
HETATM   18  C   UNL     1      -9.963  14.590  67.139  1.00  0.00    -0.252 C  
HETATM   19  C   UNL     1     -12.221  14.341  66.043  1.00  0.00    -0.422 C  
HETATM   20  C   UNL     1     -11.477  14.699  67.325  1.00  0.00    -0.386 C  
HETATM   21  C   UNL     1     -11.645  15.073  64.833  1.00  0.00    -0.374 C  
HETATM   22  C   UNL     1     -10.117  14.962  64.772  1.00  0.00    -0.005 C  
ENDBRANCH  16  17
ENDBRANCH   4  16
TORSDOF 2
ENDMDL
MODEL       94
REMARK 921   NORMALIZED FREE ENERGY PREDICTED BY IDOCK:   -4.25 KCAL/MOL
REMARK 922        TOTAL FREE ENERGY PREDICTED BY IDOCK:   -5.44 KCAL/MOL
REMARK 923 INTER-LIGAND FREE ENERGY PREDICTED BY IDOCK:   -5.50 KCAL/MOL
REMARK 924 INTRA-LIGAND FREE ENERGY PREDICTED BY IDOCK:    0.07 KCAL/MOL
REMARK 927      BINDING AFFINITY PREDICTED BY RF-SCORE:    0.00 PKD
ROOT
HETATM    1  O   UNL     1      -9.691   8.502  70.393  1.00  0.00    -0.170 OA 
HETATM    2  C   UNL     1     -10.318   7.393  71.069  1.00  0.00    -0.195 C  
HETATM    3  H   UNL     1      -9.686   9.226  71.008  1.00  0.00     0.000 HD 
HETATM    4  C   UNL     1     -10.327   6.204  70.058  1.00  0.00    -0.267 C  
HETATM    5  C   UNL     1      -9.389   7.010  72.261  1.00  0.00    -0.150 C  
HETATM    6  C   UNL     1     -11.730   7.856  71.465  1.00  0.00    -0.317 A  
HETATM    7  C   UNL     1      -9.132   8.088  73.322  1.00  0.00    -0.349 C  
HETATM    8  C   UNL     1     -12.810   6.962  71.575  1.00  0.00    -0.384 A  
HETATM    9  C   UNL     1      -9.760   5.739  73.048  1.00  0.00    -0.164 C  
HETATM   10  C   UNL     1     -14.127   7.422  71.701  1.00  0.00    -0.552 A  
HETATM   11  C   UNL     1      -8.659   7.288  74.529  1.00  0.00    -0.230 C  
HETATM   12  C   UNL     1     -12.017   9.226  71.619  1.00  0.00    -0.448 A  
HETATM   13  C   UNL     1      -9.584   6.084  74.522  1.00  0.00    -0.232 C  
HETATM   14  C   UNL     1     -14.387   8.784  71.781  1.00  0.00    -0.414 A  
HETATM   15  C   UNL     1     -13.330   9.688  71.773  1.00  0.00    -0.505 A  
ENDROOT
BRANCH   4  16
HETATM   16  C   UNL     1     -11.128   6.451  68.768  1.00  0.00    -0.326 C  
BRANCH  16  17
HETATM   17  N   UNL     1     -10.457   5.928  67.556  1.00  0.00    -0.215 NA 
HETATM   18  C   UNL     1     -10.260   6.916  66.484  1.00  0.00    -0.057 C  
HETATM   19  C   UNL     1      -7.921   7.445  67.263  1.00  0.00    -0.115 C  
HETATM   20  C   UNL     1      -9.265   8.023  66.832  1.00  0.00    -0.191 C  
HETATM   21  C   UNL     1      -8.088   6.347  68.311  1.00  0.00    -0.113 C  
HETATM   22  C   UNL     1      -9.155   5.325  67.901  1.00  0.00    -0.110 C  
ENDBRANCH  16  17
ENDBRANCH   4  16
TORSDOF 2
ENDMDL
MODEL       95
REMARK 921   NORMALIZED FREE ENERGY PREDICTED BY IDOCK:   -4.21 KCAL/MOL
REMARK 922        TOTAL FREE ENERGY PREDICTED BY IDOCK:   -5.39 KCAL/MOL
REMARK 923 INTER-LIGAND FREE ENERGY PREDICTED BY IDOCK:   -5.55 KCAL/MOL
REMARK 924 INTRA-LIGAND FREE ENERGY PREDICTED BY IDOCK:    0.15 KCAL/MOL
REMARK 927      BINDING AFFINITY PREDICTED BY RF-SCORE:    0.00 PKD
ROOT
HETATM    1  O   UNL     1     -10.138   6.271  70.946  1.00  0.00    -0.184 OA 
HETATM    2  C   UNL     1     -10.290   7.683  70.700  1.00  0.00    -0.205 C  
HETATM    3  H   UNL     1     -10.786   5.831  70.407  1.00  0.00     0.000 HD 
HETATM    4  C   UNL     1      -9.227   8.405  71.585  1.00  0.00    -0.271 C  
HETATM    5  C   UNL     1      -9.920   7.922  69.204  1.00  0.00    -0.184 C  
HETATM    6  C   UNL     1     -11.736   8.047  71.080  1.00  0.00    -0.307 A  
HETATM    7  C   UNL     1     -10.765   7.195  68.149  1.00  0.00    -0.214 C  
HETATM    8  C   UNL     1     -12.089   9.324  71.550  1.00  0.00    -0.435 A  
HETATM    9  C   UNL     1      -9.847   9.387  68.734  1.00  0.00    -0.172 C  
HETATM   10  C   UNL     1     -13.348   9.570  72.113  1.00  0.00    -0.545 A  
HETATM   11  C   UNL     1     -10.510   7.997  66.880  1.00  0.00    -0.387 C  
HETATM   12  C   UNL     1     -12.744   7.064  71.080  1.00  0.00    -0.361 A  
HETATM   13  C   UNL     1     -10.535   9.433  67.375  1.00  0.00    -0.343 C  
HETATM   14  C   UNL     1     -14.301   8.561  72.163  1.00  0.00    -0.529 A  
HETATM   15  C   UNL     1     -14.013   7.316  71.617  1.00  0.00    -0.488 A  
ENDROOT
BRANCH   4  16
HETATM   16  C   UNL     1      -9.388   8.195  73.100  1.00  0.00    -0.258 C  
BRANCH  16  17
HETATM   17  N   UNL     1      -8.099   8.008  73.804  1.00  0.00    -0.203 NA 
HETATM   18  C   UNL     1      -7.948   6.709  74.480  1.00  0.00    -0.125 C  
HETATM   19  C   UNL     1      -6.745   5.707  72.504  1.00  0.00    -0.072 C  
HETATM   20  C   UNL     1      -7.860   5.517  73.527  1.00  0.00    -0.103 C  
HETATM   21  C   UNL     1      -6.811   7.082  71.844  1.00  0.00    -0.060 C  
HETATM   22  C   UNL     1      -6.967   8.204  72.878  1.00  0.00    -0.100 C  
ENDBRANCH  16  17
ENDBRANCH   4  16
TORSDOF 2
ENDMDL
MODEL       96
REMARK 921   NORMALIZED FREE ENERGY PREDICTED BY IDOCK:   -4.17 KCAL/MOL
REMARK 922        TOTAL FREE ENERGY PREDICTED BY IDOCK:   -5.35 KCAL/MOL
REMARK 923 INTER-LIGAND FREE ENERGY PREDICTED BY IDOCK:   -4.67 KCAL/MOL
REMARK 924 INTRA-LIGAND FREE ENERGY PREDICTED BY IDOCK:   -0.68 KCAL/MOL
REMARK 927      BINDING AFFINITY PREDICTED BY RF-SCORE:    0.00 PKD
ROOT
HETATM    1  O   UNL     1     -11.524   8.095  69.593  1.00  0.00    -0.440 OA 
HETATM    2  C   UNL     1     -10.432   8.946  69.192  1.00  0.00    -0.223 C  
HETATM    3  H   UNL     1     -11.881   8.469  70.390  1.00  0.00     0.000 HD 
HETATM    4  C   UNL     1      -9.846   8.331  67.883  1.00  0.00    -0.207 C  
HETATM    5  C   UNL     1     -11.047  10.335  68.842  1.00  0.00    -0.278 C  
HETATM    6  C   UNL     1      -9.426   8.953  70.356  1.00  0.00    -0.227 A  
HETATM    7  C   UNL     1     -11.796  11.071  69.963  1.00  0.00    -0.435 C  
HETATM    8  C   UNL     1      -8.046   9.134  70.154  1.00  0.00    -0.145 A  
HETATM    9  C   UNL     1     -10.098  11.380  68.227  1.00  0.00    -0.204 C  
HETATM   10  C   UNL     1      -7.122   8.903  71.181  1.00  0.00    -0.103 A  
HETATM   11  C   UNL     1     -11.810  12.517  69.484  1.00  0.00    -0.375 C  
HETATM   12  C   UNL     1      -9.846   8.659  71.667  1.00  0.00    -0.351 A  
HETATM   13  C   UNL     1     -10.414  12.701  68.917  1.00  0.00    -0.109 C  
HETATM   14  C   UNL     1      -7.563   8.546  72.449  1.00  0.00    -0.088 A  
HETATM   15  C   UNL     1      -8.927   8.455  72.704  1.00  0.00    -0.304 A  
ENDROOT
BRANCH   4  16
HETATM   16  C   UNL     1      -9.275   6.910  68.029  1.00  0.00    -0.121 C  
BRANCH  16  17
HETATM   17  N   UNL     1     -10.319   5.860  68.035  1.00  0.00    -0.186 NA 
HETATM   18  C   UNL     1     -10.713   5.372  66.703  1.00  0.00    -0.236 C  
HETATM   19  C   UNL     1      -9.099   3.438  66.824  1.00  0.00    -0.183 C  
HETATM   20  C   UNL     1      -9.615   4.596  65.975  1.00  0.00    -0.189 C  
HETATM   21  C   UNL     1      -8.767   3.885  68.245  1.00  0.00    -0.126 C  
HETATM   22  C   UNL     1      -9.899   4.713  68.863  1.00  0.00    -0.140 C  
ENDBRANCH  16  17
ENDBRANCH   4  16
TORSDOF 2
ENDMDL
MODEL       97
REMARK 921   NORMALIZED FREE ENERGY PREDICTED BY IDOCK:   -4.17 KCAL/MOL
REMARK 922        TOTAL FREE ENERGY PREDICTED BY IDOCK:   -5.35 KCAL/MOL
REMARK 923 INTER-LIGAND FREE ENERGY PREDICTED BY IDOCK:   -5.08 KCAL/MOL
REMARK 924 INTRA-LIGAND FREE ENERGY PREDICTED BY IDOCK:   -0.27 KCAL/MOL
REMARK 927      BINDING AFFINITY PREDICTED BY RF-SCORE:    0.00 PKD
ROOT
HETATM    1  O   UNL     1      -8.798  14.156  69.349  1.00  0.00    -0.326 OA 
HETATM    2  C   UNL     1     -10.135  14.390  68.863  1.00  0.00    -0.200 C  
HETATM    3  H   UNL     1      -8.570  14.906  69.886  1.00  0.00     0.000 HD 
HETATM    4  C   UNL     1     -10.508  13.158  67.981  1.00  0.00    -0.245 C  
HETATM    5  C   UNL     1     -11.072  14.396  70.109  1.00  0.00    -0.073 C  
HETATM    6  C   UNL     1     -10.094  15.707  68.070  1.00  0.00    -0.224 A  
HETATM    7  C   UNL     1     -10.800  15.457  71.184  1.00  0.00    -0.162 C  
HETATM    8  C   UNL     1     -10.961  15.962  66.993  1.00  0.00    -0.189 A  
HETATM    9  C   UNL     1     -12.587  14.467  69.836  1.00  0.00    -0.217 C  
HETATM   10  C   UNL     1     -10.759  17.051  66.136  1.00  0.00    -0.099 A  
HETATM   11  C   UNL     1     -12.116  15.530  71.947  1.00  0.00    -0.489 C  
HETATM   12  C   UNL     1      -9.096  16.667  68.328  1.00  0.00    -0.218 A  
HETATM   13  C   UNL     1     -13.154  15.463  70.840  1.00  0.00    -0.528 C  
HETATM   14  C   UNL     1      -9.723  17.945  66.375  1.00  0.00    -0.321 A  
HETATM   15  C   UNL     1      -8.909  17.773  67.490  1.00  0.00    -0.243 A  
ENDROOT
BRANCH   4  16
HETATM   16  C   UNL     1      -9.614  12.945  66.746  1.00  0.00    -0.246 C  
BRANCH  16  17
HETATM   17  N   UNL     1      -8.675  11.811  66.896  1.00  0.00    -0.183 NA 
HETATM   18  C   UNL     1      -9.040  10.839  67.939  1.00  0.00    -0.150 C  
HETATM   19  C   UNL     1     -10.209   9.345  66.278  1.00  0.00    -0.284 C  
HETATM   20  C   UNL     1     -10.308  10.042  67.631  1.00  0.00    -0.272 C  
HETATM   21  C   UNL     1      -9.742  10.300  65.183  1.00  0.00    -0.364 C  
HETATM   22  C   UNL     1      -8.507  11.101  65.613  1.00  0.00    -0.043 C  
ENDBRANCH  16  17
ENDBRANCH   4  16
TORSDOF 2
ENDMDL
MODEL       98
REMARK 921   NORMALIZED FREE ENERGY PREDICTED BY IDOCK:   -4.16 KCAL/MOL
REMARK 922        TOTAL FREE ENERGY PREDICTED BY IDOCK:   -5.34 KCAL/MOL
REMARK 923 INTER-LIGAND FREE ENERGY PREDICTED BY IDOCK:   -4.82 KCAL/MOL
REMARK 924 INTRA-LIGAND FREE ENERGY PREDICTED BY IDOCK:   -0.52 KCAL/MOL
REMARK 927      BINDING AFFINITY PREDICTED BY RF-SCORE:    0.00 PKD
ROOT
HETATM    1  O   UNL     1     -11.198   8.979  68.634  1.00  0.00    -0.440 OA 
HETATM    2  C   UNL     1     -10.342   9.558  67.630  1.00  0.00    -0.244 C  
HETATM    3  H   UNL     1     -11.238   9.603  69.349  1.00  0.00     0.000 HD 
HETATM    4  C   UNL     1     -10.276   8.531  66.456  1.00  0.00    -0.286 C  
HETATM    5  C   UNL     1     -11.058  10.842  67.112  1.00  0.00    -0.297 C  
HETATM    6  C   UNL     1      -8.976   9.797  68.296  1.00  0.00    -0.119 A  
HETATM    7  C   UNL     1     -11.346  11.945  68.139  1.00  0.00    -0.350 C  
HETATM    8  C   UNL     1      -7.772   9.766  67.571  1.00  0.00    -0.095 A  
HETATM    9  C   UNL     1     -10.416  11.558  65.909  1.00  0.00    -0.303 C  
HETATM   10  C   UNL     1      -6.531   9.748  68.220  1.00  0.00    -0.056 A  
HETATM   11  C   UNL     1     -11.553  13.183  67.276  1.00  0.00    -0.404 C  
HETATM   12  C   UNL     1      -8.877   9.942  69.693  1.00  0.00    -0.224 A  
HETATM   13  C   UNL     1     -10.468  13.048  66.222  1.00  0.00    -0.285 C  
HETATM   14  C   UNL     1      -6.466   9.822  69.605  1.00  0.00    -0.049 A  
HETATM   15  C   UNL     1      -7.637   9.953  70.343  1.00  0.00    -0.118 A  
ENDROOT
BRANCH   4  16
HETATM   16  C   UNL     1      -9.677   7.162  66.820  1.00  0.00    -0.192 C  
BRANCH  16  17
HETATM   17  N   UNL     1     -10.701   6.114  67.031  1.00  0.00    -0.316 NA 
HETATM   18  C   UNL     1     -10.553   4.924  66.178  1.00  0.00    -0.271 C  
HETATM   19  C   UNL     1      -9.260   3.687  67.954  1.00  0.00    -0.223 C  
HETATM   20  C   UNL     1      -9.309   4.089  66.484  1.00  0.00    -0.192 C  
HETATM   21  C   UNL     1      -9.503   4.881  68.875  1.00  0.00    -0.202 C  
HETATM   22  C   UNL     1     -10.731   5.692  68.445  1.00  0.00    -0.156 C  
ENDBRANCH  16  17
ENDBRANCH   4  16
TORSDOF 2
ENDMDL
MODEL       99
REMARK 921   NORMALIZED FREE ENERGY PREDICTED BY IDOCK:   -4.16 KCAL/MOL
REMARK 922        TOTAL FREE ENERGY PREDICTED BY IDOCK:   -5.33 KCAL/MOL
REMARK 923 INTER-LIGAND FREE ENERGY PREDICTED BY IDOCK:   -4.93 KCAL/MOL
REMARK 924 INTRA-LIGAND FREE ENERGY PREDICTED BY IDOCK:   -0.41 KCAL/MOL
REMARK 927      BINDING AFFINITY PREDICTED BY RF-SCORE:    0.00 PKD
ROOT
HETATM    1  O   UNL     1      -8.630  10.958  69.430  1.00  0.00    -0.370 OA 
HETATM    2  C   UNL     1      -9.796  11.057  68.588  1.00  0.00    -0.193 C  
HETATM    3  H   UNL     1      -8.023  11.624  69.130  1.00  0.00     0.000 HD 
HETATM    4  C   UNL     1     -10.794   9.963  69.080  1.00  0.00    -0.242 C  
HETATM    5  C   UNL     1     -10.433  12.453  68.861  1.00  0.00    -0.118 C  
HETATM    6  C   UNL     1      -9.319  10.829  67.143  1.00  0.00    -0.171 A  
HETATM    7  C   UNL     1      -9.568  13.687  68.568  1.00  0.00    -0.165 C  
HETATM    8  C   UNL     1     -10.150  10.265  66.159  1.00  0.00    -0.307 A  
HETATM    9  C   UNL     1     -11.793  12.737  68.196  1.00  0.00    -0.372 C  
HETATM   10  C   UNL     1      -9.637   9.847  64.924  1.00  0.00    -0.356 A  
HETATM   11  C   UNL     1     -10.590  14.810  68.442  1.00  0.00    -0.242 C  
HETATM   12  C   UNL     1      -7.980  11.075  66.784  1.00  0.00    -0.152 A  
HETATM   13  C   UNL     1     -11.715  14.160  67.656  1.00  0.00    -0.421 C  
HETATM   14  C   UNL     1      -8.295  10.040  64.624  1.00  0.00    -0.167 A  
HETATM   15  C   UNL     1      -7.470  10.684  65.540  1.00  0.00    -0.063 A  
ENDROOT
BRANCH   4  16
HETATM   16  C   UNL     1     -10.282   8.516  68.968  1.00  0.00    -0.207 C  
BRANCH  16  17
HETATM   17  N   UNL     1     -10.658   7.674  70.126  1.00  0.00    -0.231 NA 
HETATM   18  C   UNL     1     -11.244   6.369  69.777  1.00  0.00    -0.419 C  
HETATM   19  C   UNL     1      -9.014   5.206  69.955  1.00  0.00    -0.139 C  
HETATM   20  C   UNL     1     -10.265   5.406  69.105  1.00  0.00    -0.302 C  
HETATM   21  C   UNL     1      -8.426   6.537  70.417  1.00  0.00    -0.131 C  
HETATM   22  C   UNL     1      -9.497   7.458  71.012  1.00  0.00    -0.157 C  
ENDBRANCH  16  17
ENDBRANCH   4  16
TORSDOF 2
ENDMDL
MODEL      100
REMARK 921   NORMALIZED FREE ENERGY PREDICTED BY IDOCK:   -4.14 KCAL/MOL
REMARK 922        TOTAL FREE ENERGY PREDICTED BY IDOCK:   -5.32 KCAL/MOL
REMARK 923 INTER-LIGAND FREE ENERGY PREDICTED BY IDOCK:   -4.91 KCAL/MOL
REMARK 924 INTRA-LIGAND FREE ENERGY PREDICTED BY IDOCK:   -0.40 KCAL/MOL
REMARK 927      BINDING AFFINITY PREDICTED BY RF-SCORE:    0.00 PKD
ROOT
HETATM    1  O   UNL     1      -9.196  13.726  68.972  1.00  0.00    -0.393 OA 
HETATM    2  C   UNL     1      -8.785  13.331  67.648  1.00  0.00    -0.195 C  
HETATM    3  H   UNL     1      -9.872  13.114  69.240  1.00  0.00     0.000 HD 
HETATM    4  C   UNL     1      -7.676  14.336  67.207  1.00  0.00    -0.145 C  
HETATM    5  C   UNL     1      -8.136  11.920  67.780  1.00  0.00    -0.146 C  
HETATM    6  C   UNL     1     -10.039  13.391  66.758  1.00  0.00    -0.260 A  
HETATM    7  C   UNL     1      -9.021  10.790  68.326  1.00  0.00    -0.143 C  
HETATM    8  C   UNL     1      -9.969  13.668  65.381  1.00  0.00    -0.236 A  
HETATM    9  C   UNL     1      -7.465  11.343  66.519  1.00  0.00    -0.068 C  
HETATM   10  C   UNL     1     -11.121  13.953  64.636  1.00  0.00    -0.389 A  
HETATM   11  C   UNL     1      -8.305   9.528  67.863  1.00  0.00    -0.115 C  
HETATM   12  C   UNL     1     -11.324  13.283  67.324  1.00  0.00    -0.347 A  
HETATM   13  C   UNL     1      -7.879   9.879  66.448  1.00  0.00    -0.107 C  
HETATM   14  C   UNL     1     -12.371  13.907  65.238  1.00  0.00    -0.485 A  
HETATM   15  C   UNL     1     -12.479  13.540  66.575  1.00  0.00    -0.309 A  
ENDROOT
BRANCH   4  16
HETATM   16  C   UNL     1      -8.127  15.805  67.116  1.00  0.00    -0.211 C  
BRANCH  16  17
HETATM   17  N   UNL     1      -7.091  16.699  66.551  1.00  0.00    -0.224 NA 
HETATM   18  C   UNL     1      -7.531  18.083  66.314  1.00  0.00    -0.277 C  
HETATM   19  C   UNL     1      -6.644  18.853  68.546  1.00  0.00    -0.268 C  
HETATM   20  C   UNL     1      -7.834  18.867  67.592  1.00  0.00    -0.265 C  
HETATM   21  C   UNL     1      -6.096  17.442  68.745  1.00  0.00    -0.174 C  
HETATM   22  C   UNL     1      -5.891  16.715  67.411  1.00  0.00    -0.158 C  
ENDBRANCH  16  17
ENDBRANCH   4  16
TORSDOF 2
ENDMDL
MODEL      101
REMARK 921   NORMALIZED FREE ENERGY PREDICTED BY IDOCK:   -4.13 KCAL/MOL
REMARK 922        TOTAL FREE ENERGY PREDICTED BY IDOCK:   -5.30 KCAL/MOL
REMARK 923 INTER-LIGAND FREE ENERGY PREDICTED BY IDOCK:   -5.10 KCAL/MOL
REMARK 924 INTRA-LIGAND FREE ENERGY PREDICTED BY IDOCK:   -0.20 KCAL/MOL
REMARK 927      BINDING AFFINITY PREDICTED BY RF-SCORE:    0.00 PKD
ROOT
HETATM    1  O   UNL     1     -12.760  13.737  67.886  1.00  0.00    -0.112 OA 
HETATM    2  C   UNL     1     -11.660  13.819  68.814  1.00  0.00    -0.328 C  
HETATM    3  H   UNL     1     -13.105  14.618  67.796  1.00  0.00     0.000 HD 
HETATM    4  C   UNL     1     -11.094  12.373  68.963  1.00  0.00    -0.288 C  
HETATM    5  C   UNL     1     -10.566  14.702  68.140  1.00  0.00    -0.237 C  
HETATM    6  C   UNL     1     -12.231  14.379  70.129  1.00  0.00    -0.401 A  
HETATM    7  C   UNL     1     -10.953  16.144  67.782  1.00  0.00    -0.293 C  
HETATM    8  C   UNL     1     -11.682  14.057  71.382  1.00  0.00     0.253 A  
HETATM    9  C   UNL     1      -9.214  14.809  68.870  1.00  0.00    -0.177 C  
HETATM   10  C   UNL     1     -12.347  14.377  72.573  1.00  0.00    -0.224 A  
HETATM   11  C   UNL     1      -9.607  16.843  67.641  1.00  0.00    -0.248 C  
HETATM   12  C   UNL     1     -13.410  15.149  70.126  1.00  0.00     0.192 A  
HETATM   13  C   UNL     1      -8.806  16.275  68.799  1.00  0.00    -0.243 C  
HETATM   14  C   UNL     1     -13.545  15.078  72.537  1.00  0.00    -0.569 A  
HETATM   15  C   UNL     1     -14.063  15.495  71.316  1.00  0.00    -0.347 A  
ENDROOT
BRANCH   4  16
HETATM   16  C   UNL     1     -12.083  11.341  69.531  1.00  0.00    -0.317 C  
BRANCH  16  17
HETATM   17  N   UNL     1     -11.802  10.977  70.938  1.00  0.00    -0.275 NA 
HETATM   18  C   UNL     1     -12.994  10.682  71.750  1.00  0.00    -0.472 C  
HETATM   19  C   UNL     1     -12.800   8.205  71.318  1.00  0.00    -0.199 C  
HETATM   20  C   UNL     1     -13.734   9.411  71.331  1.00  0.00    -0.309 C  
HETATM   21  C   UNL     1     -11.507   8.501  70.562  1.00  0.00    -0.198 C  
HETATM   22  C   UNL     1     -10.878   9.828  71.005  1.00  0.00    -0.308 C  
ENDBRANCH  16  17
ENDBRANCH   4  16
TORSDOF 2
ENDMDL
MODEL      102
REMARK 921   NORMALIZED FREE ENERGY PREDICTED BY IDOCK:   -4.10 KCAL/MOL
REMARK 922        TOTAL FREE ENERGY PREDICTED BY IDOCK:   -5.27 KCAL/MOL
REMARK 923 INTER-LIGAND FREE ENERGY PREDICTED BY IDOCK:   -4.74 KCAL/MOL
REMARK 924 INTRA-LIGAND FREE ENERGY PREDICTED BY IDOCK:   -0.53 KCAL/MOL
REMARK 927      BINDING AFFINITY PREDICTED BY RF-SCORE:    0.00 PKD
ROOT
HETATM    1  O   UNL     1      -8.116   7.917  67.607  1.00  0.00    -0.121 OA 
HETATM    2  C   UNL     1      -9.339   7.170  67.445  1.00  0.00    -0.127 C  
HETATM    3  H   UNL     1      -7.504   7.342  68.051  1.00  0.00     0.000 HD 
HETATM    4  C   UNL     1     -10.345   8.116  66.718  1.00  0.00    -0.361 C  
HETATM    5  C   UNL     1      -9.016   5.979  66.493  1.00  0.00    -0.137 C  
HETATM    6  C   UNL     1      -9.803   6.770  68.856  1.00  0.00    -0.146 A  
HETATM    7  C   UNL     1      -7.945   4.982  66.956  1.00  0.00    -0.103 C  
HETATM    8  C   UNL     1     -11.160   6.590  69.176  1.00  0.00    -0.387 A  
HETATM    9  C   UNL     1     -10.207   5.118  66.031  1.00  0.00    -0.215 C  
HETATM   10  C   UNL     1     -11.585   6.460  70.505  1.00  0.00    -0.424 A  
HETATM   11  C   UNL     1      -8.229   3.745  66.114  1.00  0.00    -0.101 C  
HETATM   12  C   UNL     1      -8.880   6.682  69.916  1.00  0.00    -0.144 A  
HETATM   13  C   UNL     1      -9.746   3.669  66.122  1.00  0.00    -0.092 C  
HETATM   14  C   UNL     1     -10.656   6.447  71.537  1.00  0.00    -0.273 A  
HETATM   15  C   UNL     1      -9.299   6.525  71.243  1.00  0.00    -0.158 A  
ENDROOT
BRANCH   4  16
HETATM   16  C   UNL     1     -10.703   9.400  67.485  1.00  0.00    -0.222 C  
BRANCH  16  17
HETATM   17  N   UNL     1      -9.812  10.538  67.167  1.00  0.00    -0.171 NA 
HETATM   18  C   UNL     1      -9.328  10.575  65.777  1.00  0.00    -0.188 C  
HETATM   19  C   UNL     1     -11.180  12.133  65.068  1.00  0.00    -0.372 C  
HETATM   20  C   UNL     1     -10.422  10.849  64.744  1.00  0.00    -0.373 C  
HETATM   21  C   UNL     1     -11.619  12.177  66.530  1.00  0.00    -0.425 C  
HETATM   22  C   UNL     1     -10.470  11.821  67.481  1.00  0.00    -0.202 C  
ENDBRANCH  16  17
ENDBRANCH   4  16
TORSDOF 2
ENDMDL
MODEL      103
REMARK 921   NORMALIZED FREE ENERGY PREDICTED BY IDOCK:   -4.10 KCAL/MOL
REMARK 922        TOTAL FREE ENERGY PREDICTED BY IDOCK:   -5.27 KCAL/MOL
REMARK 923 INTER-LIGAND FREE ENERGY PREDICTED BY IDOCK:   -6.18 KCAL/MOL
REMARK 924 INTRA-LIGAND FREE ENERGY PREDICTED BY IDOCK:    0.91 KCAL/MOL
REMARK 927      BINDING AFFINITY PREDICTED BY RF-SCORE:    0.00 PKD
ROOT
HETATM    1  O   UNL     1     -12.359  15.960  68.933  1.00  0.00    -0.502 OA 
HETATM    2  C   UNL     1     -11.349  14.950  69.133  1.00  0.00    -0.292 C  
HETATM    3  H   UNL     1     -12.295  16.231  68.024  1.00  0.00     0.000 HD 
HETATM    4  C   UNL     1     -11.455  14.506  70.625  1.00  0.00    -0.216 C  
HETATM    5  C   UNL     1     -11.741  13.737  68.237  1.00  0.00    -0.394 C  
HETATM    6  C   UNL     1      -9.998  15.602  68.794  1.00  0.00    -0.213 A  
HETATM    7  C   UNL     1     -11.829  13.983  66.724  1.00  0.00    -0.450 C  
HETATM    8  C   UNL     1      -8.797  15.199  69.403  1.00  0.00    -0.172 A  
HETATM    9  C   UNL     1     -10.901  12.456  68.397  1.00  0.00    -0.263 C  
HETATM   10  C   UNL     1      -7.622  15.950  69.266  1.00  0.00    -0.221 A  
HETATM   11  C   UNL     1     -11.717  12.584  66.133  1.00  0.00    -0.466 C  
HETATM   12  C   UNL     1      -9.936  16.717  67.936  1.00  0.00    -0.268 A  
HETATM   13  C   UNL     1     -10.639  11.939  66.987  1.00  0.00    -0.260 C  
HETATM   14  C   UNL     1      -7.609  17.086  68.467  1.00  0.00    -0.231 A  
HETATM   15  C   UNL     1      -8.756  17.454  67.774  1.00  0.00    -0.232 A  
ENDROOT
BRANCH   4  16
HETATM   16  C   UNL     1     -11.188  15.617  71.656  1.00  0.00    -0.268 C  
BRANCH  16  17
HETATM   17  N   UNL     1     -12.025  15.497  72.872  1.00  0.00    -0.435 NA 
HETATM   18  C   UNL     1     -13.364  16.099  72.762  1.00  0.00    -0.246 C  
HETATM   19  C   UNL     1     -14.410  13.898  72.112  1.00  0.00    -0.530 C  
HETATM   20  C   UNL     1     -14.290  15.382  71.779  1.00  0.00    -0.639 C  
HETATM   21  C   UNL     1     -13.041  13.255  72.326  1.00  0.00    -0.474 C  
HETATM   22  C   UNL     1     -12.164  14.083  73.272  1.00  0.00     0.591 C  
ENDBRANCH  16  17
ENDBRANCH   4  16
TORSDOF 2
ENDMDL
MODEL      104
REMARK 921   NORMALIZED FREE ENERGY PREDICTED BY IDOCK:   -4.09 KCAL/MOL
REMARK 922        TOTAL FREE ENERGY PREDICTED BY IDOCK:   -5.26 KCAL/MOL
REMARK 923 INTER-LIGAND FREE ENERGY PREDICTED BY IDOCK:   -4.81 KCAL/MOL
REMARK 924 INTRA-LIGAND FREE ENERGY PREDICTED BY IDOCK:   -0.45 KCAL/MOL
REMARK 927      BINDING AFFINITY PREDICTED BY RF-SCORE:    0.00 PKD
ROOT
HETATM    1  O   UNL     1      -9.778  11.805  68.633  1.00  0.00    -0.268 OA 
HETATM    2  C   UNL     1      -9.779  11.186  67.330  1.00  0.00    -0.173 C  
HETATM    3  H   UNL     1      -9.293  12.617  68.546  1.00  0.00     0.000 HD 
HETATM    4  C   UNL     1     -10.575   9.852  67.472  1.00  0.00    -0.333 C  
HETATM    5  C   UNL     1     -10.579  12.130  66.383  1.00  0.00    -0.275 C  
HETATM    6  C   UNL     1      -8.306  10.969  66.943  1.00  0.00    -0.138 A  
HETATM    7  C   UNL     1     -10.040  13.556  66.197  1.00  0.00    -0.307 C  
HETATM    8  C   UNL     1      -7.898   9.915  66.105  1.00  0.00    -0.110 A  
HETATM    9  C   UNL     1     -10.862  11.609  64.961  1.00  0.00    -0.346 C  
HETATM   10  C   UNL     1      -6.545   9.587  65.953  1.00  0.00    -0.078 A  
HETATM   11  C   UNL     1     -10.695  14.012  64.899  1.00  0.00    -0.432 C  
HETATM   12  C   UNL     1      -7.291  11.759  67.515  1.00  0.00    -0.127 A  
HETATM   13  C   UNL     1     -10.602  12.778  64.019  1.00  0.00    -0.446 C  
HETATM   14  C   UNL     1      -5.567  10.344  66.586  1.00  0.00    -0.054 A  
HETATM   15  C   UNL     1      -5.936  11.451  67.342  1.00  0.00    -0.073 A  
ENDROOT
BRANCH   4  16
HETATM   16  C   UNL     1      -9.969   8.832  68.452  1.00  0.00    -0.179 C  
BRANCH  16  17
HETATM   17  N   UNL     1      -9.798   7.486  67.861  1.00  0.00    -0.149 NA 
HETATM   18  C   UNL     1      -8.647   6.726  68.376  1.00  0.00    -0.125 C  
HETATM   19  C   UNL     1     -10.069   5.536  70.085  1.00  0.00    -0.308 C  
HETATM   20  C   UNL     1      -8.779   6.314  69.843  1.00  0.00    -0.141 C  
HETATM   21  C   UNL     1     -11.279   6.247  69.482  1.00  0.00    -0.500 C  
HETATM   22  C   UNL     1     -11.023   6.680  68.034  1.00  0.00    -0.249 C  
ENDBRANCH  16  17
ENDBRANCH   4  16
TORSDOF 2
ENDMDL
MODEL      105
REMARK 921   NORMALIZED FREE ENERGY PREDICTED BY IDOCK:   -4.09 KCAL/MOL
REMARK 922        TOTAL FREE ENERGY PREDICTED BY IDOCK:   -5.26 KCAL/MOL
REMARK 923 INTER-LIGAND FREE ENERGY PREDICTED BY IDOCK:   -4.62 KCAL/MOL
REMARK 924 INTRA-LIGAND FREE ENERGY PREDICTED BY IDOCK:   -0.63 KCAL/MOL
REMARK 927      BINDING AFFINITY PREDICTED BY RF-SCORE:    0.00 PKD
ROOT
HETATM    1  O   UNL     1     -11.910   7.303  69.498  1.00  0.00    -0.352 OA 
HETATM    2  C   UNL     1     -10.675   7.838  70.013  1.00  0.00    -0.244 C  
HETATM    3  H   UNL     1     -11.944   6.392  69.766  1.00  0.00     0.000 HD 
HETATM    4  C   UNL     1     -10.620   9.334  69.574  1.00  0.00    -0.236 C  
HETATM    5  C   UNL     1     -10.777   7.792  71.568  1.00  0.00    -0.255 C  
HETATM    6  C   UNL     1      -9.540   6.992  69.409  1.00  0.00    -0.155 A  
HETATM    7  C   UNL     1     -10.969   6.414  72.217  1.00  0.00    -0.289 C  
HETATM    8  C   UNL     1      -8.258   7.517  69.170  1.00  0.00    -0.131 A  
HETATM    9  C   UNL     1      -9.638   8.464  72.358  1.00  0.00    -0.373 C  
HETATM   10  C   UNL     1      -7.314   6.817  68.408  1.00  0.00    -0.087 A  
HETATM   11  C   UNL     1     -10.528   6.640  73.657  1.00  0.00    -0.353 C  
HETATM   12  C   UNL     1      -9.786   5.679  68.964  1.00  0.00    -0.187 A  
HETATM   13  C   UNL     1      -9.298   7.517  73.503  1.00  0.00    -0.316 C  
HETATM   14  C   UNL     1      -7.610   5.550  67.922  1.00  0.00    -0.085 A  
HETATM   15  C   UNL     1      -8.834   4.964  68.226  1.00  0.00    -0.114 A  
ENDROOT
BRANCH   4  16
HETATM   16  C   UNL     1     -10.609   9.567  68.053  1.00  0.00    -0.230 C  
BRANCH  16  17
HETATM   17  N   UNL     1      -9.965  10.841  67.662  1.00  0.00    -0.170 NA 
HETATM   18  C   UNL     1      -8.504  10.771  67.501  1.00  0.00    -0.119 C  
HETATM   19  C   UNL     1      -8.695  10.380  65.018  1.00  0.00    -0.195 C  
HETATM   20  C   UNL     1      -8.048   9.916  66.318  1.00  0.00    -0.114 C  
HETATM   21  C   UNL     1     -10.204  10.555  65.169  1.00  0.00    -0.358 C  
HETATM   22  C   UNL     1     -10.562  11.367  66.419  1.00  0.00    -0.263 C  
ENDBRANCH  16  17
ENDBRANCH   4  16
TORSDOF 2
ENDMDL
MODEL      106
REMARK 921   NORMALIZED FREE ENERGY PREDICTED BY IDOCK:   -4.06 KCAL/MOL
REMARK 922        TOTAL FREE ENERGY PREDICTED BY IDOCK:   -5.22 KCAL/MOL
REMARK 923 INTER-LIGAND FREE ENERGY PREDICTED BY IDOCK:   -4.85 KCAL/MOL
REMARK 924 INTRA-LIGAND FREE ENERGY PREDICTED BY IDOCK:   -0.37 KCAL/MOL
REMARK 927      BINDING AFFINITY PREDICTED BY RF-SCORE:    0.00 PKD
ROOT
HETATM    1  O   UNL     1     -10.330  15.580  66.677  1.00  0.00    -0.272 OA 
HETATM    2  C   UNL     1     -11.055  14.357  66.912  1.00  0.00    -0.323 C  
HETATM    3  H   UNL     1      -9.681  15.387  66.010  1.00  0.00     0.000 HD 
HETATM    4  C   UNL     1     -12.119  14.674  68.008  1.00  0.00    -0.206 C  
HETATM    5  C   UNL     1     -11.807  14.018  65.589  1.00  0.00    -0.384 C  
HETATM    6  C   UNL     1     -10.023  13.308  67.362  1.00  0.00    -0.233 A  
HETATM    7  C   UNL     1     -10.951  13.793  64.335  1.00  0.00    -0.356 C  
HETATM    8  C   UNL     1     -10.357  12.248  68.222  1.00  0.00    -0.227 A  
HETATM    9  C   UNL     1     -12.791  12.833  65.634  1.00  0.00     0.254 C  
HETATM   10  C   UNL     1      -9.369  11.447  68.809  1.00  0.00    -0.115 A  
HETATM   11  C   UNL     1     -11.880  13.017  63.410  1.00  0.00    -0.543 C  
HETATM   12  C   UNL     1      -8.665  13.446  67.014  1.00  0.00    -0.195 A  
HETATM   13  C   UNL     1     -12.560  12.040  64.353  1.00  0.00    -0.292 C  
HETATM   14  C   UNL     1      -8.030  11.650  68.501  1.00  0.00    -0.144 A  
HETATM   15  C   UNL     1      -7.678  12.629  67.577  1.00  0.00    -0.161 A  
ENDROOT
BRANCH   4  16
HETATM   16  C   UNL     1     -11.546  15.120  69.364  1.00  0.00    -0.323 C  
BRANCH  16  17
HETATM   17  N   UNL     1     -11.835  14.170  70.461  1.00  0.00    -0.300 NA 
HETATM   18  C   UNL     1     -11.287  14.554  71.772  1.00  0.00     0.530 C  
HETATM   19  C   UNL     1     -13.449  15.650  72.468  1.00  0.00    -0.630 C  
HETATM   20  C   UNL     1     -11.934  15.801  72.377  1.00  0.00    -0.600 C  
HETATM   21  C   UNL     1     -14.048  15.161  71.151  1.00  0.00    -0.463 C  
HETATM   22  C   UNL     1     -13.289  13.952  70.592  1.00  0.00     0.134 C  
ENDBRANCH  16  17
ENDBRANCH   4  16
TORSDOF 2
ENDMDL
MODEL      107
REMARK 921   NORMALIZED FREE ENERGY PREDICTED BY IDOCK:   -4.02 KCAL/MOL
REMARK 922        TOTAL FREE ENERGY PREDICTED BY IDOCK:   -5.18 KCAL/MOL
REMARK 923 INTER-LIGAND FREE ENERGY PREDICTED BY IDOCK:   -4.63 KCAL/MOL
REMARK 924 INTRA-LIGAND FREE ENERGY PREDICTED BY IDOCK:   -0.55 KCAL/MOL
REMARK 927      BINDING AFFINITY PREDICTED BY RF-SCORE:    0.00 PKD
ROOT
HETATM    1  O   UNL     1     -11.322  15.144  69.242  1.00  0.00    -0.265 OA 
HETATM    2  C   UNL     1     -11.104  14.325  68.076  1.00  0.00    -0.269 C  
HETATM    3  H   UNL     1     -10.720  15.876  69.176  1.00  0.00     0.000 HD 
HETATM    4  C   UNL     1     -12.092  13.122  68.186  1.00  0.00    -0.224 C  
HETATM    5  C   UNL     1     -11.516  15.181  66.840  1.00  0.00    -0.215 C  
HETATM    6  C   UNL     1      -9.627  13.893  68.108  1.00  0.00    -0.218 A  
HETATM    7  C   UNL     1     -10.751  16.492  66.611  1.00  0.00    -0.150 C  
HETATM    8  C   UNL     1      -9.188  12.681  67.549  1.00  0.00    -0.190 A  
HETATM    9  C   UNL     1     -11.527  14.467  65.475  1.00  0.00    -0.343 C  
HETATM   10  C   UNL     1      -7.897  12.192  67.790  1.00  0.00    -0.148 A  
HETATM   11  C   UNL     1     -11.011  16.797  65.141  1.00  0.00    -0.109 C  
HETATM   12  C   UNL     1      -8.674  14.656  68.810  1.00  0.00    -0.166 A  
HETATM   13  C   UNL     1     -10.889  15.433  64.484  1.00  0.00    -0.140 C  
HETATM   14  C   UNL     1      -6.999  12.935  68.545  1.00  0.00    -0.098 A  
HETATM   15  C   UNL     1      -7.374  14.183  69.029  1.00  0.00    -0.102 A  
ENDROOT
BRANCH   4  16
HETATM   16  C   UNL     1     -11.885  12.218  69.414  1.00  0.00    -0.310 C  
BRANCH  16  17
HETATM   17  N   UNL     1     -12.137  10.787  69.133  1.00  0.00    -0.367 NA 
HETATM   18  C   UNL     1     -10.936   9.936  69.136  1.00  0.00    -0.200 C  
HETATM   19  C   UNL     1     -11.284   9.281  71.546  1.00  0.00    -0.457 C  
HETATM   20  C   UNL     1     -10.284   9.785  70.511  1.00  0.00    -0.321 C  
HETATM   21  C   UNL     1     -12.584  10.080  71.511  1.00  0.00    -0.525 C  
HETATM   22  C   UNL     1     -13.121  10.234  70.083  1.00  0.00     0.186 C  
ENDBRANCH  16  17
ENDBRANCH   4  16
TORSDOF 2
ENDMDL
MODEL      108
REMARK 921   NORMALIZED FREE ENERGY PREDICTED BY IDOCK:   -4.00 KCAL/MOL
REMARK 922        TOTAL FREE ENERGY PREDICTED BY IDOCK:   -5.16 KCAL/MOL
REMARK 923 INTER-LIGAND FREE ENERGY PREDICTED BY IDOCK:   -4.72 KCAL/MOL
REMARK 924 INTRA-LIGAND FREE ENERGY PREDICTED BY IDOCK:   -0.45 KCAL/MOL
REMARK 927      BINDING AFFINITY PREDICTED BY RF-SCORE:    0.00 PKD
ROOT
HETATM    1  O   UNL     1     -11.752  11.484  67.943  1.00  0.00    -0.489 OA 
HETATM    2  C   UNL     1     -10.843  11.410  66.827  1.00  0.00    -0.286 C  
HETATM    3  H   UNL     1     -11.942  12.405  68.077  1.00  0.00     0.000 HD 
HETATM    4  C   UNL     1     -10.530   9.897  66.606  1.00  0.00    -0.239 C  
HETATM    5  C   UNL     1     -11.617  11.933  65.578  1.00  0.00    -0.281 C  
HETATM    6  C   UNL     1      -9.600  12.230  67.213  1.00  0.00    -0.187 A  
HETATM    7  C   UNL     1     -12.138  13.376  65.632  1.00  0.00    -0.476 C  
HETATM    8  C   UNL     1      -8.319  11.931  66.716  1.00  0.00    -0.153 A  
HETATM    9  C   UNL     1     -10.908  11.802  64.217  1.00  0.00    -0.404 C  
HETATM   10  C   UNL     1      -7.171  12.527  67.254  1.00  0.00    -0.114 A  
HETATM   11  C   UNL     1     -12.362  13.722  64.165  1.00  0.00    -0.382 C  
HETATM   12  C   UNL     1      -9.687  13.249  68.181  1.00  0.00    -0.227 A  
HETATM   13  C   UNL     1     -11.149  13.115  63.483  1.00  0.00    -0.044 C  
HETATM   14  C   UNL     1      -7.284  13.480  68.258  1.00  0.00    -0.111 A  
HETATM   15  C   UNL     1      -8.543  13.868  68.701  1.00  0.00    -0.077 A  
ENDROOT
BRANCH   4  16
HETATM   16  C   UNL     1      -9.844   9.194  67.790  1.00  0.00    -0.174 C  
BRANCH  16  17
HETATM   17  N   UNL     1     -10.594   8.018  68.285  1.00  0.00    -0.150 NA 
HETATM   18  C   UNL     1     -10.798   6.952  67.290  1.00  0.00    -0.356 C  
HETATM   19  C   UNL     1      -8.763   5.689  68.078  1.00  0.00    -0.099 C  
HETATM   20  C   UNL     1      -9.512   6.239  66.869  1.00  0.00    -0.157 C  
HETATM   21  C   UNL     1      -8.612   6.740  69.176  1.00  0.00    -0.131 C  
HETATM   22  C   UNL     1      -9.940   7.445  69.477  1.00  0.00    -0.179 C  
ENDBRANCH  16  17
ENDBRANCH   4  16
TORSDOF 2
ENDMDL
MODEL      109
REMARK 921   NORMALIZED FREE ENERGY PREDICTED BY IDOCK:   -4.00 KCAL/MOL
REMARK 922        TOTAL FREE ENERGY PREDICTED BY IDOCK:   -5.16 KCAL/MOL
REMARK 923 INTER-LIGAND FREE ENERGY PREDICTED BY IDOCK:   -4.52 KCAL/MOL
REMARK 924 INTRA-LIGAND FREE ENERGY PREDICTED BY IDOCK:   -0.64 KCAL/MOL
REMARK 927      BINDING AFFINITY PREDICTED BY RF-SCORE:    0.00 PKD
ROOT
HETATM    1  O   UNL     1      -8.278   8.007  70.739  1.00  0.00    -0.107 OA 
HETATM    2  C   UNL     1      -9.463   7.489  70.101  1.00  0.00    -0.161 C  
HETATM    3  H   UNL     1      -8.479   8.898  71.000  1.00  0.00     0.000 HD 
HETATM    4  C   UNL     1      -9.132   6.026  69.671  1.00  0.00    -0.139 C  
HETATM    5  C   UNL     1     -10.575   7.435  71.191  1.00  0.00    -0.235 C  
HETATM    6  C   UNL     1      -9.763   8.413  68.908  1.00  0.00    -0.168 A  
HETATM    7  C   UNL     1     -10.972   8.762  71.853  1.00  0.00    -0.435 C  
HETATM    8  C   UNL     1     -10.406   7.951  67.745  1.00  0.00    -0.289 A  
HETATM    9  C   UNL     1     -11.902   6.760  70.796  1.00  0.00    -0.446 C  
HETATM   10  C   UNL     1     -10.461   8.732  66.584  1.00  0.00    -0.240 A  
HETATM   11  C   UNL     1     -12.346   8.465  72.439  1.00  0.00    -0.412 C  
HETATM   12  C   UNL     1      -9.295   9.740  68.894  1.00  0.00    -0.158 A  
HETATM   13  C   UNL     1     -13.012   7.646  71.348  1.00  0.00    -0.350 C  
HETATM   14  C   UNL     1      -9.927  10.015  66.579  1.00  0.00    -0.286 A  
HETATM   15  C   UNL     1      -9.373  10.534  67.743  1.00  0.00    -0.158 A  
ENDROOT
BRANCH   4  16
HETATM   16  C   UNL     1      -7.982   5.888  68.659  1.00  0.00    -0.103 C  
BRANCH  16  17
HETATM   17  N   UNL     1      -7.921   4.552  68.023  1.00  0.00    -0.084 NA 
HETATM   18  C   UNL     1      -9.230   3.925  67.776  1.00  0.00    -0.166 C  
HETATM   19  C   UNL     1      -9.307   4.788  65.407  1.00  0.00    -0.161 C  
HETATM   20  C   UNL     1     -10.072   4.640  66.718  1.00  0.00    -0.246 C  
HETATM   21  C   UNL     1      -7.905   5.349  65.632  1.00  0.00    -0.100 C  
HETATM   22  C   UNL     1      -7.168   4.611  66.755  1.00  0.00    -0.080 C  
ENDBRANCH  16  17
ENDBRANCH   4  16
TORSDOF 2
ENDMDL
MODEL      110
REMARK 921   NORMALIZED FREE ENERGY PREDICTED BY IDOCK:   -3.99 KCAL/MOL
REMARK 922        TOTAL FREE ENERGY PREDICTED BY IDOCK:   -5.15 KCAL/MOL
REMARK 923 INTER-LIGAND FREE ENERGY PREDICTED BY IDOCK:   -4.48 KCAL/MOL
REMARK 924 INTRA-LIGAND FREE ENERGY PREDICTED BY IDOCK:   -0.67 KCAL/MOL
REMARK 927      BINDING AFFINITY PREDICTED BY RF-SCORE:    0.00 PKD
ROOT
HETATM    1  O   UNL     1      -8.441   9.880  69.408  1.00  0.00    -0.137 OA 
HETATM    2  C   UNL     1      -9.734   9.762  68.780  1.00  0.00    -0.161 C  
HETATM    3  H   UNL     1      -7.813  10.019  68.710  1.00  0.00     0.000 HD 
HETATM    4  C   UNL     1     -10.766   9.532  69.927  1.00  0.00    -0.268 C  
HETATM    5  C   UNL     1     -10.041  11.140  68.119  1.00  0.00    -0.193 C  
HETATM    6  C   UNL     1      -9.645   8.575  67.805  1.00  0.00    -0.185 A  
HETATM    7  C   UNL     1      -9.066  11.631  67.039  1.00  0.00    -0.179 C  
HETATM    8  C   UNL     1     -10.763   7.787  67.479  1.00  0.00    -0.265 A  
HETATM    9  C   UNL     1     -11.447  11.322  67.517  1.00  0.00    -0.324 C  
HETATM   10  C   UNL     1     -10.625   6.578  66.785  1.00  0.00    -0.323 A  
HETATM   11  C   UNL     1      -9.880  12.669  66.278  1.00  0.00    -0.266 C  
HETATM   12  C   UNL     1      -8.401   8.164  67.289  1.00  0.00    -0.121 A  
HETATM   13  C   UNL     1     -11.250  12.021  66.177  1.00  0.00    -0.394 C  
HETATM   14  C   UNL     1      -9.374   6.163  66.348  1.00  0.00    -0.173 A  
HETATM   15  C   UNL     1      -8.264   6.970  66.570  1.00  0.00    -0.114 A  
ENDROOT
BRANCH   4  16
HETATM   16  C   UNL     1     -10.551   8.251  70.752  1.00  0.00    -0.210 C  
BRANCH  16  17
HETATM   17  N   UNL     1      -9.268   8.242  71.491  1.00  0.00    -0.160 NA 
HETATM   18  C   UNL     1      -9.393   8.403  72.949  1.00  0.00    -0.212 C  
HETATM   19  C   UNL     1      -9.358   5.909  73.327  1.00  0.00    -0.135 C  
HETATM   20  C   UNL     1     -10.066   7.221  73.649  1.00  0.00    -0.387 C  
HETATM   21  C   UNL     1      -9.124   5.748  71.826  1.00  0.00    -0.150 C  
HETATM   22  C   UNL     1      -8.511   7.008  71.205  1.00  0.00    -0.118 C  
ENDBRANCH  16  17
ENDBRANCH   4  16
TORSDOF 2
ENDMDL
MODEL      111
REMARK 921   NORMALIZED FREE ENERGY PREDICTED BY IDOCK:   -3.94 KCAL/MOL
REMARK 922        TOTAL FREE ENERGY PREDICTED BY IDOCK:   -5.09 KCAL/MOL
REMARK 923 INTER-LIGAND FREE ENERGY PREDICTED BY IDOCK:   -4.53 KCAL/MOL
REMARK 924 INTRA-LIGAND FREE ENERGY PREDICTED BY IDOCK:   -0.56 KCAL/MOL
REMARK 927      BINDING AFFINITY PREDICTED BY RF-SCORE:    0.00 PKD
ROOT
HETATM    1  O   UNL     1      -9.126  11.033  66.971  1.00  0.00    -0.146 OA 
HETATM    2  C   UNL     1     -10.052  11.156  68.068  1.00  0.00    -0.174 C  
HETATM    3  H   UNL     1      -8.257  11.153  67.335  1.00  0.00     0.000 HD 
HETATM    4  C   UNL     1     -11.480  10.960  67.470  1.00  0.00    -0.234 C  
HETATM    5  C   UNL     1      -9.765   9.969  69.037  1.00  0.00    -0.204 C  
HETATM    6  C   UNL     1      -9.841  12.556  68.671  1.00  0.00    -0.083 A  
HETATM    7  C   UNL     1      -8.359   9.890  69.649  1.00  0.00    -0.181 C  
HETATM    8  C   UNL     1     -10.877  13.265  69.303  1.00  0.00    -0.071 A  
HETATM    9  C   UNL     1     -10.738   9.785  70.216  1.00  0.00    -0.358 C  
HETATM   10  C   UNL     1     -10.738  14.619  69.633  1.00  0.00    -0.168 A  
HETATM   11  C   UNL     1      -8.556   8.995  70.866  1.00  0.00    -0.263 C  
HETATM   12  C   UNL     1      -8.615  13.229  68.505  1.00  0.00    -0.065 A  
HETATM   13  C   UNL     1      -9.876   9.482  71.436  1.00  0.00     0.012 C  
HETATM   14  C   UNL     1      -9.539  15.277  69.393  1.00  0.00    -0.245 A  
HETATM   15  C   UNL     1      -8.464  14.576  68.859  1.00  0.00    -0.110 A  
ENDROOT
BRANCH   4  16
HETATM   16  C   UNL     1     -11.894  12.001  66.415  1.00  0.00    -0.153 C  
BRANCH  16  17
HETATM   17  N   UNL     1     -10.871  12.207  65.366  1.00  0.00    -0.284 NA 
HETATM   18  C   UNL     1     -11.145  11.521  64.092  1.00  0.00    -0.344 C  
HETATM   19  C   UNL     1     -12.230  13.572  63.105  1.00  0.00    -0.023 C  
HETATM   20  C   UNL     1     -12.356  12.070  63.338  1.00  0.00    -0.635 C  
HETATM   21  C   UNL     1     -11.853  14.312  64.387  1.00  0.00    -0.444 C  
HETATM   22  C   UNL     1     -10.674  13.646  65.104  1.00  0.00    -0.353 C  
ENDBRANCH  16  17
ENDBRANCH   4  16
TORSDOF 2
ENDMDL
MODEL      112
REMARK 921   NORMALIZED FREE ENERGY PREDICTED BY IDOCK:   -3.93 KCAL/MOL
REMARK 922        TOTAL FREE ENERGY PREDICTED BY IDOCK:   -5.08 KCAL/MOL
REMARK 923 INTER-LIGAND FREE ENERGY PREDICTED BY IDOCK:   -4.61 KCAL/MOL
REMARK 924 INTRA-LIGAND FREE ENERGY PREDICTED BY IDOCK:   -0.46 KCAL/MOL
REMARK 927      BINDING AFFINITY PREDICTED BY RF-SCORE:    0.00 PKD
ROOT
HETATM    1  O   UNL     1     -10.910   6.849  69.421  1.00  0.00    -0.236 OA 
HETATM    2  C   UNL     1     -10.914   7.995  70.296  1.00  0.00    -0.242 C  
HETATM    3  H   UNL     1     -11.271   6.125  69.921  1.00  0.00     0.000 HD 
HETATM    4  C   UNL     1     -10.322   9.182  69.475  1.00  0.00    -0.220 C  
HETATM    5  C   UNL     1     -12.407   8.318  70.609  1.00  0.00     0.181 C  
HETATM    6  C   UNL     1     -10.057   7.622  71.518  1.00  0.00    -0.205 A  
HETATM    7  C   UNL     1     -13.228   7.225  71.307  1.00  0.00    -0.352 C  
HETATM    8  C   UNL     1      -9.341   8.583  72.253  1.00  0.00    -0.363 A  
HETATM    9  C   UNL     1     -12.685   9.610  71.401  1.00  0.00    -0.466 C  
HETATM   10  C   UNL     1      -8.385   8.208  73.207  1.00  0.00    -0.277 A  
HETATM   11  C   UNL     1     -14.400   7.993  71.904  1.00  0.00    -0.559 C  
HETATM   12  C   UNL     1      -9.867   6.273  71.875  1.00  0.00    -0.172 A  
HETATM   13  C   UNL     1     -13.743   9.254  72.438  1.00  0.00    -0.517 C  
HETATM   14  C   UNL     1      -8.169   6.866  73.488  1.00  0.00    -0.121 A  
HETATM   15  C   UNL     1      -8.933   5.896  72.847  1.00  0.00    -0.122 A  
ENDROOT
BRANCH   4  16
HETATM   16  C   UNL     1      -8.872   8.987  68.999  1.00  0.00    -0.136 C  
BRANCH  16  17
HETATM   17  N   UNL     1      -8.598   9.617  67.688  1.00  0.00    -0.125 NA 
HETATM   18  C   UNL     1      -7.327   9.217  67.063  1.00  0.00    -0.091 C  
HETATM   19  C   UNL     1      -8.448   7.417  65.699  1.00  0.00    -0.137 C  
HETATM   20  C   UNL     1      -7.283   7.753  66.624  1.00  0.00    -0.087 C  
HETATM   21  C   UNL     1      -9.780   7.901  66.269  1.00  0.00    -0.170 C  
HETATM   22  C   UNL     1      -9.702   9.356  66.744  1.00  0.00    -0.198 C  
ENDBRANCH  16  17
ENDBRANCH   4  16
TORSDOF 2
ENDMDL
MODEL      113
REMARK 921   NORMALIZED FREE ENERGY PREDICTED BY IDOCK:   -3.93 KCAL/MOL
REMARK 922        TOTAL FREE ENERGY PREDICTED BY IDOCK:   -5.08 KCAL/MOL
REMARK 923 INTER-LIGAND FREE ENERGY PREDICTED BY IDOCK:   -4.70 KCAL/MOL
REMARK 924 INTRA-LIGAND FREE ENERGY PREDICTED BY IDOCK:   -0.37 KCAL/MOL
REMARK 927      BINDING AFFINITY PREDICTED BY RF-SCORE:    0.00 PKD
ROOT
HETATM    1  O   UNL     1      -7.904  12.424  66.643  1.00  0.00    -0.387 OA 
HETATM    2  C   UNL     1      -8.725  11.247  66.506  1.00  0.00    -0.178 C  
HETATM    3  H   UNL     1      -7.026  12.121  66.845  1.00  0.00     0.000 HD 
HETATM    4  C   UNL     1     -10.166  11.747  66.176  1.00  0.00    -0.255 C  
HETATM    5  C   UNL     1      -8.188  10.463  65.271  1.00  0.00    -0.162 C  
HETATM    6  C   UNL     1      -8.643  10.492  67.844  1.00  0.00    -0.123 A  
HETATM    7  C   UNL     1      -6.730   9.984  65.326  1.00  0.00    -0.117 C  
HETATM    8  C   UNL     1      -9.697   9.693  68.320  1.00  0.00    -0.162 A  
HETATM    9  C   UNL     1      -9.006   9.241  64.816  1.00  0.00    -0.217 C  
HETATM   10  C   UNL     1      -9.708   9.207  69.634  1.00  0.00    -0.183 A  
HETATM   11  C   UNL     1      -6.685   8.878  64.280  1.00  0.00    -0.078 C  
HETATM   12  C   UNL     1      -7.541  10.673  68.702  1.00  0.00    -0.103 A  
HETATM   13  C   UNL     1      -7.995   8.144  64.504  1.00  0.00    -0.142 C  
HETATM   14  C   UNL     1      -8.636   9.460  70.481  1.00  0.00    -0.265 A  
HETATM   15  C   UNL     1      -7.536  10.165  70.007  1.00  0.00    -0.171 A  
ENDROOT
BRANCH   4  16
HETATM   16  C   UNL     1     -10.817  12.624  67.259  1.00  0.00    -0.248 C  
BRANCH  16  17
HETATM   17  N   UNL     1     -11.835  13.555  66.722  1.00  0.00    -0.386 NA 
HETATM   18  C   UNL     1     -12.151  14.696  67.596  1.00  0.00    -0.181 C  
HETATM   19  C   UNL     1     -10.501  16.190  66.410  1.00  0.00    -0.304 C  
HETATM   20  C   UNL     1     -11.000  15.690  67.762  1.00  0.00    -0.316 C  
HETATM   21  C   UNL     1     -10.250  15.037  65.440  1.00  0.00    -0.411 C  
HETATM   22  C   UNL     1     -11.431  14.061  65.396  1.00  0.00    -0.315 C  
ENDBRANCH  16  17
ENDBRANCH   4  16
TORSDOF 2
ENDMDL
MODEL      114
REMARK 921   NORMALIZED FREE ENERGY PREDICTED BY IDOCK:   -3.92 KCAL/MOL
REMARK 922        TOTAL FREE ENERGY PREDICTED BY IDOCK:   -5.07 KCAL/MOL
REMARK 923 INTER-LIGAND FREE ENERGY PREDICTED BY IDOCK:   -5.35 KCAL/MOL
REMARK 924 INTRA-LIGAND FREE ENERGY PREDICTED BY IDOCK:    0.28 KCAL/MOL
REMARK 927      BINDING AFFINITY PREDICTED BY RF-SCORE:    0.00 PKD
ROOT
HETATM    1  O   UNL     1     -11.026  15.529  69.246  1.00  0.00    -0.236 OA 
HETATM    2  C   UNL     1     -10.334  15.906  68.039  1.00  0.00    -0.262 C  
HETATM    3  H   UNL     1     -10.634  16.031  69.951  1.00  0.00     0.000 HD 
HETATM    4  C   UNL     1     -10.976  15.080  66.881  1.00  0.00    -0.324 C  
HETATM    5  C   UNL     1     -10.647  17.413  67.792  1.00  0.00    -0.371 C  
HETATM    6  C   UNL     1      -8.847  15.577  68.259  1.00  0.00    -0.179 A  
HETATM    7  C   UNL     1     -10.214  18.406  68.880  1.00  0.00    -0.284 C  
HETATM    8  C   UNL     1      -7.990  15.231  67.199  1.00  0.00    -0.251 A  
HETATM    9  C   UNL     1     -10.151  18.017  66.464  1.00  0.00    -0.379 C  
HETATM   10  C   UNL     1      -6.713  14.707  67.435  1.00  0.00    -0.039 A  
HETATM   11  C   UNL     1     -10.187  19.740  68.147  1.00  0.00    -0.577 C  
HETATM   12  C   UNL     1      -8.317  15.497  69.561  1.00  0.00    -0.206 A  
HETATM   13  C   UNL     1      -9.567  19.381  66.809  1.00  0.00    -0.424 C  
HETATM   14  C   UNL     1      -6.242  14.574  68.735  1.00  0.00    -0.087 A  
HETATM   15  C   UNL     1      -7.030  15.000  69.799  1.00  0.00    -0.182 A  
ENDROOT
BRANCH   4  16
HETATM   16  C   UNL     1     -10.841  13.554  67.016  1.00  0.00    -0.282 C  
BRANCH  16  17
HETATM   17  N   UNL     1     -10.507  13.117  68.390  1.00  0.00    -0.249 NA 
HETATM   18  C   UNL     1     -11.646  12.608  69.170  1.00  0.00    -0.320 C  
HETATM   19  C   UNL     1     -11.139  10.219  68.541  1.00  0.00    -0.294 C  
HETATM   20  C   UNL     1     -12.220  11.290  68.648  1.00  0.00    -0.035 C  
HETATM   21  C   UNL     1      -9.899  10.738  67.818  1.00  0.00    -0.186 C  
HETATM   22  C   UNL     1      -9.443  12.094  68.368  1.00  0.00    -0.179 C  
ENDBRANCH  16  17
ENDBRANCH   4  16
TORSDOF 2
ENDMDL
MODEL      115
REMARK 921   NORMALIZED FREE ENERGY PREDICTED BY IDOCK:   -3.92 KCAL/MOL
REMARK 922        TOTAL FREE ENERGY PREDICTED BY IDOCK:   -5.07 KCAL/MOL
REMARK 923 INTER-LIGAND FREE ENERGY PREDICTED BY IDOCK:   -4.42 KCAL/MOL
REMARK 924 INTRA-LIGAND FREE ENERGY PREDICTED BY IDOCK:   -0.64 KCAL/MOL
REMARK 927      BINDING AFFINITY PREDICTED BY RF-SCORE:    0.00 PKD
ROOT
HETATM    1  O   UNL     1     -10.935   6.339  69.791  1.00  0.00    -0.302 OA 
HETATM    2  C   UNL     1     -10.785   7.383  70.773  1.00  0.00    -0.232 C  
HETATM    3  H   UNL     1     -11.604   5.750  70.121  1.00  0.00     0.000 HD 
HETATM    4  C   UNL     1      -9.686   8.349  70.231  1.00  0.00    -0.178 C  
HETATM    5  C   UNL     1     -12.136   8.160  70.815  1.00  0.00    -0.070 C  
HETATM    6  C   UNL     1     -10.386   6.697  72.091  1.00  0.00    -0.222 A  
HETATM    7  C   UNL     1     -13.390   7.363  71.201  1.00  0.00    -0.251 C  
HETATM    8  C   UNL     1      -9.597   7.339  73.062  1.00  0.00    -0.219 A  
HETATM    9  C   UNL     1     -12.176   9.435  71.678  1.00  0.00    -0.467 C  
HETATM   10  C   UNL     1      -9.046   6.631  74.138  1.00  0.00    -0.203 A  
HETATM   11  C   UNL     1     -14.372   8.444  71.635  1.00  0.00    -0.536 C  
HETATM   12  C   UNL     1     -10.707   5.345  72.320  1.00  0.00    -0.287 A  
HETATM   13  C   UNL     1     -13.500   9.397  72.433  1.00  0.00    -0.506 C  
HETATM   14  C   UNL     1      -9.324   5.280  74.300  1.00  0.00    -0.131 A  
HETATM   15  C   UNL     1     -10.181   4.642  73.411  1.00  0.00    -0.217 A  
ENDROOT
BRANCH   4  16
HETATM   16  C   UNL     1      -8.298   7.714  70.038  1.00  0.00    -0.134 C  
BRANCH  16  17
HETATM   17  N   UNL     1      -8.065   7.230  68.659  1.00  0.00    -0.123 NA 
HETATM   18  C   UNL     1      -8.302   8.230  67.604  1.00  0.00    -0.127 C  
HETATM   19  C   UNL     1      -5.867   8.882  67.535  1.00  0.00    -0.043 C  
HETATM   20  C   UNL     1      -7.304   9.388  67.609  1.00  0.00    -0.084 C  
HETATM   21  C   UNL     1      -5.605   7.774  68.553  1.00  0.00    -0.028 C  
HETATM   22  C   UNL     1      -6.695   6.697  68.517  1.00  0.00    -0.064 C  
ENDBRANCH  16  17
ENDBRANCH   4  16
TORSDOF 2
ENDMDL
MODEL      116
REMARK 921   NORMALIZED FREE ENERGY PREDICTED BY IDOCK:   -3.91 KCAL/MOL
REMARK 922        TOTAL FREE ENERGY PREDICTED BY IDOCK:   -5.06 KCAL/MOL
REMARK 923 INTER-LIGAND FREE ENERGY PREDICTED BY IDOCK:   -4.41 KCAL/MOL
REMARK 924 INTRA-LIGAND FREE ENERGY PREDICTED BY IDOCK:   -0.65 KCAL/MOL
REMARK 927      BINDING AFFINITY PREDICTED BY RF-SCORE:    0.00 PKD
ROOT
HETATM    1  O   UNL     1     -11.311   5.966  70.098  1.00  0.00    -0.338 OA 
HETATM    2  C   UNL     1     -10.869   7.157  70.779  1.00  0.00    -0.244 C  
HETATM    3  H   UNL     1     -12.007   5.594  70.627  1.00  0.00     0.000 HD 
HETATM    4  C   UNL     1      -9.726   7.768  69.911  1.00  0.00    -0.176 C  
HETATM    5  C   UNL     1     -12.069   8.153  70.771  1.00  0.00    -0.070 C  
HETATM    6  C   UNL     1     -10.395   6.719  72.176  1.00  0.00    -0.221 A  
HETATM    7  C   UNL     1     -13.361   7.698  71.465  1.00  0.00    -0.383 C  
HETATM    8  C   UNL     1      -9.389   7.407  72.877  1.00  0.00    -0.210 A  
HETATM    9  C   UNL     1     -11.796   9.573  71.301  1.00  0.00    -0.450 C  
HETATM   10  C   UNL     1      -8.805   6.867  74.030  1.00  0.00    -0.198 A  
HETATM   11  C   UNL     1     -14.099   9.005  71.724  1.00  0.00    -0.377 C  
HETATM   12  C   UNL     1     -10.879   5.530  72.755  1.00  0.00    -0.308 A  
HETATM   13  C   UNL     1     -12.989   9.938  72.175  1.00  0.00    -0.471 C  
HETATM   14  C   UNL     1      -9.256   5.656  74.540  1.00  0.00    -0.129 A  
HETATM   15  C   UNL     1     -10.316   5.001  73.923  1.00  0.00    -0.289 A  
ENDROOT
BRANCH   4  16
HETATM   16  C   UNL     1      -8.490   6.868  69.735  1.00  0.00    -0.133 C  
BRANCH  16  17
HETATM   17  N   UNL     1      -8.802   5.565  69.108  1.00  0.00    -0.102 NA 
HETATM   18  C   UNL     1      -8.525   5.491  67.664  1.00  0.00    -0.102 C  
HETATM   19  C   UNL     1      -6.242   4.491  68.052  1.00  0.00    -0.036 C  
HETATM   20  C   UNL     1      -7.038   5.561  67.311  1.00  0.00    -0.074 C  
HETATM   21  C   UNL     1      -6.572   4.472  69.542  1.00  0.00    -0.036 C  
HETATM   22  C   UNL     1      -8.084   4.472  69.793  1.00  0.00    -0.060 C  
ENDBRANCH  16  17
ENDBRANCH   4  16
TORSDOF 2
ENDMDL
MODEL      117
REMARK 921   NORMALIZED FREE ENERGY PREDICTED BY IDOCK:   -3.88 KCAL/MOL
REMARK 922        TOTAL FREE ENERGY PREDICTED BY IDOCK:   -5.02 KCAL/MOL
REMARK 923 INTER-LIGAND FREE ENERGY PREDICTED BY IDOCK:   -4.59 KCAL/MOL
REMARK 924 INTRA-LIGAND FREE ENERGY PREDICTED BY IDOCK:   -0.43 KCAL/MOL
REMARK 927      BINDING AFFINITY PREDICTED BY RF-SCORE:    0.00 PKD
ROOT
HETATM    1  O   UNL     1      -7.135   8.323  67.743  1.00  0.00    -0.079 OA 
HETATM    2  C   UNL     1      -8.457   8.482  67.188  1.00  0.00    -0.118 C  
HETATM    3  H   UNL     1      -6.590   7.973  67.048  1.00  0.00     0.000 HD 
HETATM    4  C   UNL     1      -9.352   9.056  68.330  1.00  0.00    -0.145 C  
HETATM    5  C   UNL     1      -8.349   9.560  66.067  1.00  0.00    -0.123 C  
HETATM    6  C   UNL     1      -8.908   7.090  66.713  1.00  0.00    -0.130 A  
HETATM    7  C   UNL     1      -7.408   9.257  64.893  1.00  0.00    -0.103 C  
HETATM    8  C   UNL     1     -10.261   6.708  66.686  1.00  0.00    -0.208 A  
HETATM    9  C   UNL     1      -9.669  10.029  65.427  1.00  0.00    -0.368 C  
HETATM   10  C   UNL     1     -10.638   5.375  66.481  1.00  0.00    -0.353 A  
HETATM   11  C   UNL     1      -7.901  10.194  63.798  1.00  0.00    -0.149 C  
HETATM   12  C   UNL     1      -7.958   6.100  66.394  1.00  0.00    -0.106 A  
HETATM   13  C   UNL     1      -9.411  10.103  63.926  1.00  0.00    -0.332 C  
HETATM   14  C   UNL     1      -9.673   4.406  66.238  1.00  0.00    -0.224 A  
HETATM   15  C   UNL     1      -8.334   4.771  66.161  1.00  0.00    -0.111 A  
ENDROOT
BRANCH   4  16
HETATM   16  C   UNL     1      -9.491   8.151  69.567  1.00  0.00    -0.156 C  
BRANCH  16  17
HETATM   17  N   UNL     1     -10.895   7.802  69.879  1.00  0.00    -0.245 NA 
HETATM   18  C   UNL     1     -11.084   6.465  70.464  1.00  0.00    -0.328 C  
HETATM   19  C   UNL     1     -11.037   7.377  72.815  1.00  0.00    -0.394 C  
HETATM   20  C   UNL     1     -10.496   6.311  71.867  1.00  0.00    -0.244 C  
HETATM   21  C   UNL     1     -10.945   8.774  72.204  1.00  0.00    -0.404 C  
HETATM   22  C   UNL     1     -11.497   8.809  70.774  1.00  0.00    -0.270 C  
ENDBRANCH  16  17
ENDBRANCH   4  16
TORSDOF 2
ENDMDL
MODEL      118
REMARK 921   NORMALIZED FREE ENERGY PREDICTED BY IDOCK:   -3.87 KCAL/MOL
REMARK 922        TOTAL FREE ENERGY PREDICTED BY IDOCK:   -5.01 KCAL/MOL
REMARK 923 INTER-LIGAND FREE ENERGY PREDICTED BY IDOCK:   -4.33 KCAL/MOL
REMARK 924 INTRA-LIGAND FREE ENERGY PREDICTED BY IDOCK:   -0.68 KCAL/MOL
REMARK 927      BINDING AFFINITY PREDICTED BY RF-SCORE:    0.00 PKD
ROOT
HETATM    1  O   UNL     1      -9.258   9.992  67.078  1.00  0.00    -0.144 OA 
HETATM    2  C   UNL     1      -8.598   9.787  68.343  1.00  0.00    -0.119 C  
HETATM    3  H   UNL     1      -9.609  10.875  67.095  1.00  0.00     0.000 HD 
HETATM    4  C   UNL     1      -8.021   8.337  68.315  1.00  0.00    -0.119 C  
HETATM    5  C   UNL     1      -7.400  10.784  68.394  1.00  0.00    -0.092 C  
HETATM    6  C   UNL     1      -9.662   9.990  69.436  1.00  0.00    -0.240 A  
HETATM    7  C   UNL     1      -7.731  12.281  68.303  1.00  0.00    -0.143 C  
HETATM    8  C   UNL     1      -9.602   9.326  70.674  1.00  0.00    -0.334 A  
HETATM    9  C   UNL     1      -6.434  10.648  69.586  1.00  0.00    -0.096 C  
HETATM   10  C   UNL     1     -10.688   9.333  71.558  1.00  0.00    -0.425 A  
HETATM   11  C   UNL     1      -6.489  12.950  68.875  1.00  0.00    -0.091 C  
HETATM   12  C   UNL     1     -10.807  10.769  69.183  1.00  0.00    -0.281 A  
HETATM   13  C   UNL     1      -6.141  12.067  70.060  1.00  0.00    -0.146 C  
HETATM   14  C   UNL     1     -11.834  10.055  71.250  1.00  0.00    -0.471 A  
HETATM   15  C   UNL     1     -11.884  10.801  70.078  1.00  0.00    -0.424 A  
ENDROOT
BRANCH   4  16
HETATM   16  C   UNL     1      -9.071   7.221  68.172  1.00  0.00    -0.134 C  
BRANCH  16  17
HETATM   17  N   UNL     1      -9.631   7.119  66.805  1.00  0.00    -0.170 NA 
HETATM   18  C   UNL     1      -8.639   6.857  65.749  1.00  0.00    -0.131 C  
HETATM   19  C   UNL     1      -9.043   4.370  65.846  1.00  0.00    -0.133 C  
HETATM   20  C   UNL     1      -7.991   5.474  65.832  1.00  0.00    -0.106 C  
HETATM   21  C   UNL     1     -10.143   4.651  66.867  1.00  0.00    -0.227 C  
HETATM   22  C   UNL     1     -10.680   6.082  66.748  1.00  0.00    -0.302 C  
ENDBRANCH  16  17
ENDBRANCH   4  16
TORSDOF 2
ENDMDL
MODEL      119
REMARK 921   NORMALIZED FREE ENERGY PREDICTED BY IDOCK:   -3.84 KCAL/MOL
REMARK 922        TOTAL FREE ENERGY PREDICTED BY IDOCK:   -4.99 KCAL/MOL
REMARK 923 INTER-LIGAND FREE ENERGY PREDICTED BY IDOCK:   -4.49 KCAL/MOL
REMARK 924 INTRA-LIGAND FREE ENERGY PREDICTED BY IDOCK:   -0.50 KCAL/MOL
REMARK 927      BINDING AFFINITY PREDICTED BY RF-SCORE:    0.00 PKD
ROOT
HETATM    1  O   UNL     1      -7.565  11.141  65.883  1.00  0.00    -0.337 OA 
HETATM    2  C   UNL     1      -8.358  11.279  67.079  1.00  0.00    -0.153 C  
HETATM    3  H   UNL     1      -6.656  11.198  66.153  1.00  0.00     0.000 HD 
HETATM    4  C   UNL     1      -9.851  11.186  66.636  1.00  0.00    -0.231 C  
HETATM    5  C   UNL     1      -8.040  10.044  67.976  1.00  0.00    -0.112 C  
HETATM    6  C   UNL     1      -7.997  12.642  67.695  1.00  0.00    -0.169 A  
HETATM    7  C   UNL     1      -6.584   9.863  68.427  1.00  0.00    -0.055 C  
HETATM    8  C   UNL     1      -8.914  13.387  68.458  1.00  0.00    -0.071 A  
HETATM    9  C   UNL     1      -8.889   9.875  69.250  1.00  0.00    -0.178 C  
HETATM   10  C   UNL     1      -8.658  14.719  68.809  1.00  0.00    -0.170 A  
HETATM   11  C   UNL     1      -6.702   8.939  69.632  1.00  0.00    -0.046 C  
HETATM   12  C   UNL     1      -6.758  13.250  67.414  1.00  0.00    -0.086 A  
HETATM   13  C   UNL     1      -7.920   9.480  70.358  1.00  0.00    -0.200 C  
HETATM   14  C   UNL     1      -7.454  15.315  68.457  1.00  0.00    -0.121 A  
HETATM   15  C   UNL     1      -6.488  14.572  67.788  1.00  0.00    -0.181 A  
ENDROOT
BRANCH   4  16
HETATM   16  C   UNL     1     -10.313  12.286  65.664  1.00  0.00    -0.257 C  
BRANCH  16  17
HETATM   17  N   UNL     1     -11.613  12.886  66.037  1.00  0.00    -0.354 NA 
HETATM   18  C   UNL     1     -11.566  14.327  66.336  1.00  0.00    -0.372 C  
HETATM   19  C   UNL     1     -12.227  14.939  63.981  1.00  0.00    -0.151 C  
HETATM   20  C   UNL     1     -11.252  15.204  65.124  1.00  0.00    -0.392 C  
HETATM   21  C   UNL     1     -12.376  13.446  63.701  1.00  0.00    -0.422 C  
HETATM   22  C   UNL     1     -12.620  12.645  64.985  1.00  0.00    -0.430 C  
ENDBRANCH  16  17
ENDBRANCH   4  16
TORSDOF 2
ENDMDL
MODEL      120
REMARK 921   NORMALIZED FREE ENERGY PREDICTED BY IDOCK:   -3.84 KCAL/MOL
REMARK 922        TOTAL FREE ENERGY PREDICTED BY IDOCK:   -4.98 KCAL/MOL
REMARK 923 INTER-LIGAND FREE ENERGY PREDICTED BY IDOCK:   -4.33 KCAL/MOL
REMARK 924 INTRA-LIGAND FREE ENERGY PREDICTED BY IDOCK:   -0.65 KCAL/MOL
REMARK 927      BINDING AFFINITY PREDICTED BY RF-SCORE:    0.00 PKD
ROOT
HETATM    1  O   UNL     1     -10.540  11.007  67.686  1.00  0.00    -0.192 OA 
HETATM    2  C   UNL     1      -9.750  10.542  66.573  1.00  0.00    -0.192 C  
HETATM    3  H   UNL     1     -10.572  11.955  67.618  1.00  0.00     0.000 HD 
HETATM    4  C   UNL     1      -9.697   8.987  66.685  1.00  0.00    -0.295 C  
HETATM    5  C   UNL     1     -10.535  10.909  65.277  1.00  0.00    -0.299 C  
HETATM    6  C   UNL     1      -8.366  11.202  66.706  1.00  0.00    -0.152 A  
HETATM    7  C   UNL     1     -10.819  12.397  65.029  1.00  0.00    -0.331 C  
HETATM    8  C   UNL     1      -7.194  10.589  66.229  1.00  0.00    -0.133 A  
HETATM    9  C   UNL     1      -9.973  10.370  63.949  1.00  0.00    -0.269 C  
HETATM   10  C   UNL     1      -5.926  11.082  66.563  1.00  0.00    -0.131 A  
HETATM   11  C   UNL     1     -11.109  12.453  63.534  1.00  0.00    -0.521 C  
HETATM   12  C   UNL     1      -8.212  12.404  67.422  1.00  0.00    -0.180 A  
HETATM   13  C   UNL     1     -10.067  11.517  62.950  1.00  0.00    -0.221 C  
HETATM   14  C   UNL     1      -5.804  12.232  67.330  1.00  0.00    -0.143 A  
HETATM   15  C   UNL     1      -6.946  12.915  67.734  1.00  0.00    -0.138 A  
ENDROOT
BRANCH   4  16
HETATM   16  C   UNL     1      -9.031   8.447  67.963  1.00  0.00    -0.138 C  
BRANCH  16  17
HETATM   17  N   UNL     1      -9.698   8.902  69.204  1.00  0.00    -0.165 NA 
HETATM   18  C   UNL     1     -10.478   7.867  69.902  1.00  0.00    -0.229 C  
HETATM   19  C   UNL     1      -8.550   7.299  71.426  1.00  0.00    -0.115 C  
HETATM   20  C   UNL     1      -9.628   6.745  70.500  1.00  0.00    -0.174 C  
HETATM   21  C   UNL     1      -7.777   8.442  70.771  1.00  0.00    -0.083 C  
HETATM   22  C   UNL     1      -8.715   9.479  70.143  1.00  0.00    -0.230 C  
ENDBRANCH  16  17
ENDBRANCH   4  16
TORSDOF 2
ENDMDL
MODEL      121
REMARK 921   NORMALIZED FREE ENERGY PREDICTED BY IDOCK:   -3.80 KCAL/MOL
REMARK 922        TOTAL FREE ENERGY PREDICTED BY IDOCK:   -4.93 KCAL/MOL
REMARK 923 INTER-LIGAND FREE ENERGY PREDICTED BY IDOCK:   -4.40 KCAL/MOL
REMARK 924 INTRA-LIGAND FREE ENERGY PREDICTED BY IDOCK:   -0.53 KCAL/MOL
REMARK 927      BINDING AFFINITY PREDICTED BY RF-SCORE:    0.00 PKD
ROOT
HETATM    1  O   UNL     1     -10.426   9.914  69.940  1.00  0.00    -0.232 OA 
HETATM    2  C   UNL     1      -9.931   9.377  68.697  1.00  0.00    -0.173 C  
HETATM    3  H   UNL     1     -10.144  10.821  69.975  1.00  0.00     0.000 HD 
HETATM    4  C   UNL     1     -10.393   7.887  68.641  1.00  0.00    -0.224 C  
HETATM    5  C   UNL     1     -10.650  10.152  67.552  1.00  0.00    -0.327 C  
HETATM    6  C   UNL     1      -8.400   9.530  68.727  1.00  0.00    -0.117 A  
HETATM    7  C   UNL     1     -10.438  11.671  67.495  1.00  0.00    -0.228 C  
HETATM    8  C   UNL     1      -7.544   8.643  68.050  1.00  0.00    -0.098 A  
HETATM    9  C   UNL     1     -10.410   9.649  66.116  1.00  0.00    -0.202 C  
HETATM   10  C   UNL     1      -6.162   8.650  68.276  1.00  0.00    -0.054 A  
HETATM   11  C   UNL     1     -10.812  12.024  66.061  1.00  0.00    -0.329 C  
HETATM   12  C   UNL     1      -7.794  10.507  69.540  1.00  0.00    -0.134 A  
HETATM   13  C   UNL     1     -10.195  10.891  65.260  1.00  0.00    -0.351 C  
HETATM   14  C   UNL     1      -5.599   9.582  69.137  1.00  0.00    -0.036 A  
HETATM   15  C   UNL     1      -6.409  10.534  69.746  1.00  0.00    -0.091 A  
ENDROOT
BRANCH   4  16
HETATM   16  C   UNL     1      -9.846   6.991  69.765  1.00  0.00    -0.169 C  
BRANCH  16  17
HETATM   17  N   UNL     1     -10.866   6.082  70.335  1.00  0.00    -0.295 NA 
HETATM   18  C   UNL     1     -10.349   5.104  71.306  1.00  0.00    -0.205 C  
HETATM   19  C   UNL     1     -10.923   6.591  73.261  1.00  0.00    -0.224 C  
HETATM   20  C   UNL     1      -9.847   5.727  72.610  1.00  0.00    -0.183 C  
HETATM   21  C   UNL     1     -11.552   7.558  72.260  1.00  0.00    -0.354 C  
HETATM   22  C   UNL     1     -11.958   6.851  70.962  1.00  0.00    -0.374 C  
ENDBRANCH  16  17
ENDBRANCH   4  16
TORSDOF 2
ENDMDL
MODEL      122
REMARK 921   NORMALIZED FREE ENERGY PREDICTED BY IDOCK:   -3.74 KCAL/MOL
REMARK 922        TOTAL FREE ENERGY PREDICTED BY IDOCK:   -4.87 KCAL/MOL
REMARK 923 INTER-LIGAND FREE ENERGY PREDICTED BY IDOCK:   -4.19 KCAL/MOL
REMARK 924 INTRA-LIGAND FREE ENERGY PREDICTED BY IDOCK:   -0.68 KCAL/MOL
REMARK 927      BINDING AFFINITY PREDICTED BY RF-SCORE:    0.00 PKD
ROOT
HETATM    1  O   UNL     1     -11.020   7.676  68.557  1.00  0.00    -0.415 OA 
HETATM    2  C   UNL     1      -9.722   7.591  69.178  1.00  0.00    -0.166 C  
HETATM    3  H   UNL     1     -11.075   6.952  67.944  1.00  0.00     0.000 HD 
HETATM    4  C   UNL     1      -9.632   8.781  70.184  1.00  0.00    -0.187 C  
HETATM    5  C   UNL     1      -9.698   6.263  69.994  1.00  0.00    -0.193 C  
HETATM    6  C   UNL     1      -8.683   7.681  68.047  1.00  0.00    -0.125 A  
HETATM    7  C   UNL     1      -9.902   4.958  69.212  1.00  0.00    -0.272 C  
HETATM    8  C   UNL     1      -7.402   8.224  68.247  1.00  0.00    -0.095 A  
HETATM    9  C   UNL     1      -8.467   6.020  70.887  1.00  0.00    -0.127 C  
HETATM   10  C   UNL     1      -6.558   8.516  67.168  1.00  0.00    -0.058 A  
HETATM   11  C   UNL     1      -9.334   3.897  70.147  1.00  0.00    -0.241 C  
HETATM   12  C   UNL     1      -9.027   7.323  66.729  1.00  0.00    -0.154 A  
HETATM   13  C   UNL     1      -8.080   4.559  70.691  1.00  0.00    -0.074 C  
HETATM   14  C   UNL     1      -6.952   8.215  65.871  1.00  0.00    -0.060 A  
HETATM   15  C   UNL     1      -8.174   7.588  65.651  1.00  0.00    -0.133 A  
ENDROOT
BRANCH   4  16
HETATM   16  C   UNL     1      -9.735  10.180  69.551  1.00  0.00    -0.229 C  
BRANCH  16  17
HETATM   17  N   UNL     1     -11.037  10.427  68.891  1.00  0.00    -0.239 NA 
HETATM   18  C   UNL     1     -12.039  11.101  69.734  1.00  0.00    -0.344 C  
HETATM   19  C   UNL     1     -11.417  13.372  68.831  1.00  0.00    -0.347 C  
HETATM   20  C   UNL     1     -11.685  12.547  70.085  1.00  0.00    -0.255 C  
HETATM   21  C   UNL     1     -10.452  12.663  67.884  1.00  0.00    -0.225 C  
HETATM   22  C   UNL     1     -10.854  11.202  67.649  1.00  0.00    -0.247 C  
ENDBRANCH  16  17
ENDBRANCH   4  16
TORSDOF 2
ENDMDL
MODEL      123
REMARK 921   NORMALIZED FREE ENERGY PREDICTED BY IDOCK:   -3.73 KCAL/MOL
REMARK 922        TOTAL FREE ENERGY PREDICTED BY IDOCK:   -4.86 KCAL/MOL
REMARK 923 INTER-LIGAND FREE ENERGY PREDICTED BY IDOCK:   -4.46 KCAL/MOL
REMARK 924 INTRA-LIGAND FREE ENERGY PREDICTED BY IDOCK:   -0.40 KCAL/MOL
REMARK 927      BINDING AFFINITY PREDICTED BY RF-SCORE:    0.00 PKD
ROOT
HETATM    1  O   UNL     1      -9.032  13.139  67.903  1.00  0.00    -0.181 OA 
HETATM    2  C   UNL     1     -10.011  12.106  67.671  1.00  0.00    -0.197 C  
HETATM    3  H   UNL     1      -9.514  13.917  68.158  1.00  0.00     0.000 HD 
HETATM    4  C   UNL     1      -9.219  10.829  67.252  1.00  0.00    -0.158 C  
HETATM    5  C   UNL     1     -10.700  11.823  69.040  1.00  0.00    -0.209 C  
HETATM    6  C   UNL     1     -10.947  12.624  66.565  1.00  0.00    -0.302 A  
HETATM    7  C   UNL     1     -11.437  12.991  69.708  1.00  0.00    -0.213 C  
HETATM    8  C   UNL     1     -11.602  11.758  65.671  1.00  0.00    -0.190 A  
HETATM    9  C   UNL     1     -11.680  10.635  69.091  1.00  0.00    -0.324 C  
HETATM   10  C   UNL     1     -12.255  12.245  64.532  1.00  0.00    -0.469 A  
HETATM   11  C   UNL     1     -12.377  12.300  70.688  1.00  0.00    -0.375 C  
HETATM   12  C   UNL     1     -11.089  14.006  66.336  1.00  0.00    -0.316 A  
HETATM   13  C   UNL     1     -12.887  11.113  69.889  1.00  0.00     0.057 C  
HETATM   14  C   UNL     1     -12.320  13.612  64.294  1.00  0.00    -0.388 A  
HETATM   15  C   UNL     1     -11.766  14.497  65.213  1.00  0.00    -0.361 A  
ENDROOT
BRANCH   4  16
HETATM   16  C   UNL     1      -8.398  10.966  65.957  1.00  0.00    -0.165 C  
BRANCH  16  17
HETATM   17  N   UNL     1      -7.157  10.160  65.966  1.00  0.00    -0.111 NA 
HETATM   18  C   UNL     1      -7.324   8.772  66.427  1.00  0.00    -0.084 C  
HETATM   19  C   UNL     1      -7.585   7.915  64.070  1.00  0.00    -0.120 C  
HETATM   20  C   UNL     1      -8.154   7.899  65.485  1.00  0.00    -0.130 C  
HETATM   21  C   UNL     1      -7.308   9.337  63.588  1.00  0.00    -0.101 C  
HETATM   22  C   UNL     1      -6.532  10.151  64.629  1.00  0.00    -0.125 C  
ENDBRANCH  16  17
ENDBRANCH   4  16
TORSDOF 2
ENDMDL
MODEL      124
REMARK 921   NORMALIZED FREE ENERGY PREDICTED BY IDOCK:   -3.73 KCAL/MOL
REMARK 922        TOTAL FREE ENERGY PREDICTED BY IDOCK:   -4.85 KCAL/MOL
REMARK 923 INTER-LIGAND FREE ENERGY PREDICTED BY IDOCK:   -4.31 KCAL/MOL
REMARK 924 INTRA-LIGAND FREE ENERGY PREDICTED BY IDOCK:   -0.55 KCAL/MOL
REMARK 927      BINDING AFFINITY PREDICTED BY RF-SCORE:    0.00 PKD
ROOT
HETATM    1  O   UNL     1     -11.500  10.739  66.994  1.00  0.00    -0.349 OA 
HETATM    2  C   UNL     1     -10.682  10.933  68.165  1.00  0.00    -0.214 C  
HETATM    3  H   UNL     1     -11.225   9.917  66.605  1.00  0.00     0.000 HD 
HETATM    4  C   UNL     1     -11.132  12.284  68.803  1.00  0.00    -0.295 C  
HETATM    5  C   UNL     1     -11.036   9.785  69.159  1.00  0.00    -0.158 C  
HETATM    6  C   UNL     1      -9.220  10.953  67.686  1.00  0.00    -0.155 A  
HETATM    7  C   UNL     1     -10.794   8.347  68.681  1.00  0.00     0.027 C  
HETATM    8  C   UNL     1      -8.221  11.682  68.355  1.00  0.00    -0.155 A  
HETATM    9  C   UNL     1     -10.408   9.864  70.563  1.00  0.00    -0.298 C  
HETATM   10  C   UNL     1      -6.959  11.884  67.782  1.00  0.00    -0.102 A  
HETATM   11  C   UNL     1     -10.742   7.550  69.978  1.00  0.00    -0.248 C  
HETATM   12  C   UNL     1      -8.853  10.325  66.480  1.00  0.00    -0.150 A  
HETATM   13  C   UNL     1      -9.941   8.453  70.900  1.00  0.00    -0.230 C  
HETATM   14  C   UNL     1      -6.648  11.309  66.556  1.00  0.00    -0.108 A  
HETATM   15  C   UNL     1      -7.583  10.502  65.918  1.00  0.00    -0.148 A  
ENDROOT
BRANCH   4  16
HETATM   16  C   UNL     1     -10.938  13.523  67.912  1.00  0.00    -0.256 C  
BRANCH  16  17
HETATM   17  N   UNL     1     -11.314  14.788  68.582  1.00  0.00    -0.271 NA 
HETATM   18  C   UNL     1     -10.499  15.131  69.758  1.00  0.00    -0.233 C  
HETATM   19  C   UNL     1      -8.959  16.587  68.392  1.00  0.00    -0.219 C  
HETATM   20  C   UNL     1      -9.045  15.473  69.430  1.00  0.00    -0.280 C  
HETATM   21  C   UNL     1      -9.865  16.314  67.194  1.00  0.00    -0.243 C  
HETATM   22  C   UNL     1     -11.280  15.914  67.627  1.00  0.00    -0.219 C  
ENDBRANCH  16  17
ENDBRANCH   4  16
TORSDOF 2
ENDMDL
MODEL      125
REMARK 921   NORMALIZED FREE ENERGY PREDICTED BY IDOCK:   -3.68 KCAL/MOL
REMARK 922        TOTAL FREE ENERGY PREDICTED BY IDOCK:   -4.80 KCAL/MOL
REMARK 923 INTER-LIGAND FREE ENERGY PREDICTED BY IDOCK:   -4.13 KCAL/MOL
REMARK 924 INTRA-LIGAND FREE ENERGY PREDICTED BY IDOCK:   -0.67 KCAL/MOL
REMARK 927      BINDING AFFINITY PREDICTED BY RF-SCORE:    0.00 PKD
ROOT
HETATM    1  O   UNL     1      -8.454  10.370  67.701  1.00  0.00    -0.115 OA 
HETATM    2  C   UNL     1      -9.479  10.877  66.823  1.00  0.00    -0.177 C  
HETATM    3  H   UNL     1      -7.663  10.857  67.504  1.00  0.00     0.000 HD 
HETATM    4  C   UNL     1     -10.778  10.076  67.146  1.00  0.00    -0.279 C  
HETATM    5  C   UNL     1      -9.715  12.366  67.218  1.00  0.00    -0.201 C  
HETATM    6  C   UNL     1      -8.979  10.656  65.385  1.00  0.00    -0.208 A  
HETATM    7  C   UNL     1      -8.518  13.320  67.101  1.00  0.00    -0.182 C  
HETATM    8  C   UNL     1      -9.859  10.448  64.308  1.00  0.00    -0.388 A  
HETATM    9  C   UNL     1     -10.887  13.090  66.528  1.00  0.00    -0.294 C  
HETATM   10  C   UNL     1      -9.394  10.015  63.060  1.00  0.00    -0.297 A  
HETATM   11  C   UNL     1      -9.170  14.696  67.053  1.00  0.00    -0.252 C  
HETATM   12  C   UNL     1      -7.601  10.538  65.116  1.00  0.00    -0.046 A  
HETATM   13  C   UNL     1     -10.371  14.473  66.151  1.00  0.00    -0.305 C  
HETATM   14  C   UNL     1      -8.033   9.840  62.844  1.00  0.00    -0.132 A  
HETATM   15  C   UNL     1      -7.132  10.132  63.860  1.00  0.00    -0.104 A  
ENDROOT
BRANCH   4  16
HETATM   16  C   UNL     1     -10.688   8.560  66.901  1.00  0.00    -0.086 C  
BRANCH  16  17
HETATM   17  N   UNL     1      -9.644   7.898  67.715  1.00  0.00    -0.144 NA 
HETATM   18  C   UNL     1     -10.147   7.162  68.886  1.00  0.00    -0.177 C  
HETATM   19  C   UNL     1     -10.206   4.983  67.618  1.00  0.00    -0.168 C  
HETATM   20  C   UNL     1     -10.977   5.927  68.535  1.00  0.00    -0.277 C  
HETATM   21  C   UNL     1      -9.587   5.726  66.436  1.00  0.00    -0.175 C  
HETATM   22  C   UNL     1      -8.835   6.985  66.884  1.00  0.00    -0.124 C  
ENDBRANCH  16  17
ENDBRANCH   4  16
TORSDOF 2
ENDMDL
MODEL      126
REMARK 921   NORMALIZED FREE ENERGY PREDICTED BY IDOCK:   -3.67 KCAL/MOL
REMARK 922        TOTAL FREE ENERGY PREDICTED BY IDOCK:   -4.79 KCAL/MOL
REMARK 923 INTER-LIGAND FREE ENERGY PREDICTED BY IDOCK:   -4.28 KCAL/MOL
REMARK 924 INTRA-LIGAND FREE ENERGY PREDICTED BY IDOCK:   -0.51 KCAL/MOL
REMARK 927      BINDING AFFINITY PREDICTED BY RF-SCORE:    0.00 PKD
ROOT
HETATM    1  O   UNL     1     -10.562   5.229  69.382  1.00  0.00    -0.252 OA 
HETATM    2  C   UNL     1     -10.004   6.507  69.750  1.00  0.00    -0.166 C  
HETATM    3  H   UNL     1     -11.344   5.411  68.874  1.00  0.00     0.000 HD 
HETATM    4  C   UNL     1      -8.720   6.207  70.585  1.00  0.00    -0.139 C  
HETATM    5  C   UNL     1      -9.570   7.207  68.426  1.00  0.00    -0.137 C  
HETATM    6  C   UNL     1     -11.086   7.247  70.555  1.00  0.00    -0.290 A  
HETATM    7  C   UNL     1     -10.667   7.484  67.389  1.00  0.00    -0.331 C  
HETATM    8  C   UNL     1     -10.768   8.184  71.554  1.00  0.00    -0.286 A  
HETATM    9  C   UNL     1      -8.791   8.529  68.564  1.00  0.00    -0.139 C  
HETATM   10  C   UNL     1     -11.743   8.670  72.435  1.00  0.00    -0.393 A  
HETATM   11  C   UNL     1     -10.056   8.570  66.514  1.00  0.00    -0.328 C  
HETATM   12  C   UNL     1     -12.446   6.920  70.395  1.00  0.00     0.017 A  
HETATM   13  C   UNL     1      -9.374   9.477  67.523  1.00  0.00    -0.146 C  
HETATM   14  C   UNL     1     -13.067   8.276  72.296  1.00  0.00    -0.263 A  
HETATM   15  C   UNL     1     -13.428   7.426  71.257  1.00  0.00    -0.339 A  
ENDROOT
BRANCH   4  16
HETATM   16  C   UNL     1      -8.958   5.430  71.891  1.00  0.00    -0.135 C  
BRANCH  16  17
HETATM   17  N   UNL     1      -7.827   5.525  72.840  1.00  0.00    -0.098 NA 
HETATM   18  C   UNL     1      -6.856   6.590  72.541  1.00  0.00    -0.069 C  
HETATM   19  C   UNL     1      -7.997   8.207  74.105  1.00  0.00    -0.305 C  
HETATM   20  C   UNL     1      -7.412   8.005  72.711  1.00  0.00    -0.145 C  
HETATM   21  C   UNL     1      -8.940   7.070  74.492  1.00  0.00    -0.223 C  
HETATM   22  C   UNL     1      -8.318   5.696  74.222  1.00  0.00    -0.110 C  
ENDBRANCH  16  17
ENDBRANCH   4  16
TORSDOF 2
ENDMDL
MODEL      127
REMARK 921   NORMALIZED FREE ENERGY PREDICTED BY IDOCK:   -3.66 KCAL/MOL
REMARK 922        TOTAL FREE ENERGY PREDICTED BY IDOCK:   -4.78 KCAL/MOL
REMARK 923 INTER-LIGAND FREE ENERGY PREDICTED BY IDOCK:   -4.23 KCAL/MOL
REMARK 924 INTRA-LIGAND FREE ENERGY PREDICTED BY IDOCK:   -0.54 KCAL/MOL
REMARK 927      BINDING AFFINITY PREDICTED BY RF-SCORE:    0.00 PKD
ROOT
HETATM    1  O   UNL     1     -11.687   9.482  69.404  1.00  0.00    -0.425 OA 
HETATM    2  C   UNL     1     -10.342   9.110  69.766  1.00  0.00    -0.215 C  
HETATM    3  H   UNL     1     -12.237   8.733  69.603  1.00  0.00     0.000 HD 
HETATM    4  C   UNL     1      -9.437  10.339  69.440  1.00  0.00    -0.225 C  
HETATM    5  C   UNL     1     -10.333   8.897  71.311  1.00  0.00    -0.355 C  
HETATM    6  C   UNL     1      -9.987   7.865  68.934  1.00  0.00    -0.194 A  
HETATM    7  C   UNL     1     -11.260   7.811  71.873  1.00  0.00    -0.310 C  
HETATM    8  C   UNL     1      -8.668   7.574  68.545  1.00  0.00    -0.128 A  
HETATM    9  C   UNL     1      -8.962   8.649  71.969  1.00  0.00    -0.286 C  
HETATM   10  C   UNL     1      -8.390   6.580  67.598  1.00  0.00    -0.121 A  
HETATM   11  C   UNL     1     -10.664   7.515  73.243  1.00  0.00    -0.437 C  
HETATM   12  C   UNL     1     -11.001   7.028  68.431  1.00  0.00    -0.137 A  
HETATM   13  C   UNL     1      -9.170   7.522  72.973  1.00  0.00    -0.233 C  
HETATM   14  C   UNL     1      -9.420   5.815  67.066  1.00  0.00    -0.131 A  
HETATM   15  C   UNL     1     -10.724   6.015  67.505  1.00  0.00    -0.383 A  
ENDROOT
BRANCH   4  16
HETATM   16  C   UNL     1      -9.404  10.749  67.958  1.00  0.00    -0.150 C  
BRANCH  16  17
HETATM   17  N   UNL     1      -8.297  11.676  67.633  1.00  0.00    -0.136 NA 
HETATM   18  C   UNL     1      -7.227  11.738  68.642  1.00  0.00    -0.112 C  
HETATM   19  C   UNL     1      -5.837  10.024  67.421  1.00  0.00    -0.053 C  
HETATM   20  C   UNL     1      -6.414  10.449  68.768  1.00  0.00    -0.051 C  
HETATM   21  C   UNL     1      -6.899  10.037  66.323  1.00  0.00    -0.099 C  
HETATM   22  C   UNL     1      -7.704  11.342  66.323  1.00  0.00    -0.053 C  
ENDBRANCH  16  17
ENDBRANCH   4  16
TORSDOF 2
ENDMDL
MODEL      128
REMARK 921   NORMALIZED FREE ENERGY PREDICTED BY IDOCK:   -3.66 KCAL/MOL
REMARK 922        TOTAL FREE ENERGY PREDICTED BY IDOCK:   -4.78 KCAL/MOL
REMARK 923 INTER-LIGAND FREE ENERGY PREDICTED BY IDOCK:   -4.30 KCAL/MOL
REMARK 924 INTRA-LIGAND FREE ENERGY PREDICTED BY IDOCK:   -0.48 KCAL/MOL
REMARK 927      BINDING AFFINITY PREDICTED BY RF-SCORE:    0.00 PKD
ROOT
HETATM    1  O   UNL     1      -7.149  10.584  68.112  1.00  0.00    -0.079 OA 
HETATM    2  C   UNL     1      -8.140  10.388  67.083  1.00  0.00    -0.115 C  
HETATM    3  H   UNL     1      -6.567   9.833  68.074  1.00  0.00     0.000 HD 
HETATM    4  C   UNL     1      -9.096  11.619  67.146  1.00  0.00    -0.171 C  
HETATM    5  C   UNL     1      -7.387  10.427  65.719  1.00  0.00    -0.147 C  
HETATM    6  C   UNL     1      -8.849   9.059  67.398  1.00  0.00    -0.125 A  
HETATM    7  C   UNL     1      -6.296   9.371  65.491  1.00  0.00    -0.065 C  
HETATM    8  C   UNL     1     -10.188   8.820  67.039  1.00  0.00    -0.351 A  
HETATM    9  C   UNL     1      -8.255  10.402  64.446  1.00  0.00    -0.125 C  
HETATM   10  C   UNL     1     -10.889   7.714  67.536  1.00  0.00    -0.205 A  
HETATM   11  C   UNL     1      -6.139   9.350  63.976  1.00  0.00    -0.091 C  
HETATM   12  C   UNL     1      -8.208   8.071  68.170  1.00  0.00    -0.126 A  
HETATM   13  C   UNL     1      -7.572   9.437  63.484  1.00  0.00    -0.115 C  
HETATM   14  C   UNL     1     -10.249   6.790  68.352  1.00  0.00    -0.193 A  
HETATM   15  C   UNL     1      -8.899   6.949  68.644  1.00  0.00    -0.124 A  
ENDROOT
BRANCH   4  16
HETATM   16  C   UNL     1      -9.856  11.788  68.473  1.00  0.00    -0.189 C  
BRANCH  16  17
HETATM   17  N   UNL     1     -11.315  11.959  68.291  1.00  0.00    -0.252 NA 
HETATM   18  C   UNL     1     -12.149  11.168  69.211  1.00  0.00    -0.308 C  
HETATM   19  C   UNL     1     -12.364  13.091  70.829  1.00  0.00    -0.394 C  
HETATM   20  C   UNL     1     -12.051  11.606  70.673  1.00  0.00    -0.432 C  
HETATM   21  C   UNL     1     -11.586  13.940  69.826  1.00  0.00    -0.335 C  
HETATM   22  C   UNL     1     -11.691  13.382  68.403  1.00  0.00    -0.355 C  
ENDBRANCH  16  17
ENDBRANCH   4  16
TORSDOF 2
ENDMDL
MODEL      129
REMARK 921   NORMALIZED FREE ENERGY PREDICTED BY IDOCK:   -3.64 KCAL/MOL
REMARK 922        TOTAL FREE ENERGY PREDICTED BY IDOCK:   -4.76 KCAL/MOL
REMARK 923 INTER-LIGAND FREE ENERGY PREDICTED BY IDOCK:   -4.11 KCAL/MOL
REMARK 924 INTRA-LIGAND FREE ENERGY PREDICTED BY IDOCK:   -0.65 KCAL/MOL
REMARK 927      BINDING AFFINITY PREDICTED BY RF-SCORE:    0.00 PKD
ROOT
HETATM    1  O   UNL     1      -8.022   8.842  72.479  1.00  0.00    -0.373 OA 
HETATM    2  C   UNL     1      -8.217   7.645  71.699  1.00  0.00    -0.107 C  
HETATM    3  H   UNL     1      -8.406   8.675  73.332  1.00  0.00     0.000 HD 
HETATM    4  C   UNL     1      -7.587   7.920  70.298  1.00  0.00    -0.086 C  
HETATM    5  C   UNL     1      -7.392   6.517  72.390  1.00  0.00    -0.090 C  
HETATM    6  C   UNL     1      -9.735   7.399  71.638  1.00  0.00    -0.169 A  
HETATM    7  C   UNL     1      -7.761   6.167  73.839  1.00  0.00    -0.093 C  
HETATM    8  C   UNL     1     -10.347   6.753  70.550  1.00  0.00    -0.226 A  
HETATM    9  C   UNL     1      -7.307   5.168  71.651  1.00  0.00    -0.083 C  
HETATM   10  C   UNL     1     -11.739   6.747  70.395  1.00  0.00    -0.418 A  
HETATM   11  C   UNL     1      -7.172   4.775  74.024  1.00  0.00    -0.078 C  
HETATM   12  C   UNL     1     -10.585   7.923  72.630  1.00  0.00    -0.394 A  
HETATM   13  C   UNL     1      -7.500   4.089  72.709  1.00  0.00    -0.073 C  
HETATM   14  C   UNL     1     -12.551   7.333  71.356  1.00  0.00    -0.423 A  
HETATM   15  C   UNL     1     -11.979   7.894  72.492  1.00  0.00    -0.349 A  
ENDROOT
BRANCH   4  16
HETATM   16  C   UNL     1      -8.227   9.077  69.511  1.00  0.00    -0.114 C  
BRANCH  16  17
HETATM   17  N   UNL     1      -7.761   9.156  68.109  1.00  0.00    -0.091 NA 
HETATM   18  C   UNL     1      -7.866   7.898  67.350  1.00  0.00    -0.121 C  
HETATM   19  C   UNL     1     -10.108   8.547  66.394  1.00  0.00    -0.271 C  
HETATM   20  C   UNL     1      -9.304   7.450  67.085  1.00  0.00    -0.172 C  
HETATM   21  C   UNL     1      -9.949   9.892  67.098  1.00  0.00    -0.252 C  
HETATM   22  C   UNL     1      -8.479  10.219  67.380  1.00  0.00    -0.125 C  
ENDBRANCH  16  17
ENDBRANCH   4  16
TORSDOF 2
ENDMDL
MODEL      130
REMARK 921   NORMALIZED FREE ENERGY PREDICTED BY IDOCK:   -3.60 KCAL/MOL
REMARK 922        TOTAL FREE ENERGY PREDICTED BY IDOCK:   -4.72 KCAL/MOL
REMARK 923 INTER-LIGAND FREE ENERGY PREDICTED BY IDOCK:   -4.30 KCAL/MOL
REMARK 924 INTRA-LIGAND FREE ENERGY PREDICTED BY IDOCK:   -0.42 KCAL/MOL
REMARK 927      BINDING AFFINITY PREDICTED BY RF-SCORE:    0.00 PKD
ROOT
HETATM    1  O   UNL     1     -10.881   9.718  70.414  1.00  0.00    -0.263 OA 
HETATM    2  C   UNL     1      -9.619   9.517  69.747  1.00  0.00    -0.216 C  
HETATM    3  H   UNL     1     -11.081   8.905  70.864  1.00  0.00     0.000 HD 
HETATM    4  C   UNL     1      -9.290  10.852  69.007  1.00  0.00    -0.144 C  
HETATM    5  C   UNL     1      -8.549   9.303  70.860  1.00  0.00    -0.220 C  
HETATM    6  C   UNL     1      -9.809   8.330  68.787  1.00  0.00    -0.179 A  
HETATM    7  C   UNL     1      -8.748   8.106  71.801  1.00  0.00    -0.199 C  
HETATM    8  C   UNL     1      -9.082   8.208  67.590  1.00  0.00    -0.142 A  
HETATM    9  C   UNL     1      -7.079   9.227  70.404  1.00  0.00    -0.091 C  
HETATM   10  C   UNL     1      -9.429   7.260  66.620  1.00  0.00    -0.228 A  
HETATM   11  C   UNL     1      -7.359   7.884  72.385  1.00  0.00    -0.104 C  
HETATM   12  C   UNL     1     -10.815   7.373  69.024  1.00  0.00    -0.108 A  
HETATM   13  C   UNL     1      -6.450   8.080  71.185  1.00  0.00    -0.038 C  
HETATM   14  C   UNL     1     -10.472   6.373  66.851  1.00  0.00    -0.340 A  
HETATM   15  C   UNL     1     -11.146   6.405  68.067  1.00  0.00    -0.365 A  
ENDROOT
BRANCH   4  16
HETATM   16  C   UNL     1     -10.306  11.267  67.929  1.00  0.00    -0.182 C  
BRANCH  16  17
HETATM   17  N   UNL     1     -10.730  12.681  68.041  1.00  0.00    -0.219 NA 
HETATM   18  C   UNL     1      -9.630  13.646  68.199  1.00  0.00    -0.221 C  
HETATM   19  C   UNL     1      -9.551  14.112  65.722  1.00  0.00    -0.165 C  
HETATM   20  C   UNL     1      -8.735  13.776  66.965  1.00  0.00    -0.212 C  
HETATM   21  C   UNL     1     -10.759  13.190  65.572  1.00  0.00    -0.297 C  
HETATM   22  C   UNL     1     -11.552  13.072  66.879  1.00  0.00    -0.366 C  
ENDBRANCH  16  17
ENDBRANCH   4  16
TORSDOF 2
ENDMDL
MODEL      131
REMARK 921   NORMALIZED FREE ENERGY PREDICTED BY IDOCK:   -3.58 KCAL/MOL
REMARK 922        TOTAL FREE ENERGY PREDICTED BY IDOCK:   -4.69 KCAL/MOL
REMARK 923 INTER-LIGAND FREE ENERGY PREDICTED BY IDOCK:   -4.28 KCAL/MOL
REMARK 924 INTRA-LIGAND FREE ENERGY PREDICTED BY IDOCK:   -0.41 KCAL/MOL
REMARK 927      BINDING AFFINITY PREDICTED BY RF-SCORE:    0.00 PKD
ROOT
HETATM    1  O   UNL     1      -7.941   7.654  68.771  1.00  0.00    -0.121 OA 
HETATM    2  C   UNL     1      -9.115   7.727  67.938  1.00  0.00    -0.131 C  
HETATM    3  H   UNL     1      -7.196   7.594  68.185  1.00  0.00     0.000 HD 
HETATM    4  C   UNL     1     -10.339   7.825  68.902  1.00  0.00    -0.224 C  
HETATM    5  C   UNL     1      -9.019   9.061  67.139  1.00  0.00    -0.144 C  
HETATM    6  C   UNL     1      -9.128   6.451  67.079  1.00  0.00    -0.130 A  
HETATM    7  C   UNL     1      -7.807   9.237  66.213  1.00  0.00    -0.103 C  
HETATM    8  C   UNL     1     -10.322   5.867  66.620  1.00  0.00    -0.283 A  
HETATM    9  C   UNL     1     -10.244   9.452  66.290  1.00  0.00    -0.284 C  
HETATM   10  C   UNL     1     -10.336   4.589  66.047  1.00  0.00    -0.276 A  
HETATM   11  C   UNL     1      -8.255  10.329  65.251  1.00  0.00    -0.161 C  
HETATM   12  C   UNL     1      -7.934   5.752  66.817  1.00  0.00    -0.102 A  
HETATM   13  C   UNL     1      -9.697   9.955  64.960  1.00  0.00    -0.359 C  
HETATM   14  C   UNL     1      -9.148   3.893  65.864  1.00  0.00    -0.146 A  
HETATM   15  C   UNL     1      -7.941   4.486  66.218  1.00  0.00    -0.103 A  
ENDROOT
BRANCH   4  16
HETATM   16  C   UNL     1     -10.529   6.620  69.839  1.00  0.00    -0.209 C  
BRANCH  16  17
HETATM   17  N   UNL     1      -9.429   6.463  70.818  1.00  0.00    -0.168 NA 
HETATM   18  C   UNL     1      -9.126   7.668  71.605  1.00  0.00    -0.134 C  
HETATM   19  C   UNL     1     -10.607   6.922  73.505  1.00  0.00    -0.378 C  
HETATM   20  C   UNL     1     -10.236   8.074  72.576  1.00  0.00    -0.361 C  
HETATM   21  C   UNL     1     -10.839   5.626  72.733  1.00  0.00    -0.303 C  
HETATM   22  C   UNL     1      -9.707   5.343  71.739  1.00  0.00    -0.162 C  
ENDBRANCH  16  17
ENDBRANCH   4  16
TORSDOF 2
ENDMDL
MODEL      132
REMARK 921   NORMALIZED FREE ENERGY PREDICTED BY IDOCK:   -3.56 KCAL/MOL
REMARK 922        TOTAL FREE ENERGY PREDICTED BY IDOCK:   -4.67 KCAL/MOL
REMARK 923 INTER-LIGAND FREE ENERGY PREDICTED BY IDOCK:   -4.28 KCAL/MOL
REMARK 924 INTRA-LIGAND FREE ENERGY PREDICTED BY IDOCK:   -0.39 KCAL/MOL
REMARK 927      BINDING AFFINITY PREDICTED BY RF-SCORE:    0.00 PKD
ROOT
HETATM    1  O   UNL     1      -8.553  15.347  65.962  1.00  0.00    -0.397 OA 
HETATM    2  C   UNL     1      -8.130  15.675  67.301  1.00  0.00    -0.195 C  
HETATM    3  H   UNL     1      -9.179  16.014  65.705  1.00  0.00     0.000 HD 
HETATM    4  C   UNL     1      -7.101  14.580  67.723  1.00  0.00    -0.190 C  
HETATM    5  C   UNL     1      -7.380  17.039  67.216  1.00  0.00    -0.190 C  
HETATM    6  C   UNL     1      -9.395  15.680  68.176  1.00  0.00    -0.194 A  
HETATM    7  C   UNL     1      -8.175  18.244  66.694  1.00  0.00    -0.282 C  
HETATM    8  C   UNL     1      -9.362  15.360  69.544  1.00  0.00    -0.252 A  
HETATM    9  C   UNL     1      -6.685  17.529  68.500  1.00  0.00    -0.202 C  
HETATM   10  C   UNL     1     -10.540  15.137  70.270  1.00  0.00    -0.195 A  
HETATM   11  C   UNL     1      -7.376  19.437  67.201  1.00  0.00    -0.234 C  
HETATM   12  C   UNL     1     -10.663  15.895  67.600  1.00  0.00    -0.312 A  
HETATM   13  C   UNL     1      -6.994  19.017  68.610  1.00  0.00    -0.319 C  
HETATM   14  C   UNL     1     -11.777  15.290  69.657  1.00  0.00    -0.355 A  
HETATM   15  C   UNL     1     -11.842  15.701  68.330  1.00  0.00    -0.211 A  
ENDROOT
BRANCH   4  16
HETATM   16  C   UNL     1      -7.657  13.146  67.767  1.00  0.00    -0.155 C  
BRANCH  16  17
HETATM   17  N   UNL     1      -6.708  12.170  68.348  1.00  0.00    -0.058 NA 
HETATM   18  C   UNL     1      -7.327  10.940  68.869  1.00  0.00    -0.111 C  
HETATM   19  C   UNL     1      -6.913   9.700  66.712  1.00  0.00    -0.085 C  
HETATM   20  C   UNL     1      -7.937  10.045  67.789  1.00  0.00    -0.105 C  
HETATM   21  C   UNL     1      -6.180  10.942  66.211  1.00  0.00    -0.134 C  
HETATM   22  C   UNL     1      -5.666  11.807  67.367  1.00  0.00    -0.102 C  
ENDBRANCH  16  17
ENDBRANCH   4  16
TORSDOF 2
ENDMDL
MODEL      133
REMARK 921   NORMALIZED FREE ENERGY PREDICTED BY IDOCK:   -3.56 KCAL/MOL
REMARK 922        TOTAL FREE ENERGY PREDICTED BY IDOCK:   -4.66 KCAL/MOL
REMARK 923 INTER-LIGAND FREE ENERGY PREDICTED BY IDOCK:   -3.98 KCAL/MOL
REMARK 924 INTRA-LIGAND FREE ENERGY PREDICTED BY IDOCK:   -0.68 KCAL/MOL
REMARK 927      BINDING AFFINITY PREDICTED BY RF-SCORE:    0.00 PKD
ROOT
HETATM    1  O   UNL     1      -9.487   7.699  69.447  1.00  0.00    -0.153 OA 
HETATM    2  C   UNL     1      -9.819   9.032  69.010  1.00  0.00    -0.175 C  
HETATM    3  H   UNL     1      -9.327   7.752  70.382  1.00  0.00     0.000 HD 
HETATM    4  C   UNL     1     -10.080   8.945  67.474  1.00  0.00    -0.285 C  
HETATM    5  C   UNL     1     -11.159   9.415  69.710  1.00  0.00    -0.193 C  
HETATM    6  C   UNL     1      -8.619   9.927  69.366  1.00  0.00    -0.180 A  
HETATM    7  C   UNL     1     -11.166   9.436  71.244  1.00  0.00    -0.437 C  
HETATM    8  C   UNL     1      -8.288  11.071  68.618  1.00  0.00    -0.153 A  
HETATM    9  C   UNL     1     -11.813  10.741  69.277  1.00  0.00    -0.359 C  
HETATM   10  C   UNL     1      -7.069  11.736  68.804  1.00  0.00    -0.111 A  
HETATM   11  C   UNL     1     -12.376  10.299  71.578  1.00  0.00    -0.488 C  
HETATM   12  C   UNL     1      -7.732   9.559  70.396  1.00  0.00    -0.177 A  
HETATM   13  C   UNL     1     -12.286  11.420  70.556  1.00  0.00    -0.439 C  
HETATM   14  C   UNL     1      -6.182  11.308  69.782  1.00  0.00    -0.124 A  
HETATM   15  C   UNL     1      -6.526  10.239  70.603  1.00  0.00    -0.063 A  
ENDROOT
BRANCH   4  16
HETATM   16  C   UNL     1      -8.877   8.485  66.633  1.00  0.00    -0.135 C  
BRANCH  16  17
HETATM   17  N   UNL     1      -8.506   7.072  66.870  1.00  0.00    -0.117 NA 
HETATM   18  C   UNL     1      -8.817   6.157  65.760  1.00  0.00    -0.124 C  
HETATM   19  C   UNL     1      -6.492   6.362  64.805  1.00  0.00    -0.034 C  
HETATM   20  C   UNL     1      -7.986   6.401  64.499  1.00  0.00    -0.117 C  
HETATM   21  C   UNL     1      -6.140   7.227  66.012  1.00  0.00    -0.037 C  
HETATM   22  C   UNL     1      -7.071   6.958  67.199  1.00  0.00    -0.080 C  
ENDBRANCH  16  17
ENDBRANCH   4  16
TORSDOF 2
ENDMDL
MODEL      134
REMARK 921   NORMALIZED FREE ENERGY PREDICTED BY IDOCK:   -3.55 KCAL/MOL
REMARK 922        TOTAL FREE ENERGY PREDICTED BY IDOCK:   -4.65 KCAL/MOL
REMARK 923 INTER-LIGAND FREE ENERGY PREDICTED BY IDOCK:   -4.09 KCAL/MOL
REMARK 924 INTRA-LIGAND FREE ENERGY PREDICTED BY IDOCK:   -0.56 KCAL/MOL
REMARK 927      BINDING AFFINITY PREDICTED BY RF-SCORE:    0.00 PKD
ROOT
HETATM    1  O   UNL     1      -9.281  13.112  68.610  1.00  0.00    -0.369 OA 
HETATM    2  C   UNL     1     -10.275  14.036  68.124  1.00  0.00    -0.243 C  
HETATM    3  H   UNL     1      -8.595  13.082  67.954  1.00  0.00     0.000 HD 
HETATM    4  C   UNL     1     -11.403  14.084  69.201  1.00  0.00    -0.323 C  
HETATM    5  C   UNL     1      -9.598  15.439  68.067  1.00  0.00    -0.206 C  
HETATM    6  C   UNL     1     -10.761  13.491  66.769  1.00  0.00    -0.278 A  
HETATM    7  C   UNL     1      -8.371  15.587  67.156  1.00  0.00    -0.243 C  
HETATM    8  C   UNL     1     -12.063  13.724  66.290  1.00  0.00    -0.484 A  
HETATM    9  C   UNL     1     -10.508  16.635  67.729  1.00  0.00    -0.316 C  
HETATM   10  C   UNL     1     -12.566  13.032  65.181  1.00  0.00    -0.530 A  
HETATM   11  C   UNL     1      -8.280  17.091  66.933  1.00  0.00    -0.245 C  
HETATM   12  C   UNL     1      -9.945  12.632  66.009  1.00  0.00    -0.267 A  
HETATM   13  C   UNL     1      -9.731  17.495  66.739  1.00  0.00    -0.296 C  
HETATM   14  C   UNL     1     -11.758  12.137  64.491  1.00  0.00    -0.410 A  
HETATM   15  C   UNL     1     -10.436  11.960  64.883  1.00  0.00    -0.331 A  
ENDROOT
BRANCH   4  16
HETATM   16  C   UNL     1     -12.120  12.747  69.455  1.00  0.00    -0.192 C  
BRANCH  16  17
HETATM   17  N   UNL     1     -11.647  12.052  70.673  1.00  0.00     0.187 NA 
HETATM   18  C   UNL     1     -12.496  12.238  71.861  1.00  0.00     0.276 C  
HETATM   19  C   UNL     1     -13.757  10.100  71.418  1.00  0.00    -0.095 C  
HETATM   20  C   UNL     1     -13.874  11.584  71.749  1.00  0.00     0.489 C  
HETATM   21  C   UNL     1     -12.808   9.856  70.247  1.00  0.00     0.114 C  
HETATM   22  C   UNL     1     -11.483  10.608  70.419  1.00  0.00    -0.334 C  
ENDBRANCH  16  17
ENDBRANCH   4  16
TORSDOF 2
ENDMDL
MODEL      135
REMARK 921   NORMALIZED FREE ENERGY PREDICTED BY IDOCK:   -3.54 KCAL/MOL
REMARK 922        TOTAL FREE ENERGY PREDICTED BY IDOCK:   -4.65 KCAL/MOL
REMARK 923 INTER-LIGAND FREE ENERGY PREDICTED BY IDOCK:   -3.99 KCAL/MOL
REMARK 924 INTRA-LIGAND FREE ENERGY PREDICTED BY IDOCK:   -0.66 KCAL/MOL
REMARK 927      BINDING AFFINITY PREDICTED BY RF-SCORE:    0.00 PKD
ROOT
HETATM    1  O   UNL     1      -7.947   9.165  69.694  1.00  0.00    -0.092 OA 
HETATM    2  C   UNL     1      -8.459   8.494  68.525  1.00  0.00    -0.131 C  
HETATM    3  H   UNL     1      -7.078   8.815  69.848  1.00  0.00     0.000 HD 
HETATM    4  C   UNL     1      -9.888   9.069  68.272  1.00  0.00    -0.186 C  
HETATM    5  C   UNL     1      -7.549   8.912  67.330  1.00  0.00    -0.089 C  
HETATM    6  C   UNL     1      -8.465   6.989  68.845  1.00  0.00    -0.125 A  
HETATM    7  C   UNL     1      -6.059   8.558  67.428  1.00  0.00    -0.052 C  
HETATM    8  C   UNL     1      -9.394   6.104  68.269  1.00  0.00    -0.116 A  
HETATM    9  C   UNL     1      -7.990   8.452  65.928  1.00  0.00    -0.099 C  
HETATM   10  C   UNL     1      -9.542   4.794  68.743  1.00  0.00    -0.227 A  
HETATM   11  C   UNL     1      -5.587   8.621  65.981  1.00  0.00    -0.042 C  
HETATM   12  C   UNL     1      -7.603   6.463  69.826  1.00  0.00    -0.093 A  
HETATM   13  C   UNL     1      -6.729   7.968  65.222  1.00  0.00    -0.055 C  
HETATM   14  C   UNL     1      -8.723   4.323  69.761  1.00  0.00    -0.114 A  
HETATM   15  C   UNL     1      -7.730   5.145  70.282  1.00  0.00    -0.071 A  
ENDROOT
BRANCH   4  16
HETATM   16  C   UNL     1     -10.899   8.827  69.406  1.00  0.00    -0.110 C  
BRANCH  16  17
HETATM   17  N   UNL     1     -10.752   9.777  70.532  1.00  0.00    -0.297 NA 
HETATM   18  C   UNL     1     -11.812  10.793  70.625  1.00  0.00    -0.360 C  
HETATM   19  C   UNL     1     -13.130   9.412  72.272  1.00  0.00    -0.509 C  
HETATM   20  C   UNL     1     -13.187  10.228  70.985  1.00  0.00    -0.399 C  
HETATM   21  C   UNL     1     -11.982   8.406  72.254  1.00  0.00    -0.455 C  
HETATM   22  C   UNL     1     -10.663   9.054  71.816  1.00  0.00    -0.367 C  
ENDBRANCH  16  17
ENDBRANCH   4  16
TORSDOF 2
ENDMDL
MODEL      136
REMARK 921   NORMALIZED FREE ENERGY PREDICTED BY IDOCK:   -3.50 KCAL/MOL
REMARK 922        TOTAL FREE ENERGY PREDICTED BY IDOCK:   -4.60 KCAL/MOL
REMARK 923 INTER-LIGAND FREE ENERGY PREDICTED BY IDOCK:   -3.98 KCAL/MOL
REMARK 924 INTRA-LIGAND FREE ENERGY PREDICTED BY IDOCK:   -0.63 KCAL/MOL
REMARK 927      BINDING AFFINITY PREDICTED BY RF-SCORE:    0.00 PKD
ROOT
HETATM    1  O   UNL     1     -11.397   8.243  69.017  1.00  0.00    -0.283 OA 
HETATM    2  C   UNL     1     -10.492   9.102  68.294  1.00  0.00    -0.208 C  
HETATM    3  H   UNL     1     -11.541   8.652  69.862  1.00  0.00     0.000 HD 
HETATM    4  C   UNL     1     -10.255   8.429  66.906  1.00  0.00    -0.383 C  
HETATM    5  C   UNL     1     -11.239  10.450  68.060  1.00  0.00    -0.340 C  
HETATM    6  C   UNL     1      -9.210   9.205  69.138  1.00  0.00    -0.144 A  
HETATM    7  C   UNL     1     -11.688  11.227  69.305  1.00  0.00    -0.403 C  
HETATM    8  C   UNL     1      -7.945   9.414  68.560  1.00  0.00    -0.093 A  
HETATM    9  C   UNL     1     -10.537  11.484  67.160  1.00  0.00    -0.273 C  
HETATM   10  C   UNL     1      -6.769   9.269  69.307  1.00  0.00    -0.049 A  
HETATM   11  C   UNL     1     -11.894  12.642  68.780  1.00  0.00    -0.341 C  
HETATM   12  C   UNL     1      -9.247   8.975  70.527  1.00  0.00    -0.261 A  
HETATM   13  C   UNL     1     -10.712  12.834  67.846  1.00  0.00    -0.235 C  
HETATM   14  C   UNL     1      -6.835   8.973  70.662  1.00  0.00    -0.071 A  
HETATM   15  C   UNL     1      -8.074   8.858  71.283  1.00  0.00    -0.185 A  
ENDROOT
BRANCH   4  16
HETATM   16  C   UNL     1      -9.605   7.036  66.958  1.00  0.00    -0.157 C  
BRANCH  16  17
HETATM   17  N   UNL     1      -8.834   6.706  65.739  1.00  0.00    -0.121 NA 
HETATM   18  C   UNL     1      -7.446   7.196  65.732  1.00  0.00    -0.081 C  
HETATM   19  C   UNL     1      -6.561   5.000  66.601  1.00  0.00    -0.046 C  
HETATM   20  C   UNL     1      -6.542   6.517  66.762  1.00  0.00    -0.048 C  
HETATM   21  C   UNL     1      -7.986   4.460  66.509  1.00  0.00    -0.099 C  
HETATM   22  C   UNL     1      -8.831   5.249  65.502  1.00  0.00    -0.153 C  
ENDBRANCH  16  17
ENDBRANCH   4  16
TORSDOF 2
ENDMDL
MODEL      137
REMARK 921   NORMALIZED FREE ENERGY PREDICTED BY IDOCK:   -3.50 KCAL/MOL
REMARK 922        TOTAL FREE ENERGY PREDICTED BY IDOCK:   -4.60 KCAL/MOL
REMARK 923 INTER-LIGAND FREE ENERGY PREDICTED BY IDOCK:   -4.18 KCAL/MOL
REMARK 924 INTRA-LIGAND FREE ENERGY PREDICTED BY IDOCK:   -0.41 KCAL/MOL
REMARK 927      BINDING AFFINITY PREDICTED BY RF-SCORE:    0.00 PKD
ROOT
HETATM    1  O   UNL     1     -10.260   6.497  66.206  1.00  0.00    -0.417 OA 
HETATM    2  C   UNL     1      -9.731   6.450  67.546  1.00  0.00    -0.121 C  
HETATM    3  H   UNL     1      -9.750   5.882  65.692  1.00  0.00     0.000 HD 
HETATM    4  C   UNL     1     -10.570   7.460  68.390  1.00  0.00    -0.192 C  
HETATM    5  C   UNL     1     -10.008   5.016  68.091  1.00  0.00    -0.190 C  
HETATM    6  C   UNL     1      -8.245   6.836  67.450  1.00  0.00    -0.122 A  
HETATM    7  C   UNL     1      -9.380   3.843  67.325  1.00  0.00    -0.220 C  
HETATM    8  C   UNL     1      -7.565   7.472  68.503  1.00  0.00    -0.114 A  
HETATM    9  C   UNL     1      -9.679   4.761  69.574  1.00  0.00    -0.271 C  
HETATM   10  C   UNL     1      -6.292   8.027  68.319  1.00  0.00    -0.050 A  
HETATM   11  C   UNL     1      -9.397   2.710  68.342  1.00  0.00    -0.256 C  
HETATM   12  C   UNL     1      -7.538   6.666  66.244  1.00  0.00    -0.090 A  
HETATM   13  C   UNL     1      -8.991   3.403  69.631  1.00  0.00    -0.177 C  
HETATM   14  C   UNL     1      -5.647   7.904  67.096  1.00  0.00    -0.036 A  
HETATM   15  C   UNL     1      -6.254   7.195  66.065  1.00  0.00    -0.040 A  
ENDROOT
BRANCH   4  16
HETATM   16  C   UNL     1     -10.486   8.925  67.927  1.00  0.00    -0.223 C  
BRANCH  16  17
HETATM   17  N   UNL     1      -9.973   9.839  68.972  1.00  0.00    -0.175 NA 
HETATM   18  C   UNL     1      -9.427  11.109  68.468  1.00  0.00    -0.193 C  
HETATM   19  C   UNL     1     -11.616  12.309  68.826  1.00  0.00    -0.380 C  
HETATM   20  C   UNL     1     -10.475  12.037  67.851  1.00  0.00    -0.221 C  
HETATM   21  C   UNL     1     -12.150  11.019  69.444  1.00  0.00    -0.389 C  
HETATM   22  C   UNL     1     -11.020  10.128  69.971  1.00  0.00    -0.307 C  
ENDBRANCH  16  17
ENDBRANCH   4  16
TORSDOF 2
ENDMDL
MODEL      138
REMARK 921   NORMALIZED FREE ENERGY PREDICTED BY IDOCK:   -3.46 KCAL/MOL
REMARK 922        TOTAL FREE ENERGY PREDICTED BY IDOCK:   -4.55 KCAL/MOL
REMARK 923 INTER-LIGAND FREE ENERGY PREDICTED BY IDOCK:   -4.11 KCAL/MOL
REMARK 924 INTRA-LIGAND FREE ENERGY PREDICTED BY IDOCK:   -0.44 KCAL/MOL
REMARK 927      BINDING AFFINITY PREDICTED BY RF-SCORE:    0.00 PKD
ROOT
HETATM    1  O   UNL     1      -8.682  11.307  69.336  1.00  0.00    -0.364 OA 
HETATM    2  C   UNL     1      -8.869  11.006  67.938  1.00  0.00    -0.134 C  
HETATM    3  H   UNL     1      -9.489  11.066  69.775  1.00  0.00     0.000 HD 
HETATM    4  C   UNL     1      -7.543  11.403  67.217  1.00  0.00    -0.138 C  
HETATM    5  C   UNL     1      -9.037   9.460  67.829  1.00  0.00    -0.134 C  
HETATM    6  C   UNL     1     -10.080  11.829  67.466  1.00  0.00    -0.207 A  
HETATM    7  C   UNL     1     -10.218   8.830  68.580  1.00  0.00    -0.220 C  
HETATM    8  C   UNL     1     -10.210  12.279  66.140  1.00  0.00    -0.263 A  
HETATM    9  C   UNL     1      -9.090   8.867  66.408  1.00  0.00    -0.217 C  
HETATM   10  C   UNL     1     -11.185  13.218  65.781  1.00  0.00    -0.313 A  
HETATM   11  C   UNL     1     -10.398   7.486  67.886  1.00  0.00    -0.266 C  
HETATM   12  C   UNL     1     -11.053  12.263  68.386  1.00  0.00    -0.283 A  
HETATM   13  C   UNL     1     -10.208   7.831  66.420  1.00  0.00    -0.053 C  
HETATM   14  C   UNL     1     -12.090  13.682  66.728  1.00  0.00    -0.445 A  
HETATM   15  C   UNL     1     -12.047  13.181  68.024  1.00  0.00    -0.240 A  
ENDROOT
BRANCH   4  16
HETATM   16  C   UNL     1      -7.172  12.893  67.308  1.00  0.00    -0.067 C  
BRANCH  16  17
HETATM   17  N   UNL     1      -5.717  13.124  67.451  1.00  0.00    -0.346 NA 
HETATM   18  C   UNL     1      -5.343  14.494  67.838  1.00  0.00    -0.074 C  
HETATM   19  C   UNL     1      -5.247  13.884  70.283  1.00  0.00    -0.097 C  
HETATM   20  C   UNL     1      -5.773  14.879  69.254  1.00  0.00    -0.097 C  
HETATM   21  C   UNL     1      -5.532  12.441  69.871  1.00  0.00    -0.101 C  
HETATM   22  C   UNL     1      -5.130  12.174  68.416  1.00  0.00    -0.052 C  
ENDBRANCH  16  17
ENDBRANCH   4  16
TORSDOF 2
ENDMDL
MODEL      139
REMARK 921   NORMALIZED FREE ENERGY PREDICTED BY IDOCK:   -3.43 KCAL/MOL
REMARK 922        TOTAL FREE ENERGY PREDICTED BY IDOCK:   -4.52 KCAL/MOL
REMARK 923 INTER-LIGAND FREE ENERGY PREDICTED BY IDOCK:   -4.13 KCAL/MOL
REMARK 924 INTRA-LIGAND FREE ENERGY PREDICTED BY IDOCK:   -0.39 KCAL/MOL
REMARK 927      BINDING AFFINITY PREDICTED BY RF-SCORE:    0.00 PKD
ROOT
HETATM    1  O   UNL     1      -7.701   9.716  68.018  1.00  0.00    -0.086 OA 
HETATM    2  C   UNL     1      -8.989   9.691  68.665  1.00  0.00    -0.129 C  
HETATM    3  H   UNL     1      -7.867   9.717  67.083  1.00  0.00     0.000 HD 
HETATM    4  C   UNL     1      -8.716   9.689  70.201  1.00  0.00    -0.263 C  
HETATM    5  C   UNL     1      -9.703  11.028  68.300  1.00  0.00    -0.181 C  
HETATM    6  C   UNL     1      -9.703   8.417  68.180  1.00  0.00    -0.175 A  
HETATM    7  C   UNL     1      -9.959  11.301  66.811  1.00  0.00    -0.238 C  
HETATM    8  C   UNL     1     -10.643   7.736  68.973  1.00  0.00    -0.179 A  
HETATM    9  C   UNL     1     -11.041  11.315  69.006  1.00  0.00    -0.301 C  
HETATM   10  C   UNL     1     -11.105   6.461  68.623  1.00  0.00    -0.393 A  
HETATM   11  C   UNL     1     -11.061  12.352  66.832  1.00  0.00    -0.335 C  
HETATM   12  C   UNL     1      -9.346   7.819  66.956  1.00  0.00    -0.196 A  
HETATM   13  C   UNL     1     -11.980  11.860  67.936  1.00  0.00    -0.189 C  
HETATM   14  C   UNL     1     -10.681   5.865  67.442  1.00  0.00    -0.370 A  
HETATM   15  C   UNL     1      -9.827   6.556  66.590  1.00  0.00    -0.203 A  
ENDROOT
BRANCH   4  16
HETATM   16  C   UNL     1      -7.930   8.474  70.722  1.00  0.00    -0.107 C  
BRANCH  16  17
HETATM   17  N   UNL     1      -8.699   7.649  71.680  1.00  0.00    -0.114 NA 
HETATM   18  C   UNL     1      -8.322   6.226  71.713  1.00  0.00    -0.121 C  
HETATM   19  C   UNL     1      -6.747   6.584  73.649  1.00  0.00    -0.077 C  
HETATM   20  C   UNL     1      -6.920   5.966  72.266  1.00  0.00    -0.082 C  
HETATM   21  C   UNL     1      -7.216   8.037  73.682  1.00  0.00    -0.174 C  
HETATM   22  C   UNL     1      -8.600   8.204  73.044  1.00  0.00    -0.219 C  
ENDBRANCH  16  17
ENDBRANCH   4  16
TORSDOF 2
ENDMDL
MODEL      140
REMARK 921   NORMALIZED FREE ENERGY PREDICTED BY IDOCK:   -3.43 KCAL/MOL
REMARK 922        TOTAL FREE ENERGY PREDICTED BY IDOCK:   -4.52 KCAL/MOL
REMARK 923 INTER-LIGAND FREE ENERGY PREDICTED BY IDOCK:   -4.36 KCAL/MOL
REMARK 924 INTRA-LIGAND FREE ENERGY PREDICTED BY IDOCK:   -0.16 KCAL/MOL
REMARK 927      BINDING AFFINITY PREDICTED BY RF-SCORE:    0.00 PKD
ROOT
HETATM    1  O   UNL     1      -9.703  13.857  69.045  1.00  0.00    -0.406 OA 
HETATM    2  C   UNL     1     -10.311  12.596  68.701  1.00  0.00    -0.177 C  
HETATM    3  H   UNL     1     -10.415  14.472  69.182  1.00  0.00     0.000 HD 
HETATM    4  C   UNL     1      -9.142  11.587  68.475  1.00  0.00    -0.157 C  
HETATM    5  C   UNL     1     -11.120  12.130  69.949  1.00  0.00     0.172 C  
HETATM    6  C   UNL     1     -11.148  12.839  67.433  1.00  0.00    -0.312 A  
HETATM    7  C   UNL     1     -12.250  13.049  70.433  1.00  0.00    -0.386 C  
HETATM    8  C   UNL     1     -11.381  11.829  66.483  1.00  0.00    -0.370 A  
HETATM    9  C   UNL     1     -11.735  10.719  69.889  1.00  0.00    -0.412 C  
HETATM   10  C   UNL     1     -11.937  12.121  65.231  1.00  0.00    -0.313 A  
HETATM   11  C   UNL     1     -13.120  12.123  71.273  1.00  0.00    -0.210 C  
HETATM   12  C   UNL     1     -11.619  14.129  67.123  1.00  0.00    -0.400 A  
HETATM   13  C   UNL     1     -13.144  10.844  70.455  1.00  0.00    -0.090 C  
HETATM   14  C   UNL     1     -12.329  13.418  64.926  1.00  0.00    -0.457 A  
HETATM   15  C   UNL     1     -12.201  14.419  65.882  1.00  0.00    -0.354 A  
ENDROOT
BRANCH   4  16
HETATM   16  C   UNL     1      -8.181  11.948  67.329  1.00  0.00    -0.170 C  
BRANCH  16  17
HETATM   17  N   UNL     1      -6.793  11.491  67.566  1.00  0.00    -0.090 NA 
HETATM   18  C   UNL     1      -5.749  12.421  67.107  1.00  0.00    -0.062 C  
HETATM   19  C   UNL     1      -5.541  13.474  69.389  1.00  0.00    -0.085 C  
HETATM   20  C   UNL     1      -5.692  13.731  67.893  1.00  0.00    -0.116 C  
HETATM   21  C   UNL     1      -6.549  12.441  69.889  1.00  0.00     0.112 C  
HETATM   22  C   UNL     1      -6.579  11.195  68.996  1.00  0.00    -0.075 C  
ENDBRANCH  16  17
ENDBRANCH   4  16
TORSDOF 2
ENDMDL
MODEL      141
REMARK 921   NORMALIZED FREE ENERGY PREDICTED BY IDOCK:   -3.42 KCAL/MOL
REMARK 922        TOTAL FREE ENERGY PREDICTED BY IDOCK:   -4.51 KCAL/MOL
REMARK 923 INTER-LIGAND FREE ENERGY PREDICTED BY IDOCK:   -3.85 KCAL/MOL
REMARK 924 INTRA-LIGAND FREE ENERGY PREDICTED BY IDOCK:   -0.66 KCAL/MOL
REMARK 927      BINDING AFFINITY PREDICTED BY RF-SCORE:    0.00 PKD
ROOT
HETATM    1  O   UNL     1      -9.901   6.741  69.756  1.00  0.00    -0.165 OA 
HETATM    2  C   UNL     1      -8.847   6.985  70.708  1.00  0.00    -0.149 C  
HETATM    3  H   UNL     1      -9.482   6.434  68.961  1.00  0.00     0.000 HD 
HETATM    4  C   UNL     1      -9.536   7.490  72.015  1.00  0.00    -0.174 C  
HETATM    5  C   UNL     1      -8.184   5.607  71.011  1.00  0.00    -0.121 C  
HETATM    6  C   UNL     1      -7.914   8.033  70.077  1.00  0.00    -0.106 A  
HETATM    7  C   UNL     1      -7.549   4.861  69.828  1.00  0.00    -0.056 C  
HETATM    8  C   UNL     1      -7.174   8.943  70.853  1.00  0.00    -0.093 A  
HETATM    9  C   UNL     1      -7.127   5.577  72.131  1.00  0.00    -0.086 C  
HETATM   10  C   UNL     1      -6.520  10.035  70.269  1.00  0.00    -0.117 A  
HETATM   11  C   UNL     1      -6.596   3.883  70.502  1.00  0.00    -0.032 C  
HETATM   12  C   UNL     1      -7.860   8.194  68.679  1.00  0.00    -0.114 A  
HETATM   13  C   UNL     1      -5.981   4.716  71.612  1.00  0.00    -0.017 C  
HETATM   14  C   UNL     1      -6.542  10.207  68.891  1.00  0.00    -0.049 A  
HETATM   15  C   UNL     1      -7.183   9.269  68.091  1.00  0.00    -0.078 A  
ENDROOT
BRANCH   4  16
HETATM   16  C   UNL     1     -10.323   8.804  71.871  1.00  0.00    -0.344 C  
BRANCH  16  17
HETATM   17  N   UNL     1     -11.425   8.719  70.886  1.00  0.00    -0.280 NA 
HETATM   18  C   UNL     1     -12.742   8.398  71.459  1.00  0.00    -0.308 C  
HETATM   19  C   UNL     1     -13.381  10.833  71.611  1.00  0.00    -0.390 C  
HETATM   20  C   UNL     1     -13.319   9.500  72.349  1.00  0.00    -0.469 C  
HETATM   21  C   UNL     1     -12.058  11.159  70.922  1.00  0.00    -0.427 C  
HETATM   22  C   UNL     1     -11.528   9.971  70.111  1.00  0.00    -0.277 C  
ENDBRANCH  16  17
ENDBRANCH   4  16
TORSDOF 2
ENDMDL
MODEL      142
REMARK 921   NORMALIZED FREE ENERGY PREDICTED BY IDOCK:   -3.38 KCAL/MOL
REMARK 922        TOTAL FREE ENERGY PREDICTED BY IDOCK:   -4.46 KCAL/MOL
REMARK 923 INTER-LIGAND FREE ENERGY PREDICTED BY IDOCK:   -4.01 KCAL/MOL
REMARK 924 INTRA-LIGAND FREE ENERGY PREDICTED BY IDOCK:   -0.45 KCAL/MOL
REMARK 927      BINDING AFFINITY PREDICTED BY RF-SCORE:    0.00 PKD
ROOT
HETATM    1  O   UNL     1     -10.856   5.043  69.480  1.00  0.00     0.032 OA 
HETATM    2  C   UNL     1     -10.137   6.255  69.784  1.00  0.00    -0.176 C  
HETATM    3  H   UNL     1     -11.625   5.302  68.985  1.00  0.00     0.000 HD 
HETATM    4  C   UNL     1      -8.874   5.830  70.597  1.00  0.00    -0.145 C  
HETATM    5  C   UNL     1      -9.661   6.851  68.425  1.00  0.00    -0.126 C  
HETATM    6  C   UNL     1     -11.096   7.150  70.589  1.00  0.00    -0.294 A  
HETATM    7  C   UNL     1     -10.747   7.224  67.406  1.00  0.00    -0.358 C  
HETATM    8  C   UNL     1     -10.636   8.075  71.543  1.00  0.00    -0.273 A  
HETATM    9  C   UNL     1      -8.723   8.071  68.492  1.00  0.00    -0.131 C  
HETATM   10  C   UNL     1     -11.518   8.706  72.429  1.00  0.00    -0.369 A  
HETATM   11  C   UNL     1     -10.035   8.197  66.475  1.00  0.00    -0.302 C  
HETATM   12  C   UNL     1     -12.490   6.986  70.476  1.00  0.00    -0.085 A  
HETATM   13  C   UNL     1      -9.218   9.047  67.431  1.00  0.00    -0.158 C  
HETATM   14  C   UNL     1     -12.884   8.472  72.340  1.00  0.00    -0.373 A  
HETATM   15  C   UNL     1     -13.376   7.638  71.343  1.00  0.00    -0.340 A  
ENDROOT
BRANCH   4  16
HETATM   16  C   UNL     1      -9.165   5.133  71.938  1.00  0.00    -0.137 C  
BRANCH  16  17
HETATM   17  N   UNL     1      -8.220   4.036  72.242  1.00  0.00    -0.095 NA 
HETATM   18  C   UNL     1      -8.614   3.176  73.370  1.00  0.00    -0.077 C  
HETATM   19  C   UNL     1      -9.705   1.495  71.840  1.00  0.00    -0.191 C  
HETATM   20  C   UNL     1      -9.861   2.333  73.105  1.00  0.00    -0.165 C  
HETATM   21  C   UNL     1      -9.207   2.334  70.665  1.00  0.00    -0.191 C  
HETATM   22  C   UNL     1      -7.998   3.194  71.050  1.00  0.00    -0.054 C  
ENDBRANCH  16  17
ENDBRANCH   4  16
TORSDOF 2
ENDMDL
MODEL      143
REMARK 921   NORMALIZED FREE ENERGY PREDICTED BY IDOCK:   -3.37 KCAL/MOL
REMARK 922        TOTAL FREE ENERGY PREDICTED BY IDOCK:   -4.45 KCAL/MOL
REMARK 923 INTER-LIGAND FREE ENERGY PREDICTED BY IDOCK:   -4.27 KCAL/MOL
REMARK 924 INTRA-LIGAND FREE ENERGY PREDICTED BY IDOCK:   -0.18 KCAL/MOL
REMARK 927      BINDING AFFINITY PREDICTED BY RF-SCORE:    0.00 PKD
ROOT
HETATM    1  O   UNL     1      -7.569  12.004  68.204  1.00  0.00    -0.103 OA 
HETATM    2  C   UNL     1      -8.816  11.646  67.575  1.00  0.00    -0.158 C  
HETATM    3  H   UNL     1      -7.139  11.189  68.437  1.00  0.00     0.000 HD 
HETATM    4  C   UNL     1      -9.521  12.984  67.193  1.00  0.00    -0.230 C  
HETATM    5  C   UNL     1      -8.458  10.892  66.258  1.00  0.00    -0.166 C  
HETATM    6  C   UNL     1      -9.609  10.821  68.603  1.00  0.00    -0.187 A  
HETATM    7  C   UNL     1      -7.641   9.600  66.392  1.00  0.00    -0.101 C  
HETATM    8  C   UNL     1     -11.015  10.806  68.630  1.00  0.00    -0.285 A  
HETATM    9  C   UNL     1      -9.627  10.545  65.318  1.00  0.00    -0.303 C  
HETATM   10  C   UNL     1     -11.718  10.249  69.706  1.00  0.00    -0.261 A  
HETATM   11  C   UNL     1      -7.899   8.884  65.072  1.00  0.00    -0.112 C  
HETATM   12  C   UNL     1      -8.943  10.136  69.638  1.00  0.00    -0.190 A  
HETATM   13  C   UNL     1      -9.382   9.118  64.842  1.00  0.00    -0.050 C  
HETATM   14  C   UNL     1     -11.031   9.640  70.748  1.00  0.00    -0.397 A  
HETATM   15  C   UNL     1      -9.644   9.552  70.701  1.00  0.00    -0.292 A  
ENDROOT
BRANCH   4  16
HETATM   16  C   UNL     1      -9.865  13.902  68.379  1.00  0.00    -0.229 C  
BRANCH  16  17
HETATM   17  N   UNL     1      -9.849  15.340  68.027  1.00  0.00    -0.215 NA 
HETATM   18  C   UNL     1      -9.348  16.230  69.087  1.00  0.00    -0.236 C  
HETATM   19  C   UNL     1      -7.012  16.214  68.135  1.00  0.00    -0.135 C  
HETATM   20  C   UNL     1      -7.860  16.056  69.394  1.00  0.00    -0.167 C  
HETATM   21  C   UNL     1      -7.556  15.375  66.980  1.00  0.00    -0.195 C  
HETATM   22  C   UNL     1      -9.066  15.567  66.797  1.00  0.00    -0.255 C  
ENDBRANCH  16  17
ENDBRANCH   4  16
TORSDOF 2
ENDMDL
MODEL      144
REMARK 921   NORMALIZED FREE ENERGY PREDICTED BY IDOCK:   -3.34 KCAL/MOL
REMARK 922        TOTAL FREE ENERGY PREDICTED BY IDOCK:   -4.42 KCAL/MOL
REMARK 923 INTER-LIGAND FREE ENERGY PREDICTED BY IDOCK:   -4.27 KCAL/MOL
REMARK 924 INTRA-LIGAND FREE ENERGY PREDICTED BY IDOCK:   -0.15 KCAL/MOL
REMARK 927      BINDING AFFINITY PREDICTED BY RF-SCORE:    0.00 PKD
ROOT
HETATM    1  O   UNL     1      -7.504  10.791  67.195  1.00  0.00    -0.094 OA 
HETATM    2  C   UNL     1      -8.857  10.315  67.333  1.00  0.00    -0.131 C  
HETATM    3  H   UNL     1      -7.314  11.300  67.974  1.00  0.00     0.000 HD 
HETATM    4  C   UNL     1      -9.168   9.479  66.053  1.00  0.00    -0.248 C  
HETATM    5  C   UNL     1      -8.873   9.351  68.558  1.00  0.00    -0.128 C  
HETATM    6  C   UNL     1      -9.752  11.559  67.471  1.00  0.00    -0.189 A  
HETATM    7  C   UNL     1      -8.468   9.938  69.917  1.00  0.00    -0.210 C  
HETATM    8  C   UNL     1     -11.089  11.574  67.035  1.00  0.00    -0.365 A  
HETATM    9  C   UNL     1     -10.181   8.580  68.817  1.00  0.00    -0.217 C  
HETATM   10  C   UNL     1     -11.813  12.769  66.947  1.00  0.00    -0.440 A  
HETATM   11  C   UNL     1      -9.058   8.952  70.916  1.00  0.00    -0.283 C  
HETATM   12  C   UNL     1      -9.219  12.775  67.939  1.00  0.00    -0.205 A  
HETATM   13  C   UNL     1     -10.420   8.639  70.321  1.00  0.00    -0.229 C  
HETATM   14  C   UNL     1     -11.238  13.966  67.352  1.00  0.00    -0.330 A  
HETATM   15  C   UNL     1      -9.951  13.968  67.880  1.00  0.00    -0.237 A  
ENDROOT
BRANCH   4  16
HETATM   16  C   UNL     1      -9.103  10.263  64.731  1.00  0.00    -0.219 C  
BRANCH  16  17
HETATM   17  N   UNL     1      -8.672   9.435  63.582  1.00  0.00    -0.217 NA 
HETATM   18  C   UNL     1      -7.778  10.115  62.630  1.00  0.00    -0.140 C  
HETATM   19  C   UNL     1      -5.716   9.203  63.759  1.00  0.00    -0.074 C  
HETATM   20  C   UNL     1      -6.399  10.447  63.200  1.00  0.00    -0.109 C  
HETATM   21  C   UNL     1      -6.645   8.416  64.681  1.00  0.00    -0.065 C  
HETATM   22  C   UNL     1      -8.023   8.194  64.049  1.00  0.00    -0.139 C  
ENDBRANCH  16  17
ENDBRANCH   4  16
TORSDOF 2
ENDMDL
MODEL      145
REMARK 921   NORMALIZED FREE ENERGY PREDICTED BY IDOCK:   -3.26 KCAL/MOL
REMARK 922        TOTAL FREE ENERGY PREDICTED BY IDOCK:   -4.33 KCAL/MOL
REMARK 923 INTER-LIGAND FREE ENERGY PREDICTED BY IDOCK:   -3.74 KCAL/MOL
REMARK 924 INTRA-LIGAND FREE ENERGY PREDICTED BY IDOCK:   -0.59 KCAL/MOL
REMARK 927      BINDING AFFINITY PREDICTED BY RF-SCORE:    0.00 PKD
ROOT
HETATM    1  O   UNL     1     -10.147   9.274  65.219  1.00  0.00    -0.346 OA 
HETATM    2  C   UNL     1      -9.217   9.049  66.297  1.00  0.00    -0.206 C  
HETATM    3  H   UNL     1      -9.878   8.706  64.506  1.00  0.00     0.000 HD 
HETATM    4  C   UNL     1      -9.658   9.983  67.467  1.00  0.00    -0.178 C  
HETATM    5  C   UNL     1      -9.407   7.572  66.756  1.00  0.00    -0.209 C  
HETATM    6  C   UNL     1      -7.818   9.388  65.752  1.00  0.00    -0.099 A  
HETATM    7  C   UNL     1      -9.151   6.476  65.712  1.00  0.00    -0.009 C  
HETATM    8  C   UNL     1      -6.787   9.869  66.579  1.00  0.00    -0.085 A  
HETATM    9  C   UNL     1      -8.635   7.131  68.014  1.00  0.00    -0.128 C  
HETATM   10  C   UNL     1      -5.606  10.394  66.040  1.00  0.00    -0.084 A  
HETATM   11  C   UNL     1      -8.921   5.231  66.560  1.00  0.00    -0.120 C  
HETATM   12  C   UNL     1      -7.556   9.335  64.370  1.00  0.00    -0.115 A  
HETATM   13  C   UNL     1      -8.068   5.751  67.704  1.00  0.00    -0.102 C  
HETATM   14  C   UNL     1      -5.404  10.392  64.666  1.00  0.00    -0.140 A  
HETATM   15  C   UNL     1      -6.364   9.833  63.830  1.00  0.00    -0.118 A  
ENDROOT
BRANCH   4  16
HETATM   16  C   UNL     1      -9.620  11.488  67.150  1.00  0.00    -0.177 C  
BRANCH  16  17
HETATM   17  N   UNL     1     -10.949  12.046  66.813  1.00  0.00    -0.270 NA 
HETATM   18  C   UNL     1     -11.963  11.910  67.871  1.00  0.00    -0.118 C  
HETATM   19  C   UNL     1     -11.482  14.218  68.767  1.00  0.00    -0.327 C  
HETATM   20  C   UNL     1     -11.677  12.746  69.119  1.00  0.00    -0.375 C  
HETATM   21  C   UNL     1     -10.505  14.397  67.608  1.00  0.00    -0.245 C  
HETATM   22  C   UNL     1     -10.836  13.468  66.434  1.00  0.00    -0.290 C  
ENDBRANCH  16  17
ENDBRANCH   4  16
TORSDOF 2
ENDMDL
MODEL      146
REMARK 921   NORMALIZED FREE ENERGY PREDICTED BY IDOCK:   -3.23 KCAL/MOL
REMARK 922        TOTAL FREE ENERGY PREDICTED BY IDOCK:   -4.30 KCAL/MOL
REMARK 923 INTER-LIGAND FREE ENERGY PREDICTED BY IDOCK:   -4.68 KCAL/MOL
REMARK 924 INTRA-LIGAND FREE ENERGY PREDICTED BY IDOCK:    0.38 KCAL/MOL
REMARK 927      BINDING AFFINITY PREDICTED BY RF-SCORE:    0.00 PKD
ROOT
HETATM    1  O   UNL     1     -10.076  10.318  70.113  1.00  0.00    -0.406 OA 
HETATM    2  C   UNL     1     -10.435   9.015  70.615  1.00  0.00    -0.230 C  
HETATM    3  H   UNL     1     -10.758  10.570  69.502  1.00  0.00     0.000 HD 
HETATM    4  C   UNL     1      -9.314   8.601  71.618  1.00  0.00    -0.333 C  
HETATM    5  C   UNL     1     -11.762   9.191  71.415  1.00  0.00    -0.413 C  
HETATM    6  C   UNL     1     -10.527   8.081  69.396  1.00  0.00    -0.223 A  
HETATM    7  C   UNL     1     -12.979   9.721  70.644  1.00  0.00    -0.114 C  
HETATM    8  C   UNL     1     -10.258   6.703  69.485  1.00  0.00    -0.208 A  
HETATM    9  C   UNL     1     -12.271   7.962  72.192  1.00  0.00    -0.353 C  
HETATM   10  C   UNL     1     -10.113   5.914  68.338  1.00  0.00    -0.206 A  
HETATM   11  C   UNL     1     -14.156   9.301  71.515  1.00  0.00    -0.195 C  
HETATM   12  C   UNL     1     -10.774   8.602  68.112  1.00  0.00    -0.116 A  
HETATM   13  C   UNL     1     -13.774   7.897  71.950  1.00  0.00    -0.366 C  
HETATM   14  C   UNL     1     -10.295   6.471  67.079  1.00  0.00    -0.319 A  
HETATM   15  C   UNL     1     -10.658   7.808  66.964  1.00  0.00    -0.396 A  
ENDROOT
BRANCH   4  16
HETATM   16  C   UNL     1      -7.908   8.472  71.008  1.00  0.00    -0.110 C  
BRANCH  16  17
HETATM   17  N   UNL     1      -7.245   9.778  70.791  1.00  0.00    -0.314 NA 
HETATM   18  C   UNL     1      -5.774   9.734  70.804  1.00  0.00    -0.071 C  
HETATM   19  C   UNL     1      -5.658   9.524  68.293  1.00  0.00    -0.037 C  
HETATM   20  C   UNL     1      -5.163   8.972  69.627  1.00  0.00    -0.034 C  
HETATM   21  C   UNL     1      -7.178   9.674  68.273  1.00  0.00    -0.079 C  
HETATM   22  C   UNL     1      -7.698  10.388  69.525  1.00  0.00    -0.156 C  
ENDBRANCH  16  17
ENDBRANCH   4  16
TORSDOF 2
ENDMDL
MODEL      147
REMARK 921   NORMALIZED FREE ENERGY PREDICTED BY IDOCK:   -3.22 KCAL/MOL
REMARK 922        TOTAL FREE ENERGY PREDICTED BY IDOCK:   -4.29 KCAL/MOL
REMARK 923 INTER-LIGAND FREE ENERGY PREDICTED BY IDOCK:   -3.61 KCAL/MOL
REMARK 924 INTRA-LIGAND FREE ENERGY PREDICTED BY IDOCK:   -0.69 KCAL/MOL
REMARK 927      BINDING AFFINITY PREDICTED BY RF-SCORE:    0.00 PKD
ROOT
HETATM    1  O   UNL     1      -7.126   7.600  68.652  1.00  0.00    -0.076 OA 
HETATM    2  C   UNL     1      -8.422   6.983  68.789  1.00  0.00    -0.122 C  
HETATM    3  H   UNL     1      -6.562   7.191  69.298  1.00  0.00     0.000 HD 
HETATM    4  C   UNL     1      -9.348   7.655  67.728  1.00  0.00    -0.153 C  
HETATM    5  C   UNL     1      -8.250   5.482  68.404  1.00  0.00    -0.099 C  
HETATM    6  C   UNL     1      -8.882   7.237  70.235  1.00  0.00    -0.147 A  
HETATM    7  C   UNL     1      -7.272   4.651  69.245  1.00  0.00    -0.052 C  
HETATM    8  C   UNL     1     -10.240   7.344  70.582  1.00  0.00    -0.202 A  
HETATM    9  C   UNL     1      -9.536   4.638  68.314  1.00  0.00    -0.200 C  
HETATM   10  C   UNL     1     -10.636   7.807  71.844  1.00  0.00    -0.270 A  
HETATM   11  C   UNL     1      -7.705   3.217  68.971  1.00  0.00    -0.047 C  
HETATM   12  C   UNL     1      -7.941   7.489  71.252  1.00  0.00    -0.095 A  
HETATM   13  C   UNL     1      -9.220   3.309  68.989  1.00  0.00    -0.224 C  
HETATM   14  C   UNL     1      -9.682   8.114  72.805  1.00  0.00    -0.351 A  
HETATM   15  C   UNL     1      -8.334   7.924  72.523  1.00  0.00    -0.191 A  
ENDROOT
BRANCH   4  16
HETATM   16  C   UNL     1      -9.552   9.169  67.905  1.00  0.00    -0.146 C  
BRANCH  16  17
HETATM   17  N   UNL     1      -8.509   9.980  67.239  1.00  0.00    -0.122 NA 
HETATM   18  C   UNL     1      -8.388   9.760  65.788  1.00  0.00    -0.129 C  
HETATM   19  C   UNL     1      -9.902  11.708  65.265  1.00  0.00    -0.279 C  
HETATM   20  C   UNL     1      -9.596  10.241  64.983  1.00  0.00    -0.346 C  
HETATM   21  C   UNL     1      -9.944  11.998  66.764  1.00  0.00    -0.218 C  
HETATM   22  C   UNL     1      -8.725  11.418  67.491  1.00  0.00    -0.140 C  
ENDBRANCH  16  17
ENDBRANCH   4  16
TORSDOF 2
ENDMDL
MODEL      148
REMARK 921   NORMALIZED FREE ENERGY PREDICTED BY IDOCK:   -3.22 KCAL/MOL
REMARK 922        TOTAL FREE ENERGY PREDICTED BY IDOCK:   -4.29 KCAL/MOL
REMARK 923 INTER-LIGAND FREE ENERGY PREDICTED BY IDOCK:   -3.97 KCAL/MOL
REMARK 924 INTRA-LIGAND FREE ENERGY PREDICTED BY IDOCK:   -0.32 KCAL/MOL
REMARK 927      BINDING AFFINITY PREDICTED BY RF-SCORE:    0.00 PKD
ROOT
HETATM    1  O   UNL     1     -10.587   7.172  66.472  1.00  0.00    -0.508 OA 
HETATM    2  C   UNL     1      -9.982   6.362  67.500  1.00  0.00    -0.136 C  
HETATM    3  H   UNL     1      -9.920   7.312  65.810  1.00  0.00     0.000 HD 
HETATM    4  C   UNL     1     -11.077   6.133  68.588  1.00  0.00    -0.378 C  
HETATM    5  C   UNL     1      -9.647   4.985  66.850  1.00  0.00    -0.162 C  
HETATM    6  C   UNL     1      -8.768   7.148  68.025  1.00  0.00    -0.127 A  
HETATM    7  C   UNL     1      -8.677   4.990  65.660  1.00  0.00    -0.139 C  
HETATM    8  C   UNL     1      -8.306   7.020  69.347  1.00  0.00    -0.133 A  
HETATM    9  C   UNL     1      -9.136   3.880  67.793  1.00  0.00    -0.183 C  
HETATM   10  C   UNL     1      -7.360   7.906  69.878  1.00  0.00    -0.075 A  
HETATM   11  C   UNL     1      -8.183   3.551  65.604  1.00  0.00    -0.097 C  
HETATM   12  C   UNL     1      -8.142   8.121  67.222  1.00  0.00    -0.121 A  
HETATM   13  C   UNL     1      -7.978   3.204  67.068  1.00  0.00    -0.079 C  
HETATM   14  C   UNL     1      -6.811   8.901  69.080  1.00  0.00    -0.055 A  
HETATM   15  C   UNL     1      -7.176   8.990  67.742  1.00  0.00    -0.083 A  
ENDROOT
BRANCH   4  16
HETATM   16  C   UNL     1     -11.594   7.410  69.271  1.00  0.00     0.504 C  
BRANCH  16  17
HETATM   17  N   UNL     1     -11.202   7.510  70.695  1.00  0.00    -0.266 NA 
HETATM   18  C   UNL     1     -11.188   8.878  71.238  1.00  0.00    -0.298 C  
HETATM   19  C   UNL     1     -13.530   8.649  72.145  1.00  0.00    -0.434 C  
HETATM   20  C   UNL     1     -12.572   9.521  71.340  1.00  0.00    -0.447 C  
HETATM   21  C   UNL     1     -13.505   7.197  71.672  1.00  0.00    -0.397 C  
HETATM   22  C   UNL     1     -12.073   6.666  71.536  1.00  0.00    -0.355 C  
ENDBRANCH  16  17
ENDBRANCH   4  16
TORSDOF 2
ENDMDL
MODEL      149
REMARK 921   NORMALIZED FREE ENERGY PREDICTED BY IDOCK:   -3.18 KCAL/MOL
REMARK 922        TOTAL FREE ENERGY PREDICTED BY IDOCK:   -4.24 KCAL/MOL
REMARK 923 INTER-LIGAND FREE ENERGY PREDICTED BY IDOCK:   -3.65 KCAL/MOL
REMARK 924 INTRA-LIGAND FREE ENERGY PREDICTED BY IDOCK:   -0.59 KCAL/MOL
REMARK 927      BINDING AFFINITY PREDICTED BY RF-SCORE:    0.00 PKD
ROOT
HETATM    1  O   UNL     1     -10.680  10.666  66.534  1.00  0.00    -0.224 OA 
HETATM    2  C   UNL     1     -10.060  10.051  67.680  1.00  0.00    -0.190 C  
HETATM    3  H   UNL     1     -10.436  10.142  65.780  1.00  0.00     0.000 HD 
HETATM    4  C   UNL     1     -10.461  10.912  68.919  1.00  0.00    -0.228 C  
HETATM    5  C   UNL     1     -10.705   8.641  67.840  1.00  0.00    -0.158 C  
HETATM    6  C   UNL     1      -8.544  10.049  67.416  1.00  0.00    -0.125 A  
HETATM    7  C   UNL     1     -10.544   7.661  66.670  1.00  0.00    -0.092 C  
HETATM    8  C   UNL     1      -7.601  10.109  68.457  1.00  0.00    -0.088 A  
HETATM    9  C   UNL     1     -10.323   7.842  69.101  1.00  0.00    -0.225 C  
HETATM   10  C   UNL     1      -6.245  10.344  68.198  1.00  0.00    -0.051 A  
HETATM   11  C   UNL     1     -10.805   6.304  67.310  1.00  0.00    -0.457 C  
HETATM   12  C   UNL     1      -8.048  10.103  66.099  1.00  0.00    -0.123 A  
HETATM   13  C   UNL     1     -10.080   6.410  68.640  1.00  0.00    -0.179 C  
HETATM   14  C   UNL     1      -5.793  10.463  66.890  1.00  0.00    -0.052 A  
HETATM   15  C   UNL     1      -6.688  10.310  65.837  1.00  0.00    -0.117 A  
ENDROOT
BRANCH   4  16
HETATM   16  C   UNL     1      -9.981  12.373  68.880  1.00  0.00     0.079 C  
BRANCH  16  17
HETATM   17  N   UNL     1     -10.490  13.124  67.710  1.00  0.00    -0.225 NA 
HETATM   18  C   UNL     1     -11.376  14.253  68.037  1.00  0.00    -0.294 C  
HETATM   19  C   UNL     1      -9.468  15.900  67.966  1.00  0.00    -0.206 C  
HETATM   20  C   UNL     1     -10.675  15.406  68.757  1.00  0.00    -0.241 C  
HETATM   21  C   UNL     1      -8.569  14.747  67.526  1.00  0.00    -0.198 C  
HETATM   22  C   UNL     1      -9.373  13.613  66.878  1.00  0.00    -0.257 C  
ENDBRANCH  16  17
ENDBRANCH   4  16
TORSDOF 2
ENDMDL
MODEL      150
REMARK 921   NORMALIZED FREE ENERGY PREDICTED BY IDOCK:   -3.17 KCAL/MOL
REMARK 922        TOTAL FREE ENERGY PREDICTED BY IDOCK:   -4.23 KCAL/MOL
REMARK 923 INTER-LIGAND FREE ENERGY PREDICTED BY IDOCK:   -3.60 KCAL/MOL
REMARK 924 INTRA-LIGAND FREE ENERGY PREDICTED BY IDOCK:   -0.64 KCAL/MOL
REMARK 927      BINDING AFFINITY PREDICTED BY RF-SCORE:    0.00 PKD
ROOT
HETATM    1  O   UNL     1      -9.992   9.068  66.781  1.00  0.00    -0.216 OA 
HETATM    2  C   UNL     1      -9.015   9.345  67.804  1.00  0.00    -0.122 C  
HETATM    3  H   UNL     1     -10.563   9.826  66.738  1.00  0.00     0.000 HD 
HETATM    4  C   UNL     1      -8.078   8.100  67.874  1.00  0.00    -0.128 C  
HETATM    5  C   UNL     1      -8.173  10.559  67.307  1.00  0.00    -0.119 C  
HETATM    6  C   UNL     1      -9.796   9.584  69.108  1.00  0.00    -0.176 A  
HETATM    7  C   UNL     1      -8.925  11.872  67.043  1.00  0.00    -0.190 C  
HETATM    8  C   UNL     1      -9.254   9.290  70.372  1.00  0.00    -0.291 A  
HETATM    9  C   UNL     1      -6.950  10.950  68.158  1.00  0.00    -0.069 C  
HETATM   10  C   UNL     1     -10.050   9.287  71.524  1.00  0.00    -0.306 A  
HETATM   11  C   UNL     1      -7.822  12.921  67.082  1.00  0.00    -0.084 C  
HETATM   12  C   UNL     1     -11.141  10.000  69.071  1.00  0.00    -0.221 A  
HETATM   13  C   UNL     1      -6.964  12.471  68.250  1.00  0.00    -0.089 C  
HETATM   14  C   UNL     1     -11.392   9.635  71.446  1.00  0.00    -0.444 A  
HETATM   15  C   UNL     1     -11.933  10.025  70.226  1.00  0.00    -0.264 A  
ENDROOT
BRANCH   4  16
HETATM   16  C   UNL     1      -8.772   6.782  68.263  1.00  0.00    -0.123 C  
BRANCH  16  17
HETATM   17  N   UNL     1      -7.824   5.726  68.682  1.00  0.00    -0.096 NA 
HETATM   18  C   UNL     1      -7.061   6.029  69.903  1.00  0.00    -0.072 C  
HETATM   19  C   UNL     1      -8.710   4.799  71.361  1.00  0.00    -0.143 C  
HETATM   20  C   UNL     1      -7.913   6.085  71.172  1.00  0.00    -0.116 C  
HETATM   21  C   UNL     1      -9.445   4.397  70.083  1.00  0.00    -0.245 C  
HETATM   22  C   UNL     1      -8.524   4.438  68.859  1.00  0.00    -0.083 C  
ENDBRANCH  16  17
ENDBRANCH   4  16
TORSDOF 2
ENDMDL
MODEL      151
REMARK 921   NORMALIZED FREE ENERGY PREDICTED BY IDOCK:   -3.16 KCAL/MOL
REMARK 922        TOTAL FREE ENERGY PREDICTED BY IDOCK:   -4.22 KCAL/MOL
REMARK 923 INTER-LIGAND FREE ENERGY PREDICTED BY IDOCK:   -3.81 KCAL/MOL
REMARK 924 INTRA-LIGAND FREE ENERGY PREDICTED BY IDOCK:   -0.41 KCAL/MOL
REMARK 927      BINDING AFFINITY PREDICTED BY RF-SCORE:    0.00 PKD
ROOT
HETATM    1  O   UNL     1     -10.832   8.813  69.242  1.00  0.00    -0.361 OA 
HETATM    2  C   UNL     1      -9.964   8.802  68.091  1.00  0.00    -0.173 C  
HETATM    3  H   UNL     1     -10.828   9.703  69.576  1.00  0.00     0.000 HD 
HETATM    4  C   UNL     1      -9.971   7.340  67.544  1.00  0.00    -0.218 C  
HETATM    5  C   UNL     1     -10.621   9.724  67.020  1.00  0.00    -0.269 C  
HETATM    6  C   UNL     1      -8.577   9.254  68.579  1.00  0.00    -0.128 A  
HETATM    7  C   UNL     1     -10.834  11.196  67.401  1.00  0.00    -0.317 C  
HETATM    8  C   UNL     1      -7.388   8.819  67.967  1.00  0.00    -0.088 A  
HETATM    9  C   UNL     1      -9.963   9.750  65.628  1.00  0.00    -0.352 C  
HETATM   10  C   UNL     1      -6.139   9.044  68.559  1.00  0.00    -0.045 A  
HETATM   11  C   UNL     1     -10.991  11.888  66.053  1.00  0.00    -0.355 C  
HETATM   12  C   UNL     1      -8.447  10.037  69.742  1.00  0.00    -0.189 A  
HETATM   13  C   UNL     1      -9.932  11.212  65.199  1.00  0.00    -0.323 C  
HETATM   14  C   UNL     1      -6.047   9.761  69.745  1.00  0.00    -0.043 A  
HETATM   15  C   UNL     1      -7.197  10.288  70.322  1.00  0.00    -0.077 A  
ENDROOT
BRANCH   4  16
HETATM   16  C   UNL     1      -9.437   6.276  68.519  1.00  0.00    -0.123 C  
BRANCH  16  17
HETATM   17  N   UNL     1      -8.271   5.534  67.990  1.00  0.00    -0.100 NA 
HETATM   18  C   UNL     1      -7.585   4.679  68.973  1.00  0.00    -0.060 C  
HETATM   19  C   UNL     1      -8.899   2.645  68.271  1.00  0.00    -0.162 C  
HETATM   20  C   UNL     1      -8.415   3.486  69.447  1.00  0.00    -0.098 C  
HETATM   21  C   UNL     1      -9.535   3.508  67.183  1.00  0.00    -0.219 C  
HETATM   22  C   UNL     1      -8.659   4.713  66.826  1.00  0.00    -0.108 C  
ENDBRANCH  16  17
ENDBRANCH   4  16
TORSDOF 2
ENDMDL
MODEL      152
REMARK 921   NORMALIZED FREE ENERGY PREDICTED BY IDOCK:   -3.14 KCAL/MOL
REMARK 922        TOTAL FREE ENERGY PREDICTED BY IDOCK:   -4.20 KCAL/MOL
REMARK 923 INTER-LIGAND FREE ENERGY PREDICTED BY IDOCK:   -3.60 KCAL/MOL
REMARK 924 INTRA-LIGAND FREE ENERGY PREDICTED BY IDOCK:   -0.60 KCAL/MOL
REMARK 927      BINDING AFFINITY PREDICTED BY RF-SCORE:    0.00 PKD
ROOT
HETATM    1  O   UNL     1     -10.952   5.641  66.042  1.00  0.00    -0.675 OA 
HETATM    2  C   UNL     1      -9.715   5.266  66.680  1.00  0.00    -0.164 C  
HETATM    3  H   UNL     1     -10.736   5.867  65.145  1.00  0.00     0.000 HD 
HETATM    4  C   UNL     1     -10.070   4.895  68.154  1.00  0.00    -0.141 C  
HETATM    5  C   UNL     1      -9.210   3.977  65.964  1.00  0.00    -0.153 C  
HETATM    6  C   UNL     1      -8.777   6.481  66.576  1.00  0.00    -0.135 A  
HETATM    7  C   UNL     1      -8.920   4.081  64.460  1.00  0.00    -0.137 C  
HETATM    8  C   UNL     1      -7.784   6.747  67.534  1.00  0.00    -0.110 A  
HETATM    9  C   UNL     1      -7.979   3.282  66.574  1.00  0.00    -0.081 C  
HETATM   10  C   UNL     1      -7.101   7.970  67.558  1.00  0.00    -0.080 A  
HETATM   11  C   UNL     1      -8.006   2.891  64.196  1.00  0.00    -0.082 C  
HETATM   12  C   UNL     1      -8.962   7.443  65.564  1.00  0.00     0.075 A  
HETATM   13  C   UNL     1      -7.083   2.896  65.402  1.00  0.00    -0.058 C  
HETATM   14  C   UNL     1      -7.354   8.929  66.586  1.00  0.00    -0.085 A  
HETATM   15  C   UNL     1      -8.261   8.655  65.568  1.00  0.00    -0.135 A  
ENDROOT
BRANCH   4  16
HETATM   16  C   UNL     1     -10.675   6.039  68.987  1.00  0.00    -0.324 C  
BRANCH  16  17
HETATM   17  N   UNL     1     -10.872   5.683  70.410  1.00  0.00    -0.285 NA 
HETATM   18  C   UNL     1      -9.652   5.259  71.115  1.00  0.00    -0.163 C  
HETATM   19  C   UNL     1      -9.234   7.584  71.999  1.00  0.00    -0.163 C  
HETATM   20  C   UNL     1      -8.621   6.373  71.302  1.00  0.00    -0.127 C  
HETATM   21  C   UNL     1     -10.553   8.000  71.353  1.00  0.00    -0.258 C  
HETATM   22  C   UNL     1     -11.490   6.804  71.146  1.00  0.00    -0.314 C  
ENDBRANCH  16  17
ENDBRANCH   4  16
TORSDOF 2
ENDMDL
MODEL      153
REMARK 921   NORMALIZED FREE ENERGY PREDICTED BY IDOCK:   -3.14 KCAL/MOL
REMARK 922        TOTAL FREE ENERGY PREDICTED BY IDOCK:   -4.20 KCAL/MOL
REMARK 923 INTER-LIGAND FREE ENERGY PREDICTED BY IDOCK:   -3.72 KCAL/MOL
REMARK 924 INTRA-LIGAND FREE ENERGY PREDICTED BY IDOCK:   -0.48 KCAL/MOL
REMARK 927      BINDING AFFINITY PREDICTED BY RF-SCORE:    0.00 PKD
ROOT
HETATM    1  O   UNL     1     -10.185  13.285  69.133  1.00  0.00    -0.430 OA 
HETATM    2  C   UNL     1      -9.500  13.624  67.910  1.00  0.00    -0.213 C  
HETATM    3  H   UNL     1      -9.912  13.923  69.782  1.00  0.00     0.000 HD 
HETATM    4  C   UNL     1      -9.948  12.576  66.844  1.00  0.00    -0.229 C  
HETATM    5  C   UNL     1     -10.030  15.022  67.469  1.00  0.00    -0.226 C  
HETATM    6  C   UNL     1      -7.993  13.564  68.216  1.00  0.00    -0.147 A  
HETATM    7  C   UNL     1      -9.811  16.192  68.440  1.00  0.00    -0.222 C  
HETATM    8  C   UNL     1      -7.041  13.238  67.234  1.00  0.00    -0.016 A  
HETATM    9  C   UNL     1      -9.566  15.537  66.094  1.00  0.00    -0.362 C  
HETATM   10  C   UNL     1      -5.712  12.956  67.574  1.00  0.00    -0.100 A  
HETATM   11  C   UNL     1      -9.954  17.418  67.549  1.00  0.00    -0.298 C  
HETATM   12  C   UNL     1      -7.523  13.723  69.534  1.00  0.00     0.339 A  
HETATM   13  C   UNL     1      -9.219  17.009  66.285  1.00  0.00    -0.278 C  
HETATM   14  C   UNL     1      -5.292  13.054  68.894  1.00  0.00    -0.071 A  
HETATM   15  C   UNL     1      -6.188  13.469  69.872  1.00  0.00    -0.108 A  
ENDROOT
BRANCH   4  16
HETATM   16  C   UNL     1      -9.584  11.117  67.171  1.00  0.00    -0.173 C  
BRANCH  16  17
HETATM   17  N   UNL     1     -10.110  10.150  66.182  1.00  0.00    -0.249 NA 
HETATM   18  C   UNL     1      -9.478  10.218  64.854  1.00  0.00    -0.279 C  
HETATM   19  C   UNL     1      -7.844   8.384  65.428  1.00  0.00    -0.108 C  
HETATM   20  C   UNL     1      -8.012   9.781  64.840  1.00  0.00    -0.133 C  
HETATM   21  C   UNL     1      -8.567   8.244  66.766  1.00  0.00    -0.131 C  
HETATM   22  C   UNL     1     -10.005   8.770  66.695  1.00  0.00    -0.285 C  
ENDBRANCH  16  17
ENDBRANCH   4  16
TORSDOF 2
ENDMDL
MODEL      154
REMARK 921   NORMALIZED FREE ENERGY PREDICTED BY IDOCK:   -3.11 KCAL/MOL
REMARK 922        TOTAL FREE ENERGY PREDICTED BY IDOCK:   -4.16 KCAL/MOL
REMARK 923 INTER-LIGAND FREE ENERGY PREDICTED BY IDOCK:   -4.30 KCAL/MOL
REMARK 924 INTRA-LIGAND FREE ENERGY PREDICTED BY IDOCK:    0.13 KCAL/MOL
REMARK 927      BINDING AFFINITY PREDICTED BY RF-SCORE:    0.00 PKD
ROOT
HETATM    1  O   UNL     1      -8.622  13.063  67.285  1.00  0.00    -0.190 OA 
HETATM    2  C   UNL     1      -9.786  12.214  67.238  1.00  0.00    -0.196 C  
HETATM    3  H   UNL     1      -8.933  13.938  67.487  1.00  0.00     0.000 HD 
HETATM    4  C   UNL     1      -9.275  10.777  66.905  1.00  0.00    -0.172 C  
HETATM    5  C   UNL     1     -10.388  12.193  68.676  1.00  0.00    -0.211 C  
HETATM    6  C   UNL     1     -10.711  12.789  66.152  1.00  0.00    -0.297 A  
HETATM    7  C   UNL     1     -10.843  13.537  69.263  1.00  0.00    -0.107 C  
HETATM    8  C   UNL     1     -11.587  11.981  65.406  1.00  0.00    -0.343 A  
HETATM    9  C   UNL     1     -11.555  11.219  68.925  1.00  0.00    -0.386 C  
HETATM   10  C   UNL     1     -12.244  12.471  64.270  1.00  0.00    -0.535 A  
HETATM   11  C   UNL     1     -11.798  13.127  70.377  1.00  0.00    -0.259 C  
HETATM   12  C   UNL     1     -10.625  14.146  65.784  1.00  0.00    -0.306 A  
HETATM   13  C   UNL     1     -12.581  11.986  69.751  1.00  0.00     0.193 C  
HETATM   14  C   UNL     1     -12.085  13.798  63.891  1.00  0.00    -0.423 A  
HETATM   15  C   UNL     1     -11.302  14.647  64.665  1.00  0.00    -0.372 A  
ENDROOT
BRANCH   4  16
HETATM   16  C   UNL     1      -8.563  10.637  65.548  1.00  0.00    -0.185 C  
BRANCH  16  17
HETATM   17  N   UNL     1      -7.396   9.727  65.593  1.00  0.00    -0.101 NA 
HETATM   18  C   UNL     1      -6.112  10.352  65.238  1.00  0.00    -0.130 C  
HETATM   19  C   UNL     1      -5.551  10.809  67.654  1.00  0.00    -0.043 C  
HETATM   20  C   UNL     1      -5.626  11.394  66.247  1.00  0.00    -0.082 C  
HETATM   21  C   UNL     1      -6.834  10.069  68.027  1.00  0.00    -0.068 C  
HETATM   22  C   UNL     1      -7.275   9.100  66.923  1.00  0.00    -0.086 C  
ENDBRANCH  16  17
ENDBRANCH   4  16
TORSDOF 2
ENDMDL
MODEL      155
REMARK 921   NORMALIZED FREE ENERGY PREDICTED BY IDOCK:   -3.11 KCAL/MOL
REMARK 922        TOTAL FREE ENERGY PREDICTED BY IDOCK:   -4.16 KCAL/MOL
REMARK 923 INTER-LIGAND FREE ENERGY PREDICTED BY IDOCK:   -3.76 KCAL/MOL
REMARK 924 INTRA-LIGAND FREE ENERGY PREDICTED BY IDOCK:   -0.40 KCAL/MOL
REMARK 927      BINDING AFFINITY PREDICTED BY RF-SCORE:    0.00 PKD
ROOT
HETATM    1  O   UNL     1     -10.346   6.897  69.069  1.00  0.00    -0.177 OA 
HETATM    2  C   UNL     1     -10.366   8.020  69.973  1.00  0.00    -0.218 C  
HETATM    3  H   UNL     1     -10.557   6.129  69.587  1.00  0.00     0.000 HD 
HETATM    4  C   UNL     1     -10.019   9.281  69.122  1.00  0.00    -0.181 C  
HETATM    5  C   UNL     1     -11.833   8.165  70.480  1.00  0.00    -0.010 C  
HETATM    6  C   UNL     1      -9.324   7.727  71.066  1.00  0.00    -0.160 A  
HETATM    7  C   UNL     1     -12.432   6.974  71.240  1.00  0.00    -0.430 C  
HETATM    8  C   UNL     1      -8.631   8.751  71.736  1.00  0.00    -0.198 A  
HETATM    9  C   UNL     1     -12.150   9.403  71.340  1.00  0.00    -0.442 C  
HETATM   10  C   UNL     1      -7.526   8.471  72.551  1.00  0.00    -0.078 A  
HETATM   11  C   UNL     1     -13.596   7.593  72.002  1.00  0.00    -0.232 C  
HETATM   12  C   UNL     1      -8.941   6.403  71.354  1.00  0.00    -0.138 A  
HETATM   13  C   UNL     1     -13.020   8.911  72.490  1.00  0.00    -0.415 C  
HETATM   14  C   UNL     1      -7.128   7.158  72.761  1.00  0.00    -0.069 A  
HETATM   15  C   UNL     1      -7.854   6.119  72.190  1.00  0.00    -0.101 A  
ENDROOT
BRANCH   4  16
HETATM   16  C   UNL     1      -8.628   9.261  68.463  1.00  0.00    -0.128 C  
BRANCH  16  17
HETATM   17  N   UNL     1      -8.593   9.950  67.154  1.00  0.00    -0.125 NA 
HETATM   18  C   UNL     1      -9.273  11.255  67.124  1.00  0.00    -0.163 C  
HETATM   19  C   UNL     1      -7.124  12.498  67.569  1.00  0.00    -0.151 C  
HETATM   20  C   UNL     1      -8.588  12.334  67.964  1.00  0.00    -0.176 C  
HETATM   21  C   UNL     1      -6.404  11.153  67.497  1.00  0.00    -0.065 C  
HETATM   22  C   UNL     1      -7.202  10.121  66.691  1.00  0.00    -0.105 C  
ENDBRANCH  16  17
ENDBRANCH   4  16
TORSDOF 2
ENDMDL
MODEL      156
REMARK 921   NORMALIZED FREE ENERGY PREDICTED BY IDOCK:   -2.96 KCAL/MOL
REMARK 922        TOTAL FREE ENERGY PREDICTED BY IDOCK:   -4.00 KCAL/MOL
REMARK 923 INTER-LIGAND FREE ENERGY PREDICTED BY IDOCK:   -3.60 KCAL/MOL
REMARK 924 INTRA-LIGAND FREE ENERGY PREDICTED BY IDOCK:   -0.40 KCAL/MOL
REMARK 927      BINDING AFFINITY PREDICTED BY RF-SCORE:    0.00 PKD
ROOT
HETATM    1  O   UNL     1      -7.174   8.958  66.893  1.00  0.00    -0.081 OA 
HETATM    2  C   UNL     1      -8.430   8.824  67.587  1.00  0.00    -0.125 C  
HETATM    3  H   UNL     1      -6.727   8.123  66.978  1.00  0.00     0.000 HD 
HETATM    4  C   UNL     1      -9.163  10.195  67.449  1.00  0.00    -0.156 C  
HETATM    5  C   UNL     1      -9.259   7.751  66.817  1.00  0.00    -0.202 C  
HETATM    6  C   UNL     1      -8.096   8.466  69.045  1.00  0.00    -0.116 A  
HETATM    7  C   UNL     1      -8.656   6.343  66.714  1.00  0.00    -0.113 C  
HETATM    8  C   UNL     1      -8.929   8.831  70.118  1.00  0.00    -0.173 A  
HETATM    9  C   UNL     1     -10.716   7.543  67.270  1.00  0.00    -0.365 C  
HETATM   10  C   UNL     1      -8.501   8.710  71.446  1.00  0.00    -0.240 A  
HETATM   11  C   UNL     1      -9.861   5.468  66.391  1.00  0.00    -0.192 C  
HETATM   12  C   UNL     1      -6.869   7.854  69.369  1.00  0.00    -0.047 A  
HETATM   13  C   UNL     1     -10.944   6.036  67.291  1.00  0.00    -0.356 C  
HETATM   14  C   UNL     1      -7.256   8.166  71.733  1.00  0.00    -0.089 A  
HETATM   15  C   UNL     1      -6.451   7.706  70.697  1.00  0.00    -0.038 A  
ENDROOT
BRANCH   4  16
HETATM   16  C   UNL     1      -8.430  11.392  68.078  1.00  0.00    -0.145 C  
BRANCH  16  17
HETATM   17  N   UNL     1      -8.170  12.487  67.117  1.00  0.00    -0.183 NA 
HETATM   18  C   UNL     1      -9.293  12.802  66.220  1.00  0.00    -0.152 C  
HETATM   19  C   UNL     1     -10.116  14.644  67.733  1.00  0.00    -0.228 C  
HETATM   20  C   UNL     1     -10.505  13.408  66.929  1.00  0.00    -0.273 C  
HETATM   21  C   UNL     1      -8.892  14.385  68.610  1.00  0.00    -0.167 C  
HETATM   22  C   UNL     1      -7.759  13.716  67.824  1.00  0.00    -0.164 C  
ENDBRANCH  16  17
ENDBRANCH   4  16
TORSDOF 2
ENDMDL
MODEL      157
REMARK 921   NORMALIZED FREE ENERGY PREDICTED BY IDOCK:   -2.91 KCAL/MOL
REMARK 922        TOTAL FREE ENERGY PREDICTED BY IDOCK:   -3.94 KCAL/MOL
REMARK 923 INTER-LIGAND FREE ENERGY PREDICTED BY IDOCK:   -3.34 KCAL/MOL
REMARK 924 INTRA-LIGAND FREE ENERGY PREDICTED BY IDOCK:   -0.60 KCAL/MOL
REMARK 927      BINDING AFFINITY PREDICTED BY RF-SCORE:    0.00 PKD
ROOT
HETATM    1  O   UNL     1      -7.372  10.077  67.847  1.00  0.00    -0.086 OA 
HETATM    2  C   UNL     1      -8.051   8.808  67.933  1.00  0.00    -0.107 C  
HETATM    3  H   UNL     1      -6.563   9.985  68.336  1.00  0.00     0.000 HD 
HETATM    4  C   UNL     1      -9.381   8.960  67.130  1.00  0.00    -0.182 C  
HETATM    5  C   UNL     1      -7.156   7.767  67.197  1.00  0.00    -0.085 C  
HETATM    6  C   UNL     1      -8.281   8.530  69.429  1.00  0.00    -0.114 A  
HETATM    7  C   UNL     1      -5.739   7.550  67.746  1.00  0.00    -0.035 C  
HETATM    8  C   UNL     1      -9.371   7.772  69.892  1.00  0.00    -0.157 A  
HETATM    9  C   UNL     1      -7.744   6.356  67.008  1.00  0.00    -0.100 C  
HETATM   10  C   UNL     1      -9.701   7.725  71.252  1.00  0.00    -0.179 A  
HETATM   11  C   UNL     1      -5.346   6.192  67.177  1.00  0.00    -0.005 C  
HETATM   12  C   UNL     1      -7.460   9.130  70.403  1.00  0.00    -0.107 A  
HETATM   13  C   UNL     1      -6.620   5.379  67.329  1.00  0.00    -0.053 C  
HETATM   14  C   UNL     1      -8.912   8.385  72.185  1.00  0.00    -0.293 A  
HETATM   15  C   UNL     1      -7.771   9.062  71.767  1.00  0.00     0.083 A  
ENDROOT
BRANCH   4  16
HETATM   16  C   UNL     1     -10.351  10.025  67.671  1.00  0.00    -0.224 C  
BRANCH  16  17
HETATM   17  N   UNL     1      -9.763  11.383  67.711  1.00  0.00    -0.172 NA 
HETATM   18  C   UNL     1      -9.790  12.107  66.430  1.00  0.00    -0.227 C  
HETATM   19  C   UNL     1     -11.944  13.278  67.023  1.00  0.00    -0.419 C  
HETATM   20  C   UNL     1     -11.195  12.483  65.957  1.00  0.00    -0.354 C  
HETATM   21  C   UNL     1     -11.860  12.606  68.391  1.00  0.00    -0.347 C  
HETATM   22  C   UNL     1     -10.423  12.206  68.744  1.00  0.00    -0.176 C  
ENDBRANCH  16  17
ENDBRANCH   4  16
TORSDOF 2
ENDMDL
MODEL      158
REMARK 921   NORMALIZED FREE ENERGY PREDICTED BY IDOCK:   -2.90 KCAL/MOL
REMARK 922        TOTAL FREE ENERGY PREDICTED BY IDOCK:   -3.93 KCAL/MOL
REMARK 923 INTER-LIGAND FREE ENERGY PREDICTED BY IDOCK:   -3.76 KCAL/MOL
REMARK 924 INTRA-LIGAND FREE ENERGY PREDICTED BY IDOCK:   -0.17 KCAL/MOL
REMARK 927      BINDING AFFINITY PREDICTED BY RF-SCORE:    0.00 PKD
ROOT
HETATM    1  O   UNL     1     -10.208   8.131  66.533  1.00  0.00    -0.401 OA 
HETATM    2  C   UNL     1      -9.899   9.095  67.560  1.00  0.00    -0.177 C  
HETATM    3  H   UNL     1     -10.011   7.276  66.897  1.00  0.00     0.000 HD 
HETATM    4  C   UNL     1     -10.221  10.500  66.962  1.00  0.00    -0.275 C  
HETATM    5  C   UNL     1     -10.885   8.832  68.738  1.00  0.00    -0.026 C  
HETATM    6  C   UNL     1      -8.410   8.916  67.902  1.00  0.00    -0.118 A  
HETATM    7  C   UNL     1     -10.831   7.447  69.399  1.00  0.00    -0.184 C  
HETATM    8  C   UNL     1      -7.612   9.979  68.361  1.00  0.00    -0.083 A  
HETATM    9  C   UNL     1     -10.864   9.843  69.900  1.00  0.00    -0.316 C  
HETATM   10  C   UNL     1      -6.218   9.862  68.441  1.00  0.00    -0.050 A  
HETATM   11  C   UNL     1     -11.491   7.678  70.752  1.00  0.00    -0.295 C  
HETATM   12  C   UNL     1      -7.761   7.691  67.655  1.00  0.00    -0.122 A  
HETATM   13  C   UNL     1     -10.926   9.021  71.181  1.00  0.00    -0.371 C  
HETATM   14  C   UNL     1      -5.599   8.660  68.123  1.00  0.00    -0.035 A  
HETATM   15  C   UNL     1      -6.371   7.562  67.761  1.00  0.00    -0.053 A  
ENDROOT
BRANCH   4  16
HETATM   16  C   UNL     1      -9.396  10.886  65.722  1.00  0.00    -0.203 C  
BRANCH  16  17
HETATM   17  N   UNL     1      -9.674  10.030  64.547  1.00  0.00    -0.295 NA 
HETATM   18  C   UNL     1      -9.839  10.757  63.277  1.00  0.00    -0.346 C  
HETATM   19  C   UNL     1      -7.419  10.421  62.654  1.00  0.00    -0.144 C  
HETATM   20  C   UNL     1      -8.560  11.426  62.772  1.00  0.00    -0.010 C  
HETATM   21  C   UNL     1      -7.274   9.580  63.920  1.00  0.00    -0.111 C  
HETATM   22  C   UNL     1      -8.619   9.010  64.384  1.00  0.00    -0.150 C  
ENDBRANCH  16  17
ENDBRANCH   4  16
TORSDOF 2
ENDMDL
MODEL      159
REMARK 921   NORMALIZED FREE ENERGY PREDICTED BY IDOCK:   -2.89 KCAL/MOL
REMARK 922        TOTAL FREE ENERGY PREDICTED BY IDOCK:   -3.92 KCAL/MOL
REMARK 923 INTER-LIGAND FREE ENERGY PREDICTED BY IDOCK:   -3.37 KCAL/MOL
REMARK 924 INTRA-LIGAND FREE ENERGY PREDICTED BY IDOCK:   -0.55 KCAL/MOL
REMARK 927      BINDING AFFINITY PREDICTED BY RF-SCORE:    0.00 PKD
ROOT
HETATM    1  O   UNL     1     -10.526  14.371  68.445  1.00  0.00    -0.233 OA 
HETATM    2  C   UNL     1     -10.078  14.620  67.097  1.00  0.00    -0.244 C  
HETATM    3  H   UNL     1     -11.410  14.715  68.504  1.00  0.00     0.000 HD 
HETATM    4  C   UNL     1      -8.626  14.056  67.000  1.00  0.00    -0.193 C  
HETATM    5  C   UNL     1     -10.990  13.776  66.156  1.00  0.00    -0.292 C  
HETATM    6  C   UNL     1     -10.148  16.141  66.881  1.00  0.00    -0.273 A  
HETATM    7  C   UNL     1     -12.495  14.076  66.186  1.00  0.00    -0.467 C  
HETATM    8  C   UNL     1      -9.283  16.814  66.000  1.00  0.00    -0.236 A  
HETATM    9  C   UNL     1     -10.606  13.743  64.664  1.00  0.00    -0.443 C  
HETATM   10  C   UNL     1      -9.197  18.212  65.989  1.00  0.00    -0.007 A  
HETATM   11  C   UNL     1     -12.994  13.497  64.868  1.00  0.00    -0.151 C  
HETATM   12  C   UNL     1     -11.016  16.935  67.655  1.00  0.00    -0.165 A  
HETATM   13  C   UNL     1     -11.908  13.898  63.886  1.00  0.00    -0.315 C  
HETATM   14  C   UNL     1     -10.018  18.969  66.815  1.00  0.00    -0.417 A  
HETATM   15  C   UNL     1     -10.952  18.334  67.626  1.00  0.00    -0.134 A  
ENDROOT
BRANCH   4  16
HETATM   16  C   UNL     1      -7.605  14.720  67.941  1.00  0.00    -0.139 C  
BRANCH  16  17
HETATM   17  N   UNL     1      -7.641  14.177  69.318  1.00  0.00    -0.010 NA 
HETATM   18  C   UNL     1      -7.825  12.719  69.402  1.00  0.00     0.747 C  
HETATM   19  C   UNL     1      -5.341  12.313  69.560  1.00  0.00    -0.071 C  
HETATM   20  C   UNL     1      -6.641  11.910  68.871  1.00  0.00    -0.087 C  
HETATM   21  C   UNL     1      -5.158  13.829  69.577  1.00  0.00    -0.083 C  
HETATM   22  C   UNL     1      -6.421  14.551  70.058  1.00  0.00    -0.160 C  
ENDBRANCH  16  17
ENDBRANCH   4  16
TORSDOF 2
ENDMDL
MODEL      160
REMARK 921   NORMALIZED FREE ENERGY PREDICTED BY IDOCK:   -2.87 KCAL/MOL
REMARK 922        TOTAL FREE ENERGY PREDICTED BY IDOCK:   -3.89 KCAL/MOL
REMARK 923 INTER-LIGAND FREE ENERGY PREDICTED BY IDOCK:   -3.33 KCAL/MOL
REMARK 924 INTRA-LIGAND FREE ENERGY PREDICTED BY IDOCK:   -0.56 KCAL/MOL
REMARK 927      BINDING AFFINITY PREDICTED BY RF-SCORE:    0.00 PKD
ROOT
HETATM    1  O   UNL     1     -10.383   9.056  70.577  1.00  0.00    -0.193 OA 
HETATM    2  C   UNL     1      -9.764   8.496  69.402  1.00  0.00    -0.177 C  
HETATM    3  H   UNL     1     -10.172   9.982  70.579  1.00  0.00     0.000 HD 
HETATM    4  C   UNL     1     -10.110   6.974  69.400  1.00  0.00    -0.175 C  
HETATM    5  C   UNL     1     -10.456   9.153  68.170  1.00  0.00    -0.260 C  
HETATM    6  C   UNL     1      -8.254   8.768  69.525  1.00  0.00    -0.111 A  
HETATM    7  C   UNL     1     -10.353  10.679  68.041  1.00  0.00    -0.208 C  
HETATM    8  C   UNL     1      -7.290   7.917  68.957  1.00  0.00    -0.088 A  
HETATM    9  C   UNL     1     -10.080   8.597  66.784  1.00  0.00    -0.366 C  
HETATM   10  C   UNL     1      -5.931   8.042  69.273  1.00  0.00    -0.034 A  
HETATM   11  C   UNL     1     -10.651  10.928  66.568  1.00  0.00    -0.295 C  
HETATM   12  C   UNL     1      -7.781   9.830  70.319  1.00  0.00    -0.187 A  
HETATM   13  C   UNL     1      -9.897   9.806  65.875  1.00  0.00    -0.352 C  
HETATM   14  C   UNL     1      -5.501   9.059  70.115  1.00  0.00    -0.027 A  
HETATM   15  C   UNL     1      -6.420   9.975  70.614  1.00  0.00    -0.098 A  
ENDROOT
BRANCH   4  16
HETATM   16  C   UNL     1      -9.578   6.182  70.607  1.00  0.00    -0.173 C  
BRANCH  16  17
HETATM   17  N   UNL     1      -9.277   4.768  70.290  1.00  0.00    -0.124 NA 
HETATM   18  C   UNL     1      -7.844   4.451  70.180  1.00  0.00    -0.056 C  
HETATM   19  C   UNL     1      -7.724   3.692  72.582  1.00  0.00    -0.061 C  
HETATM   20  C   UNL     1      -7.080   4.554  71.500  1.00  0.00    -0.050 C  
HETATM   21  C   UNL     1      -9.231   3.924  72.665  1.00  0.00    -0.140 C  
HETATM   22  C   UNL     1      -9.894   3.868  71.284  1.00  0.00    -0.157 C  
ENDBRANCH  16  17
ENDBRANCH   4  16
TORSDOF 2
ENDMDL
MODEL      161
REMARK 921   NORMALIZED FREE ENERGY PREDICTED BY IDOCK:   -2.80 KCAL/MOL
REMARK 922        TOTAL FREE ENERGY PREDICTED BY IDOCK:   -3.82 KCAL/MOL
REMARK 923 INTER-LIGAND FREE ENERGY PREDICTED BY IDOCK:   -4.04 KCAL/MOL
REMARK 924 INTRA-LIGAND FREE ENERGY PREDICTED BY IDOCK:    0.22 KCAL/MOL
REMARK 927      BINDING AFFINITY PREDICTED BY RF-SCORE:    0.00 PKD
ROOT
HETATM    1  O   UNL     1      -9.839  16.656  69.039  1.00  0.00    -0.256 OA 
HETATM    2  C   UNL     1      -9.048  15.865  68.130  1.00  0.00    -0.182 C  
HETATM    3  H   UNL     1     -10.452  17.149  68.506  1.00  0.00     0.000 HD 
HETATM    4  C   UNL     1      -8.041  15.056  69.005  1.00  0.00    -0.178 C  
HETATM    5  C   UNL     1     -10.021  14.855  67.449  1.00  0.00    -0.223 C  
HETATM    6  C   UNL     1      -8.356  16.851  67.172  1.00  0.00    -0.217 A  
HETATM    7  C   UNL     1     -11.181  15.441  66.633  1.00  0.00    -0.175 C  
HETATM    8  C   UNL     1      -7.111  16.573  66.581  1.00  0.00    -0.220 A  
HETATM    9  C   UNL     1      -9.384  13.781  66.546  1.00  0.00    -0.249 C  
HETATM   10  C   UNL     1      -6.386  17.565  65.908  1.00  0.00    -0.145 A  
HETATM   11  C   UNL     1     -11.595  14.286  65.731  1.00  0.00    -0.346 C  
HETATM   12  C   UNL     1      -8.900  18.129  66.944  1.00  0.00    -0.273 A  
HETATM   13  C   UNL     1     -10.264  13.693  65.304  1.00  0.00    -0.341 C  
HETATM   14  C   UNL     1      -6.919  18.839  65.759  1.00  0.00    -0.291 A  
HETATM   15  C   UNL     1      -8.191  19.115  66.247  1.00  0.00    -0.309 A  
ENDROOT
BRANCH   4  16
HETATM   16  C   UNL     1      -7.059  15.909  69.826  1.00  0.00    -0.038 C  
BRANCH  16  17
HETATM   17  N   UNL     1      -5.671  15.394  69.794  1.00  0.00    -0.119 NA 
HETATM   18  C   UNL     1      -5.134  14.983  71.101  1.00  0.00    -0.144 C  
HETATM   19  C   UNL     1      -5.785  12.576  70.724  1.00  0.00    -0.103 C  
HETATM   20  C   UNL     1      -5.819  13.751  71.695  1.00  0.00    -0.046 C  
HETATM   21  C   UNL     1      -6.248  12.985  69.327  1.00  0.00    -0.103 C  
HETATM   22  C   UNL     1      -5.555  14.266  68.849  1.00  0.00    -0.083 C  
ENDBRANCH  16  17
ENDBRANCH   4  16
TORSDOF 2
ENDMDL
MODEL      162
REMARK 921   NORMALIZED FREE ENERGY PREDICTED BY IDOCK:   -2.79 KCAL/MOL
REMARK 922        TOTAL FREE ENERGY PREDICTED BY IDOCK:   -3.80 KCAL/MOL
REMARK 923 INTER-LIGAND FREE ENERGY PREDICTED BY IDOCK:   -3.27 KCAL/MOL
REMARK 924 INTRA-LIGAND FREE ENERGY PREDICTED BY IDOCK:   -0.53 KCAL/MOL
REMARK 927      BINDING AFFINITY PREDICTED BY RF-SCORE:    0.00 PKD
ROOT
HETATM    1  O   UNL     1      -6.327  11.877  66.465  1.00  0.00    -0.368 OA 
HETATM    2  C   UNL     1      -7.503  11.049  66.553  1.00  0.00    -0.145 C  
HETATM    3  H   UNL     1      -5.583  11.309  66.629  1.00  0.00     0.000 HD 
HETATM    4  C   UNL     1      -8.725  11.982  66.284  1.00  0.00    -0.027 C  
HETATM    5  C   UNL     1      -7.416  10.016  65.389  1.00  0.00    -0.139 C  
HETATM    6  C   UNL     1      -7.512  10.440  67.966  1.00  0.00    -0.090 A  
HETATM    7  C   UNL     1      -6.208   9.069  65.382  1.00  0.00    -0.063 C  
HETATM    8  C   UNL     1      -8.704  10.102  68.630  1.00  0.00    -0.128 A  
HETATM    9  C   UNL     1      -8.646   9.114  65.169  1.00  0.00    -0.200 C  
HETATM   10  C   UNL     1      -8.712   9.775  69.992  1.00  0.00    -0.237 A  
HETATM   11  C   UNL     1      -6.664   7.924  64.489  1.00  0.00    -0.056 C  
HETATM   12  C   UNL     1      -6.315  10.308  68.696  1.00  0.00    -0.051 A  
HETATM   13  C   UNL     1      -8.106   7.712  64.917  1.00  0.00    -0.128 C  
HETATM   14  C   UNL     1      -7.521   9.720  70.705  1.00  0.00    -0.050 A  
HETATM   15  C   UNL     1      -6.317   9.954  70.051  1.00  0.00    -0.071 A  
ENDROOT
BRANCH   4  16
HETATM   16  C   UNL     1      -8.906  13.127  67.296  1.00  0.00    -0.208 C  
BRANCH  16  17
HETATM   17  N   UNL     1     -10.239  13.766  67.221  1.00  0.00    -0.251 NA 
HETATM   18  C   UNL     1     -11.254  12.995  66.485  1.00  0.00    -0.302 C  
HETATM   19  C   UNL     1     -12.137  11.947  68.602  1.00  0.00    -0.155 C  
HETATM   20  C   UNL     1     -11.666  11.693  67.173  1.00  0.00    -0.215 C  
HETATM   21  C   UNL     1     -11.154  12.825  69.373  1.00  0.00    -0.129 C  
HETATM   22  C   UNL     1     -10.749  14.068  68.573  1.00  0.00    -0.256 C  
ENDBRANCH  16  17
ENDBRANCH   4  16
TORSDOF 2
ENDMDL
MODEL      163
REMARK 921   NORMALIZED FREE ENERGY PREDICTED BY IDOCK:   -2.73 KCAL/MOL
REMARK 922        TOTAL FREE ENERGY PREDICTED BY IDOCK:   -3.74 KCAL/MOL
REMARK 923 INTER-LIGAND FREE ENERGY PREDICTED BY IDOCK:   -3.18 KCAL/MOL
REMARK 924 INTRA-LIGAND FREE ENERGY PREDICTED BY IDOCK:   -0.56 KCAL/MOL
REMARK 927      BINDING AFFINITY PREDICTED BY RF-SCORE:    0.00 PKD
ROOT
HETATM    1  O   UNL     1     -10.602   9.760  67.714  1.00  0.00    -0.233 OA 
HETATM    2  C   UNL     1      -9.262   9.240  67.599  1.00  0.00    -0.124 C  
HETATM    3  H   UNL     1     -10.559  10.487  68.325  1.00  0.00     0.000 HD 
HETATM    4  C   UNL     1      -9.333   8.048  66.595  1.00  0.00    -0.249 C  
HETATM    5  C   UNL     1      -8.395  10.365  66.956  1.00  0.00    -0.127 C  
HETATM    6  C   UNL     1      -8.831   8.812  69.012  1.00  0.00    -0.137 A  
HETATM    7  C   UNL     1      -8.292  11.693  67.720  1.00  0.00    -0.143 C  
HETATM    8  C   UNL     1      -7.918   7.766  69.233  1.00  0.00    -0.125 A  
HETATM    9  C   UNL     1      -6.949   9.995  66.577  1.00  0.00    -0.095 C  
HETATM   10  C   UNL     1      -7.717   7.232  70.513  1.00  0.00    -0.093 A  
HETATM   11  C   UNL     1      -7.041  12.337  67.137  1.00  0.00    -0.102 C  
HETATM   12  C   UNL     1      -9.433   9.385  70.149  1.00  0.00    -0.276 A  
HETATM   13  C   UNL     1      -6.080  11.168  67.017  1.00  0.00    -0.092 C  
HETATM   14  C   UNL     1      -8.378   7.774  71.607  1.00  0.00    -0.125 A  
HETATM   15  C   UNL     1      -9.212   8.872  71.433  1.00  0.00    -0.328 A  
ENDROOT
BRANCH   4  16
HETATM   16  C   UNL     1     -10.231   6.878  67.035  1.00  0.00    -0.248 C  
BRANCH  16  17
HETATM   17  N   UNL     1      -9.964   5.627  66.290  1.00  0.00    -0.144 NA 
HETATM   18  C   UNL     1      -8.662   5.581  65.605  1.00  0.00    -0.153 C  
HETATM   19  C   UNL     1      -7.573   4.384  67.539  1.00  0.00    -0.077 C  
HETATM   20  C   UNL     1      -7.462   5.541  66.551  1.00  0.00    -0.087 C  
HETATM   21  C   UNL     1      -8.946   4.341  68.205  1.00  0.00    -0.151 C  
HETATM   22  C   UNL     1     -10.081   4.455  67.181  1.00  0.00    -0.072 C  
ENDBRANCH  16  17
ENDBRANCH   4  16
TORSDOF 2
ENDMDL
MODEL      164
REMARK 921   NORMALIZED FREE ENERGY PREDICTED BY IDOCK:   -2.71 KCAL/MOL
REMARK 922        TOTAL FREE ENERGY PREDICTED BY IDOCK:   -3.72 KCAL/MOL
REMARK 923 INTER-LIGAND FREE ENERGY PREDICTED BY IDOCK:   -3.70 KCAL/MOL
REMARK 924 INTRA-LIGAND FREE ENERGY PREDICTED BY IDOCK:   -0.02 KCAL/MOL
REMARK 927      BINDING AFFINITY PREDICTED BY RF-SCORE:    0.00 PKD
ROOT
HETATM    1  O   UNL     1      -8.464  10.495  69.879  1.00  0.00    -0.380 OA 
HETATM    2  C   UNL     1      -8.972  10.201  68.563  1.00  0.00    -0.127 C  
HETATM    3  H   UNL     1      -8.224  11.415  69.878  1.00  0.00     0.000 HD 
HETATM    4  C   UNL     1      -9.364   8.690  68.565  1.00  0.00    -0.138 C  
HETATM    5  C   UNL     1     -10.273  11.040  68.384  1.00  0.00    -0.198 C  
HETATM    6  C   UNL     1      -7.843  10.527  67.569  1.00  0.00    -0.106 A  
HETATM    7  C   UNL     1     -10.140  12.566  68.477  1.00  0.00    -0.186 C  
HETATM    8  C   UNL     1      -7.705   9.852  66.344  1.00  0.00    -0.104 A  
HETATM    9  C   UNL     1     -11.099  10.776  67.110  1.00  0.00    -0.297 C  
HETATM   10  C   UNL     1      -6.550   9.989  65.563  1.00  0.00    -0.100 A  
HETATM   11  C   UNL     1     -11.397  13.071  67.780  1.00  0.00    -0.333 C  
HETATM   12  C   UNL     1      -6.832  11.445  67.911  1.00  0.00    -0.072 A  
HETATM   13  C   UNL     1     -11.520  12.143  66.584  1.00  0.00    -0.426 C  
HETATM   14  C   UNL     1      -5.536  10.850  65.961  1.00  0.00    -0.139 A  
HETATM   15  C   UNL     1      -5.688  11.605  67.119  1.00  0.00    -0.120 A  
ENDROOT
BRANCH   4  16
HETATM   16  C   UNL     1      -8.203   7.715  68.825  1.00  0.00    -0.128 C  
BRANCH  16  17
HETATM   17  N   UNL     1      -8.628   6.470  69.502  1.00  0.00    -0.134 NA 
HETATM   18  C   UNL     1      -7.780   6.062  70.635  1.00  0.00    -0.101 C  
HETATM   19  C   UNL     1      -9.286   7.204  72.304  1.00  0.00    -0.149 C  
HETATM   20  C   UNL     1      -7.848   7.006  71.835  1.00  0.00    -0.094 C  
HETATM   21  C   UNL     1     -10.218   7.538  71.141  1.00  0.00    -0.199 C  
HETATM   22  C   UNL     1     -10.026   6.577  69.962  1.00  0.00    -0.169 C  
ENDBRANCH  16  17
ENDBRANCH   4  16
TORSDOF 2
ENDMDL
MODEL      165
REMARK 921   NORMALIZED FREE ENERGY PREDICTED BY IDOCK:   -2.52 KCAL/MOL
REMARK 922        TOTAL FREE ENERGY PREDICTED BY IDOCK:   -3.50 KCAL/MOL
REMARK 923 INTER-LIGAND FREE ENERGY PREDICTED BY IDOCK:   -2.80 KCAL/MOL
REMARK 924 INTRA-LIGAND FREE ENERGY PREDICTED BY IDOCK:   -0.70 KCAL/MOL
REMARK 927      BINDING AFFINITY PREDICTED BY RF-SCORE:    0.00 PKD
ROOT
HETATM    1  O   UNL     1      -9.548   5.690  65.269  1.00  0.00    -0.360 OA 
HETATM    2  C   UNL     1      -8.199   5.551  65.756  1.00  0.00    -0.124 C  
HETATM    3  H   UNL     1      -9.529   5.458  64.348  1.00  0.00     0.000 HD 
HETATM    4  C   UNL     1      -8.231   5.933  67.269  1.00  0.00    -0.105 C  
HETATM    5  C   UNL     1      -7.833   4.039  65.645  1.00  0.00    -0.090 C  
HETATM    6  C   UNL     1      -7.324   6.497  64.916  1.00  0.00    -0.076 A  
HETATM    7  C   UNL     1      -7.866   3.413  64.244  1.00  0.00    -0.081 C  
HETATM    8  C   UNL     1      -6.156   7.091  65.426  1.00  0.00    -0.037 A  
HETATM    9  C   UNL     1      -6.489   3.604  66.259  1.00  0.00    -0.037 C  
HETATM   10  C   UNL     1      -5.505   8.125  64.742  1.00  0.00    -0.040 A  
HETATM   11  C   UNL     1      -7.008   2.164  64.398  1.00  0.00    -0.047 C  
HETATM   12  C   UNL     1      -7.733   6.895  63.628  1.00  0.00    -0.111 A  
HETATM   13  C   UNL     1      -5.853   2.648  65.257  1.00  0.00    -0.018 C  
HETATM   14  C   UNL     1      -5.972   8.545  63.503  1.00  0.00    -0.073 A  
HETATM   15  C   UNL     1      -7.067   7.909  62.929  1.00  0.00    -0.087 A  
ENDROOT
BRANCH   4  16
HETATM   16  C   UNL     1      -8.667   7.377  67.568  1.00  0.00    -0.124 C  
BRANCH  16  17
HETATM   17  N   UNL     1     -10.136   7.559  67.547  1.00  0.00    -0.182 NA 
HETATM   18  C   UNL     1     -10.878   6.703  68.486  1.00  0.00    -0.258 C  
HETATM   19  C   UNL     1     -10.918   8.502  70.252  1.00  0.00    -0.245 C  
HETATM   20  C   UNL     1     -10.631   7.033  69.958  1.00  0.00    -0.251 C  
HETATM   21  C   UNL     1     -10.240   9.423  69.240  1.00  0.00    -0.209 C  
HETATM   22  C   UNL     1     -10.491   8.970  67.798  1.00  0.00    -0.245 C  
ENDBRANCH  16  17
ENDBRANCH   4  16
TORSDOF 2
ENDMDL
MODEL      166
REMARK 921   NORMALIZED FREE ENERGY PREDICTED BY IDOCK:   -2.37 KCAL/MOL
REMARK 922        TOTAL FREE ENERGY PREDICTED BY IDOCK:   -3.34 KCAL/MOL
REMARK 923 INTER-LIGAND FREE ENERGY PREDICTED BY IDOCK:   -2.95 KCAL/MOL
REMARK 924 INTRA-LIGAND FREE ENERGY PREDICTED BY IDOCK:   -0.40 KCAL/MOL
REMARK 927      BINDING AFFINITY PREDICTED BY RF-SCORE:    0.00 PKD
ROOT
HETATM    1  O   UNL     1      -7.650   7.041  68.860  1.00  0.00    -0.100 OA 
HETATM    2  C   UNL     1      -8.751   7.045  67.929  1.00  0.00    -0.125 C  
HETATM    3  H   UNL     1      -6.925   7.471  68.423  1.00  0.00     0.000 HD 
HETATM    4  C   UNL     1      -9.943   6.338  68.647  1.00  0.00    -0.166 C  
HETATM    5  C   UNL     1      -9.140   8.537  67.698  1.00  0.00    -0.144 C  
HETATM    6  C   UNL     1      -8.274   6.294  66.675  1.00  0.00    -0.111 A  
HETATM    7  C   UNL     1      -8.061   9.459  67.114  1.00  0.00    -0.102 C  
HETATM    8  C   UNL     1      -9.158   5.582  65.845  1.00  0.00    -0.163 A  
HETATM    9  C   UNL     1     -10.406   8.803  66.861  1.00  0.00    -0.344 C  
HETATM   10  C   UNL     1      -8.685   4.714  64.852  1.00  0.00    -0.145 A  
HETATM   11  C   UNL     1      -8.863  10.628  66.556  1.00  0.00    -0.160 C  
HETATM   12  C   UNL     1      -6.901   6.198  66.377  1.00  0.00    -0.062 A  
HETATM   13  C   UNL     1     -10.058   9.946  65.915  1.00  0.00    -0.316 C  
HETATM   14  C   UNL     1      -7.321   4.587  64.627  1.00  0.00    -0.071 A  
HETATM   15  C   UNL     1      -6.427   5.353  65.366  1.00  0.00    -0.039 A  
ENDROOT
BRANCH   4  16
HETATM   16  C   UNL     1      -9.692   4.871  69.036  1.00  0.00    -0.175 C  
BRANCH  16  17
HETATM   17  N   UNL     1     -10.183   4.534  70.391  1.00  0.00    -0.162 NA 
HETATM   18  C   UNL     1      -9.754   3.220  70.895  1.00  0.00    -0.117 C  
HETATM   19  C   UNL     1      -7.785   4.219  72.114  1.00  0.00    -0.081 C  
HETATM   20  C   UNL     1      -8.252   3.118  71.168  1.00  0.00    -0.077 C  
HETATM   21  C   UNL     1      -8.290   5.592  71.676  1.00  0.00    -0.124 C  
HETATM   22  C   UNL     1      -9.790   5.575  71.361  1.00  0.00    -0.166 C  
ENDBRANCH  16  17
ENDBRANCH   4  16
TORSDOF 2
ENDMDL
MODEL      167
REMARK 921   NORMALIZED FREE ENERGY PREDICTED BY IDOCK:   -1.68 KCAL/MOL
REMARK 922        TOTAL FREE ENERGY PREDICTED BY IDOCK:   -2.57 KCAL/MOL
REMARK 923 INTER-LIGAND FREE ENERGY PREDICTED BY IDOCK:   -1.97 KCAL/MOL
REMARK 924 INTRA-LIGAND FREE ENERGY PREDICTED BY IDOCK:   -0.60 KCAL/MOL
REMARK 927      BINDING AFFINITY PREDICTED BY RF-SCORE:    0.00 PKD
ROOT
HETATM    1  O   UNL     1      -9.131  13.375  65.176  1.00  0.00     0.152 OA 
HETATM    2  C   UNL     1      -9.079  13.820  66.546  1.00  0.00    -0.129 C  
HETATM    3  H   UNL     1      -9.983  13.628  64.841  1.00  0.00     0.000 HD 
HETATM    4  C   UNL     1      -7.680  13.402  67.097  1.00  0.00     0.002 C  
HETATM    5  C   UNL     1      -9.144  15.377  66.517  1.00  0.00    -0.334 C  
HETATM    6  C   UNL     1     -10.244  13.133  67.280  1.00  0.00    -0.243 A  
HETATM    7  C   UNL     1     -10.392  16.014  65.890  1.00  0.00    -0.386 C  
HETATM    8  C   UNL     1     -10.188  12.822  68.650  1.00  0.00    -0.162 A  
HETATM    9  C   UNL     1      -8.941  16.106  67.859  1.00  0.00    -0.183 C  
HETATM   10  C   UNL     1     -11.145  11.992  69.248  1.00  0.00    -0.246 A  
HETATM   11  C   UNL     1     -10.387  17.428  66.457  1.00  0.00    -0.312 C  
HETATM   12  C   UNL     1     -11.372  12.682  66.567  1.00  0.00    -0.377 A  
HETATM   13  C   UNL     1      -9.988  17.212  67.906  1.00  0.00    -0.292 C  
HETATM   14  C   UNL     1     -12.211  11.504  68.503  1.00  0.00     0.038 A  
HETATM   15  C   UNL     1     -12.345  11.875  67.170  1.00  0.00     0.942 A  
ENDROOT
BRANCH   4  16
HETATM   16  C   UNL     1      -7.409  11.888  67.108  1.00  0.00    -0.142 C  
BRANCH  16  17
HETATM   17  N   UNL     1      -7.341  11.297  65.753  1.00  0.00     0.184 NA 
HETATM   18  C   UNL     1      -6.052  10.671  65.416  1.00  0.00    -0.090 C  
HETATM   19  C   UNL     1      -6.866   8.388  66.113  1.00  0.00    -0.065 C  
HETATM   20  C   UNL     1      -5.741   9.412  66.226  1.00  0.00    -0.053 C  
HETATM   21  C   UNL     1      -8.233   9.020  66.364  1.00  0.00    -0.111 C  
HETATM   22  C   UNL     1      -8.422  10.311  65.559  1.00  0.00    -0.162 C  
ENDBRANCH  16  17
ENDBRANCH   4  16
TORSDOF 2
ENDMDL
MODEL      168
REMARK 921   NORMALIZED FREE ENERGY PREDICTED BY IDOCK:   -0.82 KCAL/MOL
REMARK 922        TOTAL FREE ENERGY PREDICTED BY IDOCK:   -1.61 KCAL/MOL
REMARK 923 INTER-LIGAND FREE ENERGY PREDICTED BY IDOCK:   -2.53 KCAL/MOL
REMARK 924 INTRA-LIGAND FREE ENERGY PREDICTED BY IDOCK:    0.92 KCAL/MOL
REMARK 927      BINDING AFFINITY PREDICTED BY RF-SCORE:    0.00 PKD
ROOT
HETATM    1  O   UNL     1      -8.752  10.994  69.574  1.00  0.00    -0.377 OA 
HETATM    2  C   UNL     1      -8.936  10.276  68.338  1.00  0.00    -0.132 C  
HETATM    3  H   UNL     1      -8.643  11.909  69.342  1.00  0.00     0.000 HD 
HETATM    4  C   UNL     1      -9.115   8.773  68.719  1.00  0.00    -0.138 C  
HETATM    5  C   UNL     1     -10.274  10.782  67.718  1.00  0.00    -0.212 C  
HETATM    6  C   UNL     1      -7.683  10.534  67.485  1.00  0.00    -0.098 A  
HETATM    7  C   UNL     1     -10.368  12.277  67.380  1.00  0.00    -0.219 C  
HETATM    8  C   UNL     1      -7.207   9.599  66.548  1.00  0.00    -0.090 A  
HETATM    9  C   UNL     1     -10.779  10.045  66.463  1.00  0.00    -0.094 C  
HETATM   10  C   UNL     1      -5.946   9.739  65.955  1.00  0.00    -0.068 A  
HETATM   11  C   UNL     1     -11.512  12.339  66.377  1.00  0.00    -0.434 C  
HETATM   12  C   UNL     1      -6.894  11.681  67.700  1.00  0.00    -0.094 A  
HETATM   13  C   UNL     1     -11.262  11.124  65.501  1.00  0.00     0.021 C  
HETATM   14  C   UNL     1      -5.159  10.847  66.239  1.00  0.00    -0.099 A  
HETATM   15  C   UNL     1      -5.645  11.837  67.086  1.00  0.00    -0.121 A  
ENDROOT
BRANCH   4  16
HETATM   16  C   UNL     1      -7.912   8.134  69.434  1.00  0.00    -0.114 C  
BRANCH  16  17
HETATM   17  N   UNL     1      -6.798   7.802  68.516  1.00  0.00    -0.064 NA 
HETATM   18  C   UNL     1      -5.490   7.632  69.169  1.00  0.00    -0.019 C  
HETATM   19  C   UNL     1      -5.785   5.133  69.335  1.00  0.00    -0.016 C  
HETATM   20  C   UNL     1      -5.404   6.408  70.081  1.00  0.00    -0.014 C  
HETATM   21  C   UNL     1      -7.094   5.299  68.566  1.00  0.00    -0.062 C  
HETATM   22  C   UNL     1      -7.109   6.588  67.737  1.00  0.00    -0.088 C  
ENDBRANCH  16  17
ENDBRANCH   4  16
TORSDOF 2
ENDMDL
MODEL      169
REMARK 921   NORMALIZED FREE ENERGY PREDICTED BY IDOCK:   -0.74 KCAL/MOL
REMARK 922        TOTAL FREE ENERGY PREDICTED BY IDOCK:   -1.52 KCAL/MOL
REMARK 923 INTER-LIGAND FREE ENERGY PREDICTED BY IDOCK:   -1.72 KCAL/MOL
REMARK 924 INTRA-LIGAND FREE ENERGY PREDICTED BY IDOCK:    0.21 KCAL/MOL
REMARK 927      BINDING AFFINITY PREDICTED BY RF-SCORE:    0.00 PKD
ROOT
HETATM    1  O   UNL     1      -6.314  16.195  68.362  1.00  0.00    -0.108 OA 
HETATM    2  C   UNL     1      -7.073  17.421  68.343  1.00  0.00    -0.212 C  
HETATM    3  H   UNL     1      -5.398  16.443  68.341  1.00  0.00     0.000 HD 
HETATM    4  C   UNL     1      -8.579  17.012  68.378  1.00  0.00    -0.243 C  
HETATM    5  C   UNL     1      -6.744  18.175  69.667  1.00  0.00    -0.015 C  
HETATM    6  C   UNL     1      -6.682  18.164  67.055  1.00  0.00    -0.206 A  
HETATM    7  C   UNL     1      -5.278  18.564  69.906  1.00  0.00    -0.205 C  
HETATM    8  C   UNL     1      -7.570  19.025  66.386  1.00  0.00    -0.279 A  
HETATM    9  C   UNL     1      -7.561  19.448  69.962  1.00  0.00     0.527 C  
HETATM   10  C   UNL     1      -7.290  19.505  65.100  1.00  0.00     0.291 A  
HETATM   11  C   UNL     1      -5.374  19.669  70.949  1.00  0.00    -0.272 C  
HETATM   12  C   UNL     1      -5.444  17.913  66.431  1.00  0.00    -0.212 A  
HETATM   13  C   UNL     1      -6.567  20.482  70.477  1.00  0.00     0.343 C  
HETATM   14  C   UNL     1      -6.089  19.184  64.480  1.00  0.00    -0.234 A  
HETATM   15  C   UNL     1      -5.150  18.414  65.157  1.00  0.00    -0.204 A  
ENDROOT
BRANCH   4  16
HETATM   16  C   UNL     1      -9.054  16.173  67.180  1.00  0.00    -0.203 C  
BRANCH  16  17
HETATM   17  N   UNL     1      -9.809  14.963  67.578  1.00  0.00    -0.217 NA 
HETATM   18  C   UNL     1      -9.453  13.741  66.837  1.00  0.00    -0.262 C  
HETATM   19  C   UNL     1      -7.817  13.019  68.615  1.00  0.00    -0.050 C  
HETATM   20  C   UNL     1      -8.040  13.230  67.121  1.00  0.00    -0.099 C  
HETATM   21  C   UNL     1      -8.262  14.232  69.430  1.00  0.00     0.295 C  
HETATM   22  C   UNL     1      -9.661  14.709  69.024  1.00  0.00    -0.160 C  
ENDBRANCH  16  17
ENDBRANCH   4  16
TORSDOF 2
ENDMDL
MODEL      170
REMARK 921   NORMALIZED FREE ENERGY PREDICTED BY IDOCK:   -0.54 KCAL/MOL
REMARK 922        TOTAL FREE ENERGY PREDICTED BY IDOCK:   -1.29 KCAL/MOL
REMARK 923 INTER-LIGAND FREE ENERGY PREDICTED BY IDOCK:   -3.01 KCAL/MOL
REMARK 924 INTRA-LIGAND FREE ENERGY PREDICTED BY IDOCK:    1.72 KCAL/MOL
REMARK 927      BINDING AFFINITY PREDICTED BY RF-SCORE:    0.00 PKD
ROOT
HETATM    1  O   UNL     1      -6.247  16.251  68.361  1.00  0.00    -0.114 OA 
HETATM    2  C   UNL     1      -7.004  17.476  68.431  1.00  0.00    -0.211 C  
HETATM    3  H   UNL     1      -5.331  16.500  68.322  1.00  0.00     0.000 HD 
HETATM    4  C   UNL     1      -8.508  17.065  68.494  1.00  0.00    -0.257 C  
HETATM    5  C   UNL     1      -6.631  18.160  69.781  1.00  0.00     0.011 C  
HETATM    6  C   UNL     1      -6.654  18.286  67.171  1.00  0.00    -0.203 A  
HETATM    7  C   UNL     1      -5.158  18.536  69.991  1.00  0.00    -0.200 C  
HETATM    8  C   UNL     1      -7.562  19.180  66.578  1.00  0.00    -0.264 A  
HETATM    9  C   UNL     1      -7.435  19.415  70.169  1.00  0.00     0.596 C  
HETATM   10  C   UNL     1      -7.324  19.727  65.310  1.00  0.00    -0.014 A  
HETATM   11  C   UNL     1      -5.217  19.585  71.094  1.00  0.00    -0.293 C  
HETATM   12  C   UNL     1      -5.438  18.068  66.495  1.00  0.00    -0.192 A  
HETATM   13  C   UNL     1      -6.423  20.421  70.704  1.00  0.00     0.037 C  
HETATM   14  C   UNL     1      -6.145  19.439  64.636  1.00  0.00    -0.292 A  
HETATM   15  C   UNL     1      -5.185  18.635  65.240  1.00  0.00    -0.206 A  
ENDROOT
BRANCH   4  16
HETATM   16  C   UNL     1      -9.024  16.290  67.270  1.00  0.00    -0.195 C  
BRANCH  16  17
HETATM   17  N   UNL     1     -10.448  16.560  66.966  1.00  0.00    -0.304 NA 
HETATM   18  C   UNL     1     -11.236  17.070  68.099  1.00  0.00    -0.039 C  
HETATM   19  C   UNL     1     -10.876  19.466  67.399  1.00  0.00    -0.555 C  
HETATM   20  C   UNL     1     -10.833  18.473  68.556  1.00  0.00     0.324 C  
HETATM   21  C   UNL     1     -10.147  18.932  66.168  1.00  0.00    -0.438 C  
HETATM   22  C   UNL     1     -10.570  17.498  65.833  1.00  0.00    -0.203 C  
ENDBRANCH  16  17
ENDBRANCH   4  16
TORSDOF 2
ENDMDL
MODEL      171
REMARK 921   NORMALIZED FREE ENERGY PREDICTED BY IDOCK:   -0.37 KCAL/MOL
REMARK 922        TOTAL FREE ENERGY PREDICTED BY IDOCK:   -1.11 KCAL/MOL
REMARK 923 INTER-LIGAND FREE ENERGY PREDICTED BY IDOCK:   -1.25 KCAL/MOL
REMARK 924 INTRA-LIGAND FREE ENERGY PREDICTED BY IDOCK:    0.14 KCAL/MOL
REMARK 927      BINDING AFFINITY PREDICTED BY RF-SCORE:    0.00 PKD
ROOT
HETATM    1  O   UNL     1      -9.319  14.243  70.490  1.00  0.00     1.228 OA 
HETATM    2  C   UNL     1     -10.568  14.179  69.773  1.00  0.00     0.225 C  
HETATM    3  H   UNL     1      -9.236  15.133  70.811  1.00  0.00     0.000 HD 
HETATM    4  C   UNL     1     -10.704  12.717  69.246  1.00  0.00     0.031 C  
HETATM    5  C   UNL     1     -11.700  14.425  70.817  1.00  0.00    -0.296 C  
HETATM    6  C   UNL     1     -10.485  15.220  68.644  1.00  0.00    -0.235 A  
HETATM    7  C   UNL     1     -11.684  15.767  71.562  1.00  0.00    -0.523 C  
HETATM    8  C   UNL     1     -11.174  15.064  67.428  1.00  0.00    -0.337 A  
HETATM    9  C   UNL     1     -13.149  14.245  70.325  1.00  0.00     0.039 C  
HETATM   10  C   UNL     1     -10.906  15.889  66.328  1.00  0.00    -0.200 A  
HETATM   11  C   UNL     1     -13.112  15.900  72.076  1.00  0.00    -0.419 C  
HETATM   12  C   UNL     1      -9.612  16.320  68.747  1.00  0.00    -0.242 A  
HETATM   13  C   UNL     1     -13.943  15.410  70.903  1.00  0.00    -0.172 C  
HETATM   14  C   UNL     1      -9.987  16.925  66.438  1.00  0.00    -0.321 A  
HETATM   15  C   UNL     1      -9.363  17.164  67.658  1.00  0.00    -0.239 A  
ENDROOT
BRANCH   4  16
HETATM   16  C   UNL     1      -9.603  12.272  68.267  1.00  0.00    -0.212 C  
BRANCH  16  17
HETATM   17  N   UNL     1      -8.526  11.491  68.917  1.00  0.00    -0.051 NA 
HETATM   18  C   UNL     1      -7.744  10.640  68.005  1.00  0.00    -0.100 C  
HETATM   19  C   UNL     1      -5.968  12.407  67.718  1.00  0.00    -0.111 C  
HETATM   20  C   UNL     1      -6.887  11.420  67.007  1.00  0.00    -0.137 C  
HETATM   21  C   UNL     1      -6.726  13.247  68.743  1.00  0.00    -0.099 C  
HETATM   22  C   UNL     1      -7.607  12.382  69.651  1.00  0.00     0.923 C  
ENDBRANCH  16  17
ENDBRANCH   4  16
TORSDOF 2
ENDMDL
MODEL      172
REMARK 921   NORMALIZED FREE ENERGY PREDICTED BY IDOCK:    0.72 KCAL/MOL
REMARK 922        TOTAL FREE ENERGY PREDICTED BY IDOCK:    0.11 KCAL/MOL
REMARK 923 INTER-LIGAND FREE ENERGY PREDICTED BY IDOCK:    0.71 KCAL/MOL
REMARK 924 INTRA-LIGAND FREE ENERGY PREDICTED BY IDOCK:   -0.60 KCAL/MOL
REMARK 927      BINDING AFFINITY PREDICTED BY RF-SCORE:    0.00 PKD
ROOT
HETATM    1  O   UNL     1     -11.511  11.411  67.141  1.00  0.00    -0.450 OA 
HETATM    2  C   UNL     1     -10.622  11.648  68.251  1.00  0.00    -0.205 C  
HETATM    3  H   UNL     1     -11.841  12.260  66.871  1.00  0.00     0.000 HD 
HETATM    4  C   UNL     1     -10.082  10.253  68.694  1.00  0.00    -0.187 C  
HETATM    5  C   UNL     1      -9.424  12.480  67.698  1.00  0.00    -0.188 C  
HETATM    6  C   UNL     1     -11.452  12.346  69.342  1.00  0.00    -0.336 A  
HETATM    7  C   UNL     1      -9.746  13.850  67.087  1.00  0.00    -0.244 C  
HETATM    8  C   UNL     1     -11.163  12.203  70.711  1.00  0.00     1.624 A  
HETATM    9  C   UNL     1      -8.248  12.725  68.662  1.00  0.00     0.012 C  
HETATM   10  C   UNL     1     -12.057  12.644  71.694  1.00  0.00     0.786 A  
HETATM   11  C   UNL     1      -8.408  14.575  67.127  1.00  0.00    -0.226 C  
HETATM   12  C   UNL     1     -12.614  13.067  69.006  1.00  0.00     0.574 A  
HETATM   13  C   UNL     1      -7.850  14.186  68.484  1.00  0.00    -0.140 C  
HETATM   14  C   UNL     1     -13.231  13.291  71.331  1.00  0.00    -0.304 A  
HETATM   15  C   UNL     1     -13.497  13.533  69.988  1.00  0.00     1.504 A  
ENDROOT
BRANCH   4  16
HETATM   16  C   UNL     1     -11.154   9.264  69.183  1.00  0.00     0.024 C  
BRANCH  16  17
HETATM   17  N   UNL     1     -10.585   8.057  69.824  1.00  0.00    -0.238 NA 
HETATM   18  C   UNL     1      -9.944   8.294  71.128  1.00  0.00    -0.185 C  
HETATM   19  C   UNL     1     -12.043   7.684  72.385  1.00  0.00    -0.257 C  
HETATM   20  C   UNL     1     -10.917   8.701  72.236  1.00  0.00    -0.392 C  
HETATM   21  C   UNL     1     -12.675   7.339  71.038  1.00  0.00    -0.284 C  
HETATM   22  C   UNL     1     -11.617   7.013  69.978  1.00  0.00    -0.178 C  
ENDBRANCH  16  17
ENDBRANCH   4  16
TORSDOF 2
ENDMDL
MODEL      173
REMARK 921   NORMALIZED FREE ENERGY PREDICTED BY IDOCK:    1.24 KCAL/MOL
REMARK 922        TOTAL FREE ENERGY PREDICTED BY IDOCK:    0.70 KCAL/MOL
REMARK 923 INTER-LIGAND FREE ENERGY PREDICTED BY IDOCK:   -1.54 KCAL/MOL
REMARK 924 INTRA-LIGAND FREE ENERGY PREDICTED BY IDOCK:    2.24 KCAL/MOL
REMARK 927      BINDING AFFINITY PREDICTED BY RF-SCORE:    0.00 PKD
ROOT
HETATM    1  O   UNL     1      -9.998  17.429  70.329  1.00  0.00     0.889 OA 
HETATM    2  C   UNL     1      -9.718  16.548  69.222  1.00  0.00    -0.193 C  
HETATM    3  H   UNL     1     -10.898  17.714  70.227  1.00  0.00     0.000 HD 
HETATM    4  C   UNL     1      -8.239  16.081  69.388  1.00  0.00    -0.135 C  
HETATM    5  C   UNL     1     -10.643  15.305  69.390  1.00  0.00    -0.257 C  
HETATM    6  C   UNL     1      -9.950  17.364  67.938  1.00  0.00    -0.301 A  
HETATM    7  C   UNL     1     -12.157  15.553  69.388  1.00  0.00    -0.302 C  
HETATM    8  C   UNL     1      -9.247  17.104  66.748  1.00  0.00    -0.270 A  
HETATM    9  C   UNL     1     -10.416  14.135  68.414  1.00  0.00    -0.254 C  
HETATM   10  C   UNL     1      -9.291  17.994  65.667  1.00  0.00     0.591 A  
HETATM   11  C   UNL     1     -12.737  14.183  69.060  1.00  0.00     0.569 C  
HETATM   12  C   UNL     1     -10.800  18.486  67.946  1.00  0.00    -0.240 A  
HETATM   13  C   UNL     1     -11.801  13.667  67.982  1.00  0.00    -0.397 C  
HETATM   14  C   UNL     1     -10.087  19.131  65.730  1.00  0.00    -0.174 A  
HETATM   15  C   UNL     1     -10.868  19.362  66.856  1.00  0.00    -0.509 A  
ENDROOT
BRANCH   4  16
HETATM   16  C   UNL     1      -7.190  17.205  69.342  1.00  0.00    -0.042 C  
BRANCH  16  17
HETATM   17  N   UNL     1      -6.021  16.878  68.494  1.00  0.00    -0.140 NA 
HETATM   18  C   UNL     1      -5.146  15.823  69.029  1.00  0.00    -0.100 C  
HETATM   19  C   UNL     1      -6.318  14.034  67.693  1.00  0.00    -0.134 C  
HETATM   20  C   UNL     1      -5.793  14.437  69.067  1.00  0.00    -0.088 C  
HETATM   21  C   UNL     1      -7.157  15.142  67.061  1.00  0.00     0.142 C  
HETATM   22  C   UNL     1      -6.453  16.502  67.134  1.00  0.00    -0.194 C  
ENDBRANCH  16  17
ENDBRANCH   4  16
TORSDOF 2
ENDMDL
MODEL      174
REMARK 921   NORMALIZED FREE ENERGY PREDICTED BY IDOCK:    8.60 KCAL/MOL
REMARK 922        TOTAL FREE ENERGY PREDICTED BY IDOCK:    8.91 KCAL/MOL
REMARK 923 INTER-LIGAND FREE ENERGY PREDICTED BY IDOCK:    8.99 KCAL/MOL
REMARK 924 INTRA-LIGAND FREE ENERGY PREDICTED BY IDOCK:   -0.08 KCAL/MOL
REMARK 927      BINDING AFFINITY PREDICTED BY RF-SCORE:    0.00 PKD
ROOT
HETATM    1  O   UNL     1      -8.151  17.995  69.096  1.00  0.00    -0.102 OA 
HETATM    2  C   UNL     1      -8.136  16.778  68.323  1.00  0.00    -0.202 C  
HETATM    3  H   UNL     1      -8.144  17.735  70.010  1.00  0.00     0.000 HD 
HETATM    4  C   UNL     1      -8.148  17.204  66.822  1.00  0.00    -0.278 C  
HETATM    5  C   UNL     1      -6.777  16.073  68.616  1.00  0.00    -0.125 C  
HETATM    6  C   UNL     1      -9.386  15.979  68.731  1.00  0.00    -0.222 A  
HETATM    7  C   UNL     1      -6.494  15.678  70.072  1.00  0.00    -0.088 C  
HETATM    8  C   UNL     1     -10.038  15.102  67.846  1.00  0.00    -0.222 A  
HETATM    9  C   UNL     1      -6.449  14.823  67.779  1.00  0.00    -0.183 C  
HETATM   10  C   UNL     1     -11.298  14.568  68.145  1.00  0.00    -0.319 A  
HETATM   11  C   UNL     1      -5.409  14.617  69.943  1.00  0.00    -0.096 C  
HETATM   12  C   UNL     1      -9.994  16.191  69.983  1.00  0.00     0.137 A  
HETATM   13  C   UNL     1      -5.873  13.799  68.750  1.00  0.00    -0.084 C  
HETATM   14  C   UNL     1     -11.905  14.850  69.361  1.00  0.00    -0.356 A  
HETATM   15  C   UNL     1     -11.241  15.636  70.297  1.00  0.00    -0.357 A  
ENDROOT
BRANCH   4  16
HETATM   16  C   UNL     1      -9.389  18.000  66.380  1.00  0.00    -0.255 C  
BRANCH  16  17
HETATM   17  N   UNL     1      -9.300  18.493  64.987  1.00  0.00     1.883 NA 
HETATM   18  C   UNL     1      -9.910  19.813  64.758  1.00  0.00     2.624 C  
HETATM   19  C   UNL     1      -7.705  20.996  65.067  1.00  0.00     1.120 C  
HETATM   20  C   UNL     1      -9.180  20.964  65.451  1.00  0.00     1.382 C  
HETATM   21  C   UNL     1      -7.056  19.621  65.201  1.00  0.00    -0.016 C  
HETATM   22  C   UNL     1      -7.896  18.526  64.534  1.00  0.00     4.749 C  
ENDBRANCH  16  17
ENDBRANCH   4  16
TORSDOF 2
ENDMDL
MODEL      175
REMARK 921   NORMALIZED FREE ENERGY PREDICTED BY IDOCK:   11.06 KCAL/MOL
REMARK 922        TOTAL FREE ENERGY PREDICTED BY IDOCK:   11.66 KCAL/MOL
REMARK 923 INTER-LIGAND FREE ENERGY PREDICTED BY IDOCK:   10.14 KCAL/MOL
REMARK 924 INTRA-LIGAND FREE ENERGY PREDICTED BY IDOCK:    1.52 KCAL/MOL
REMARK 927      BINDING AFFINITY PREDICTED BY RF-SCORE:    0.00 PKD
ROOT
HETATM    1  O   UNL     1     -11.956  15.363  68.399  1.00  0.00    -0.511 OA 
HETATM    2  C   UNL     1     -11.601  13.967  68.327  1.00  0.00    -0.329 C  
HETATM    3  H   UNL     1     -11.287  15.837  67.918  1.00  0.00     0.000 HD 
HETATM    4  C   UNL     1     -12.700  13.189  69.117  1.00  0.00     0.775 C  
HETATM    5  C   UNL     1     -11.697  13.554  66.827  1.00  0.00    -0.430 C  
HETATM    6  C   UNL     1     -10.202  13.833  68.953  1.00  0.00    -0.111 A  
HETATM    7  C   UNL     1     -10.787  14.294  65.838  1.00  0.00    -0.300 C  
HETATM    8  C   UNL     1      -9.780  12.659  69.601  1.00  0.00     1.645 A  
HETATM    9  C   UNL     1     -11.522  12.057  66.508  1.00  0.00    -0.413 C  
HETATM   10  C   UNL     1      -8.607  12.631  70.367  1.00  0.00     5.618 A  
HETATM   11  C   UNL     1     -10.741  13.359  64.637  1.00  0.00    -0.425 C  
HETATM   12  C   UNL     1      -9.330  14.937  68.998  1.00  0.00    -0.179 A  
HETATM   13  C   UNL     1     -10.625  11.987  65.278  1.00  0.00    -0.328 C  
HETATM   14  C   UNL     1      -7.800  13.758  70.450  1.00  0.00     2.356 A  
HETATM   15  C   UNL     1      -8.142  14.903  69.739  1.00  0.00     0.112 A  
ENDROOT
BRANCH   4  16
HETATM   16  C   UNL     1     -12.807  13.548  70.609  1.00  0.00    -0.118 C  
BRANCH  16  17
HETATM   17  N   UNL     1     -11.692  14.396  71.087  1.00  0.00    -0.244 NA 
HETATM   18  C   UNL     1     -12.034  15.814  71.285  1.00  0.00    -0.434 C  
HETATM   19  C   UNL     1     -12.506  15.462  73.738  1.00  0.00    -0.751 C  
HETATM   20  C   UNL     1     -13.015  16.063  72.432  1.00  0.00    -0.440 C  
HETATM   21  C   UNL     1     -12.052  14.015  73.554  1.00  0.00     0.941 C  
HETATM   22  C   UNL     1     -11.128  13.857  72.341  1.00  0.00     3.706 C  
ENDBRANCH  16  17
ENDBRANCH   4  16
TORSDOF 2
ENDMDL
MODEL      176
REMARK 921   NORMALIZED FREE ENERGY PREDICTED BY IDOCK:   11.73 KCAL/MOL
REMARK 922        TOTAL FREE ENERGY PREDICTED BY IDOCK:   12.41 KCAL/MOL
REMARK 923 INTER-LIGAND FREE ENERGY PREDICTED BY IDOCK:   11.87 KCAL/MOL
REMARK 924 INTRA-LIGAND FREE ENERGY PREDICTED BY IDOCK:    0.54 KCAL/MOL
REMARK 927      BINDING AFFINITY PREDICTED BY RF-SCORE:    0.00 PKD
ROOT
HETATM    1  O   UNL     1     -12.461  17.238  69.683  1.00  0.00     2.457 OA 
HETATM    2  C   UNL     1     -11.057  16.965  69.863  1.00  0.00     0.188 C  
HETATM    3  H   UNL     1     -12.544  17.699  68.857  1.00  0.00     0.000 HD 
HETATM    4  C   UNL     1     -10.921  16.208  71.220  1.00  0.00     0.140 C  
HETATM    5  C   UNL     1     -10.637  15.992  68.720  1.00  0.00    -0.262 C  
HETATM    6  C   UNL     1     -10.338  18.325  69.858  1.00  0.00     0.942 A  
HETATM    7  C   UNL     1     -10.812  16.488  67.278  1.00  0.00    -0.173 C  
HETATM    8  C   UNL     1      -9.146  18.546  70.570  1.00  0.00     3.330 A  
HETATM    9  C   UNL     1      -9.209  15.418  68.787  1.00  0.00    -0.206 C  
HETATM   10  C   UNL     1      -8.633  19.837  70.751  1.00  0.00     2.066 A  
HETATM   11  C   UNL     1      -9.883  15.582  66.480  1.00  0.00    -0.281 C  
HETATM   12  C   UNL     1     -10.920  19.441  69.225  1.00  0.00     1.546 A  
HETATM   13  C   UNL     1      -8.656  15.485  67.368  1.00  0.00    -0.196 C  
HETATM   14  C   UNL     1      -9.268  20.928  70.172  1.00  0.00     2.403 A  
HETATM   15  C   UNL     1     -10.394  20.729  69.381  1.00  0.00     0.556 A  
ENDROOT
BRANCH   4  16
HETATM   16  C   UNL     1     -11.385  16.998  72.457  1.00  0.00     1.005 C  
BRANCH  16  17
HETATM   17  N   UNL     1     -12.108  16.165  73.443  1.00  0.00    -0.486 NA 
HETATM   18  C   UNL     1     -13.573  16.307  73.417  1.00  0.00    -0.045 C  
HETATM   19  C   UNL     1     -13.839  14.316  71.892  1.00  0.00    -0.545 C  
HETATM   20  C   UNL     1     -14.228  15.769  72.143  1.00  0.00    -0.385 C  
HETATM   21  C   UNL     1     -12.331  14.107  72.004  1.00  0.00    -0.234 C  
HETATM   22  C   UNL     1     -11.760  14.740  73.278  1.00  0.00     0.048 C  
ENDBRANCH  16  17
ENDBRANCH   4  16
TORSDOF 2
ENDMDL
MODEL      177
REMARK 921   NORMALIZED FREE ENERGY PREDICTED BY IDOCK:   11.86 KCAL/MOL
REMARK 922        TOTAL FREE ENERGY PREDICTED BY IDOCK:   12.55 KCAL/MOL
REMARK 923 INTER-LIGAND FREE ENERGY PREDICTED BY IDOCK:    4.24 KCAL/MOL
REMARK 924 INTRA-LIGAND FREE ENERGY PREDICTED BY IDOCK:    8.31 KCAL/MOL
REMARK 927      BINDING AFFINITY PREDICTED BY RF-SCORE:    0.00 PKD
ROOT
HETATM    1  O   UNL     1      -9.650  15.043  68.915  1.00  0.00    -0.208 OA 
HETATM    2  C   UNL     1     -10.672  14.389  68.137  1.00  0.00    -0.236 C  
HETATM    3  H   UNL     1      -8.819  14.677  68.633  1.00  0.00     0.000 HD 
HETATM    4  C   UNL     1     -12.036  14.990  68.601  1.00  0.00    -0.278 C  
HETATM    5  C   UNL     1     -10.441  14.802  66.651  1.00  0.00    -0.286 C  
HETATM    6  C   UNL     1     -10.551  12.882  68.422  1.00  0.00    -0.267 A  
HETATM    7  C   UNL     1      -9.094  14.422  66.021  1.00  0.00     0.063 C  
HETATM    8  C   UNL     1     -11.657  12.016  68.364  1.00  0.00    -0.368 A  
HETATM    9  C   UNL     1     -11.510  14.359  65.634  1.00  0.00    -0.336 C  
HETATM   10  C   UNL     1     -11.583  10.706  68.852  1.00  0.00    -0.320 A  
HETATM   11  C   UNL     1      -9.374  14.489  64.526  1.00  0.00     2.647 C  
HETATM   12  C   UNL     1      -9.333  12.334  68.869  1.00  0.00     0.228 A  
HETATM   13  C   UNL     1     -10.752  13.861  64.409  1.00  0.00    -0.286 C  
HETATM   14  C   UNL     1     -10.384  10.213  69.352  1.00  0.00    -0.251 A  
HETATM   15  C   UNL     1      -9.248  11.015  69.331  1.00  0.00     0.183 A  
ENDROOT
BRANCH   4  16
HETATM   16  C   UNL     1     -12.382  14.754  70.082  1.00  0.00    -0.330 C  
BRANCH  16  17
HETATM   17  N   UNL     1     -11.886  15.826  70.974  1.00  0.00    -0.384 NA 
HETATM   18  C   UNL     1     -10.594  15.544  71.620  1.00  0.00     0.676 C  
HETATM   19  C   UNL     1      -9.313  16.768  69.826  1.00  0.00     0.643 C  
HETATM   20  C   UNL     1      -9.411  15.490  70.652  1.00  0.00     1.214 C  
HETATM   21  C   UNL     1     -10.659  17.149  69.212  1.00  0.00    -0.220 C  
HETATM   22  C   UNL     1     -11.790  17.107  70.246  1.00  0.00     2.353 C  
ENDBRANCH  16  17
ENDBRANCH   4  16
TORSDOF 2
ENDMDL
MODEL      178
REMARK 921   NORMALIZED FREE ENERGY PREDICTED BY IDOCK:   17.33 KCAL/MOL
REMARK 922        TOTAL FREE ENERGY PREDICTED BY IDOCK:   18.66 KCAL/MOL
REMARK 923 INTER-LIGAND FREE ENERGY PREDICTED BY IDOCK:   11.88 KCAL/MOL
REMARK 924 INTRA-LIGAND FREE ENERGY PREDICTED BY IDOCK:    6.77 KCAL/MOL
REMARK 927      BINDING AFFINITY PREDICTED BY RF-SCORE:    0.00 PKD
ROOT
HETATM    1  O   UNL     1      -7.762  17.488  68.940  1.00  0.00    -0.263 OA 
HETATM    2  C   UNL     1      -8.113  16.276  68.243  1.00  0.00    -0.167 C  
HETATM    3  H   UNL     1      -8.402  17.596  69.634  1.00  0.00     0.000 HD 
HETATM    4  C   UNL     1      -7.063  16.099  67.102  1.00  0.00    -0.253 C  
HETATM    5  C   UNL     1      -7.932  15.105  69.256  1.00  0.00    -0.213 C  
HETATM    6  C   UNL     1      -9.546  16.467  67.717  1.00  0.00    -0.231 A  
HETATM    7  C   UNL     1      -8.783  15.145  70.532  1.00  0.00     1.381 C  
HETATM    8  C   UNL     1     -10.006  15.835  66.548  1.00  0.00    -0.283 A  
HETATM    9  C   UNL     1      -8.090  13.677  68.701  1.00  0.00    -0.071 C  
HETATM   10  C   UNL     1     -11.221  16.199  65.953  1.00  0.00     0.176 A  
HETATM   11  C   UNL     1      -8.761  13.701  71.015  1.00  0.00     7.286 C  
HETATM   12  C   UNL     1     -10.419  17.384  68.333  1.00  0.00    -0.384 A  
HETATM   13  C   UNL     1      -8.915  12.910  69.727  1.00  0.00     2.467 C  
HETATM   14  C   UNL     1     -12.030  17.158  66.547  1.00  0.00     2.801 A  
HETATM   15  C   UNL     1     -11.647  17.729  67.756  1.00  0.00     1.101 A  
ENDROOT
BRANCH   4  16
HETATM   16  C   UNL     1      -7.041  17.227  66.056  1.00  0.00    -0.165 C  
BRANCH  16  17
HETATM   17  N   UNL     1      -7.513  18.525  66.587  1.00  0.00    -0.222 NA 
HETATM   18  C   UNL     1      -7.344  18.696  68.040  1.00  0.00    -0.249 C  
HETATM   19  C   UNL     1      -5.140  19.886  67.745  1.00  0.00    -0.180 C  
HETATM   20  C   UNL     1      -5.886  18.784  68.491  1.00  0.00    -0.210 C  
HETATM   21  C   UNL     1      -5.366  19.800  66.237  1.00  0.00    -0.168 C  
HETATM   22  C   UNL     1      -6.851  19.645  65.890  1.00  0.00    -0.268 C  
ENDBRANCH  16  17
ENDBRANCH   4  16
TORSDOF 2
ENDMDL
MODEL      179
REMARK 921   NORMALIZED FREE ENERGY PREDICTED BY IDOCK:   20.86 KCAL/MOL
REMARK 922        TOTAL FREE ENERGY PREDICTED BY IDOCK:   22.61 KCAL/MOL
REMARK 923 INTER-LIGAND FREE ENERGY PREDICTED BY IDOCK:   22.43 KCAL/MOL
REMARK 924 INTRA-LIGAND FREE ENERGY PREDICTED BY IDOCK:    0.19 KCAL/MOL
REMARK 927      BINDING AFFINITY PREDICTED BY RF-SCORE:    0.00 PKD
ROOT
HETATM    1  O   UNL     1      -8.058  14.173  68.534  1.00  0.00    -0.137 OA 
HETATM    2  C   UNL     1      -9.315  14.196  67.829  1.00  0.00    -0.200 C  
HETATM    3  H   UNL     1      -7.809  15.080  68.674  1.00  0.00     0.000 HD 
HETATM    4  C   UNL     1      -9.724  12.708  67.600  1.00  0.00    -0.197 C  
HETATM    5  C   UNL     1     -10.359  14.843  68.790  1.00  0.00    -0.245 C  
HETATM    6  C   UNL     1      -9.074  14.962  66.517  1.00  0.00    -0.309 A  
HETATM    7  C   UNL     1     -10.085  16.280  69.255  1.00  0.00    -0.267 C  
HETATM    8  C   UNL     1      -9.808  14.698  65.348  1.00  0.00    -0.280 A  
HETATM    9  C   UNL     1     -11.828  14.834  68.326  1.00  0.00    -0.316 C  
HETATM   10  C   UNL     1      -9.423  15.227  64.110  1.00  0.00     5.153 A  
HETATM   11  C   UNL     1     -11.453  16.767  69.715  1.00  0.00     0.414 C  
HETATM   12  C   UNL     1      -8.016  15.885  66.412  1.00  0.00    -0.125 A  
HETATM   13  C   UNL     1     -12.386  16.214  68.652  1.00  0.00     0.729 C  
HETATM   14  C   UNL     1      -8.332  16.082  64.025  1.00  0.00    13.190 A  
HETATM   15  C   UNL     1      -7.645  16.439  65.180  1.00  0.00     4.561 A  
ENDROOT
BRANCH   4  16
HETATM   16  C   UNL     1      -8.744  11.888  66.742  1.00  0.00    -0.193 C  
BRANCH  16  17
HETATM   17  N   UNL     1      -7.325  12.208  67.011  1.00  0.00    -0.113 NA 
HETATM   18  C   UNL     1      -6.788  11.641  68.258  1.00  0.00    -0.067 C  
HETATM   19  C   UNL     1      -5.862   9.624  67.061  1.00  0.00    -0.051 C  
HETATM   20  C   UNL     1      -6.678  10.115  68.252  1.00  0.00    -0.054 C  
HETATM   21  C   UNL     1      -6.327  10.263  65.754  1.00  0.00    -0.111 C  
HETATM   22  C   UNL     1      -6.472  11.784  65.883  1.00  0.00     1.045 C  
ENDBRANCH  16  17
ENDBRANCH   4  16
TORSDOF 2
ENDMDL
MODEL      180
REMARK 921   NORMALIZED FREE ENERGY PREDICTED BY IDOCK:   22.16 KCAL/MOL
REMARK 922        TOTAL FREE ENERGY PREDICTED BY IDOCK:   24.06 KCAL/MOL
REMARK 923 INTER-LIGAND FREE ENERGY PREDICTED BY IDOCK:   24.03 KCAL/MOL
REMARK 924 INTRA-LIGAND FREE ENERGY PREDICTED BY IDOCK:    0.03 KCAL/MOL
REMARK 927      BINDING AFFINITY PREDICTED BY RF-SCORE:    0.00 PKD
ROOT
HETATM    1  O   UNL     1      -7.568  19.785  69.264  1.00  0.00    -0.297 OA 
HETATM    2  C   UNL     1      -7.954  18.396  69.247  1.00  0.00     0.154 C  
HETATM    3  H   UNL     1      -7.292  19.979  70.152  1.00  0.00     0.000 HD 
HETATM    4  C   UNL     1      -8.407  18.078  67.788  1.00  0.00    -0.249 C  
HETATM    5  C   UNL     1      -6.668  17.567  69.548  1.00  0.00    -0.116 C  
HETATM    6  C   UNL     1      -9.087  18.239  70.276  1.00  0.00     2.655 A  
HETATM    7  C   UNL     1      -5.972  17.818  70.893  1.00  0.00     0.641 C  
HETATM    8  C   UNL     1     -10.093  17.266  70.141  1.00  0.00     0.899 A  
HETATM    9  C   UNL     1      -6.786  16.037  69.424  1.00  0.00    -0.200 C  
HETATM   10  C   UNL     1     -11.239  17.287  70.946  1.00  0.00     1.310 A  
HETATM   11  C   UNL     1      -5.126  16.567  71.088  1.00  0.00    -0.125 C  
HETATM   12  C   UNL     1      -9.220  19.152  71.339  1.00  0.00     4.621 A  
HETATM   13  C   UNL     1      -6.050  15.455  70.626  1.00  0.00     0.089 C  
HETATM   14  C   UNL     1     -11.375  18.243  71.943  1.00  0.00     3.792 A  
HETATM   15  C   UNL     1     -10.351  19.158  72.164  1.00  0.00     3.596 A  
ENDROOT
BRANCH   4  16
HETATM   16  C   UNL     1      -9.619  18.886  67.291  1.00  0.00    -0.307 C  
BRANCH  16  17
HETATM   17  N   UNL     1      -9.905  18.683  65.853  1.00  0.00    -0.504 NA 
HETATM   18  C   UNL     1     -10.245  19.908  65.111  1.00  0.00     0.651 C  
HETATM   19  C   UNL     1      -7.863  20.230  64.350  1.00  0.00     1.850 C  
HETATM   20  C   UNL     1      -9.086  20.895  64.974  1.00  0.00     1.804 C  
HETATM   21  C   UNL     1      -7.531  18.905  65.033  1.00  0.00     1.139 C  
HETATM   22  C   UNL     1      -8.770  18.015  65.185  1.00  0.00     2.633 C  
ENDBRANCH  16  17
ENDBRANCH   4  16
TORSDOF 2
ENDMDL
MODEL      181
REMARK 921   NORMALIZED FREE ENERGY PREDICTED BY IDOCK:   22.92 KCAL/MOL
REMARK 922        TOTAL FREE ENERGY PREDICTED BY IDOCK:   24.91 KCAL/MOL
REMARK 923 INTER-LIGAND FREE ENERGY PREDICTED BY IDOCK:   23.82 KCAL/MOL
REMARK 924 INTRA-LIGAND FREE ENERGY PREDICTED BY IDOCK:    1.09 KCAL/MOL
REMARK 927      BINDING AFFINITY PREDICTED BY RF-SCORE:    0.00 PKD
ROOT
HETATM    1  O   UNL     1      -7.373  16.113  68.241  1.00  0.00    -0.133 OA 
HETATM    2  C   UNL     1      -8.271  15.024  67.947  1.00  0.00    -0.141 C  
HETATM    3  H   UNL     1      -6.662  16.054  67.613  1.00  0.00     0.000 HD 
HETATM    4  C   UNL     1      -9.439  15.120  68.978  1.00  0.00    -0.221 C  
HETATM    5  C   UNL     1      -8.855  15.293  66.526  1.00  0.00    -0.335 C  
HETATM    6  C   UNL     1      -7.455  13.727  68.082  1.00  0.00    -0.124 A  
HETATM    7  C   UNL     1      -7.857  15.371  65.363  1.00  0.00     4.737 C  
HETATM    8  C   UNL     1      -8.042  12.508  68.465  1.00  0.00    -0.089 A  
HETATM    9  C   UNL     1      -9.973  14.348  66.046  1.00  0.00    -0.337 C  
HETATM   10  C   UNL     1      -7.259  11.400  68.812  1.00  0.00    -0.107 A  
HETATM   11  C   UNL     1      -8.727  15.128  64.137  1.00  0.00     9.632 C  
HETATM   12  C   UNL     1      -6.055  13.745  67.938  1.00  0.00    -0.154 A  
HETATM   13  C   UNL     1      -9.655  14.016  64.593  1.00  0.00     0.916 C  
HETATM   14  C   UNL     1      -5.875  11.469  68.727  1.00  0.00    -0.046 A  
HETATM   15  C   UNL     1      -5.270  12.630  68.258  1.00  0.00    -0.065 A  
ENDROOT
BRANCH   4  16
HETATM   16  C   UNL     1      -9.022  14.971  70.451  1.00  0.00     1.114 C  
BRANCH  16  17
HETATM   17  N   UNL     1      -9.990  15.572  71.396  1.00  0.00     1.414 NA 
HETATM   18  C   UNL     1      -9.932  17.040  71.490  1.00  0.00     5.026 C  
HETATM   19  C   UNL     1     -11.774  17.322  69.790  1.00  0.00     2.166 C  
HETATM   20  C   UNL     1     -10.378  17.763  70.218  1.00  0.00     1.239 C  
HETATM   21  C   UNL     1     -11.904  15.800  69.770  1.00  0.00    -0.352 C  
HETATM   22  C   UNL     1     -11.368  15.165  71.058  1.00  0.00    -0.316 C  
ENDBRANCH  16  17
ENDBRANCH   4  16
TORSDOF 2
ENDMDL
MODEL      182
REMARK 921   NORMALIZED FREE ENERGY PREDICTED BY IDOCK:   27.92 KCAL/MOL
REMARK 922        TOTAL FREE ENERGY PREDICTED BY IDOCK:   30.50 KCAL/MOL
REMARK 923 INTER-LIGAND FREE ENERGY PREDICTED BY IDOCK:   26.47 KCAL/MOL
REMARK 924 INTRA-LIGAND FREE ENERGY PREDICTED BY IDOCK:    4.03 KCAL/MOL
REMARK 927      BINDING AFFINITY PREDICTED BY RF-SCORE:    0.00 PKD
ROOT
HETATM    1  O   UNL     1      -8.579  11.534  67.993  1.00  0.00    -0.137 OA 
HETATM    2  C   UNL     1      -9.514  11.180  66.954  1.00  0.00    -0.185 C  
HETATM    3  H   UNL     1      -8.829  11.036  68.762  1.00  0.00     0.000 HD 
HETATM    4  C   UNL     1      -9.104  11.999  65.690  1.00  0.00     0.072 C  
HETATM    5  C   UNL     1      -9.294   9.668  66.645  1.00  0.00    -0.200 C  
HETATM    6  C   UNL     1     -10.915  11.542  67.476  1.00  0.00    -0.308 A  
HETATM    7  C   UNL     1      -9.516   8.679  67.797  1.00  0.00    -0.165 C  
HETATM    8  C   UNL     1     -11.963  11.914  66.616  1.00  0.00     0.028 A  
HETATM    9  C   UNL     1     -10.067   9.085  65.447  1.00  0.00     0.610 C  
HETATM   10  C   UNL     1     -13.152  12.465  67.112  1.00  0.00     4.000 A  
HETATM   11  C   UNL     1      -9.725   7.349  67.084  1.00  0.00    -0.223 C  
HETATM   12  C   UNL     1     -11.164  11.625  68.860  1.00  0.00    -0.306 A  
HETATM   13  C   UNL     1     -10.600   7.731  65.902  1.00  0.00     1.925 C  
HETATM   14  C   UNL     1     -13.341  12.600  68.481  1.00  0.00     4.649 A  
HETATM   15  C   UNL     1     -12.362  12.150  69.359  1.00  0.00     0.014 A  
ENDROOT
BRANCH   4  16
HETATM   16  C   UNL     1      -9.173  13.527  65.852  1.00  0.00     0.204 C  
BRANCH  16  17
HETATM   17  N   UNL     1     -10.255  14.150  65.056  1.00  0.00    -0.400 NA 
HETATM   18  C   UNL     1      -9.821  14.741  63.780  1.00  0.00     5.002 C  
HETATM   19  C   UNL     1     -10.404  12.649  62.498  1.00  0.00     3.228 C  
HETATM   20  C   UNL     1      -9.343  13.716  62.750  1.00  0.00     9.473 C  
HETATM   21  C   UNL     1     -10.949  12.075  63.804  1.00  0.00    -0.492 C  
HETATM   22  C   UNL     1     -11.335  13.179  64.795  1.00  0.00    -0.324 C  
ENDBRANCH  16  17
ENDBRANCH   4  16
TORSDOF 2
ENDMDL
MODEL      183
REMARK 921   NORMALIZED FREE ENERGY PREDICTED BY IDOCK:   27.98 KCAL/MOL
REMARK 922        TOTAL FREE ENERGY PREDICTED BY IDOCK:   30.56 KCAL/MOL
REMARK 923 INTER-LIGAND FREE ENERGY PREDICTED BY IDOCK:   31.03 KCAL/MOL
REMARK 924 INTRA-LIGAND FREE ENERGY PREDICTED BY IDOCK:   -0.47 KCAL/MOL
REMARK 927      BINDING AFFINITY PREDICTED BY RF-SCORE:    0.00 PKD
ROOT
HETATM    1  O   UNL     1     -10.656  13.034  70.985  1.00  0.00     2.992 OA 
HETATM    2  C   UNL     1     -11.799  13.908  70.901  1.00  0.00    -0.124 C  
HETATM    3  H   UNL     1      -9.900  13.591  71.134  1.00  0.00     0.000 HD 
HETATM    4  C   UNL     1     -13.040  12.994  70.655  1.00  0.00     0.179 C  
HETATM    5  C   UNL     1     -11.959  14.578  72.299  1.00  0.00    -0.148 C  
HETATM    6  C   UNL     1     -11.529  14.880  69.739  1.00  0.00    -0.328 A  
HETATM    7  C   UNL     1     -10.786  15.430  72.806  1.00  0.00     1.625 C  
HETATM    8  C   UNL     1     -12.567  15.442  68.974  1.00  0.00     0.281 A  
HETATM    9  C   UNL     1     -13.216  15.441  72.516  1.00  0.00    -0.543 C  
HETATM   10  C   UNL     1     -12.304  16.129  67.783  1.00  0.00     1.435 A  
HETATM   11  C   UNL     1     -11.425  16.307  73.874  1.00  0.00     0.853 C  
HETATM   12  C   UNL     1     -10.211  15.152  69.325  1.00  0.00    -0.251 A  
HETATM   13  C   UNL     1     -12.752  16.694  73.247  1.00  0.00    -0.002 C  
HETATM   14  C   UNL     1     -10.994  16.322  67.362  1.00  0.00    -0.175 A  
HETATM   15  C   UNL     1      -9.944  15.863  68.148  1.00  0.00    -0.222 A  
ENDROOT
BRANCH   4  16
HETATM   16  C   UNL     1     -13.002  12.180  69.351  1.00  0.00     1.440 C  
BRANCH  16  17
HETATM   17  N   UNL     1     -13.238  10.734  69.559  1.00  0.00     0.366 NA 
HETATM   18  C   UNL     1     -13.839  10.034  68.411  1.00  0.00    10.720 C  
HETATM   19  C   UNL     1     -11.584   9.301  67.550  1.00  0.00     1.731 C  
HETATM   20  C   UNL     1     -12.922   9.940  67.191  1.00  0.00    11.439 C  
HETATM   21  C   UNL     1     -10.971   9.938  68.795  1.00  0.00    -0.217 C  
HETATM   22  C   UNL     1     -11.986  10.050  69.938  1.00  0.00    -0.016 C  
ENDBRANCH  16  17
ENDBRANCH   4  16
TORSDOF 2
ENDMDL
MODEL      184
REMARK 921   NORMALIZED FREE ENERGY PREDICTED BY IDOCK:   51.55 KCAL/MOL
REMARK 922        TOTAL FREE ENERGY PREDICTED BY IDOCK:   56.89 KCAL/MOL
REMARK 923 INTER-LIGAND FREE ENERGY PREDICTED BY IDOCK:   56.37 KCAL/MOL
REMARK 924 INTRA-LIGAND FREE ENERGY PREDICTED BY IDOCK:    0.51 KCAL/MOL
REMARK 927      BINDING AFFINITY PREDICTED BY RF-SCORE:    0.00 PKD
ROOT
HETATM    1  O   UNL     1     -11.092  19.354  69.873  1.00  0.00     1.379 OA 
HETATM    2  C   UNL     1     -10.383  18.119  69.645  1.00  0.00     0.551 C  
HETATM    3  H   UNL     1     -11.547  19.559  69.064  1.00  0.00     0.000 HD 
HETATM    4  C   UNL     1      -9.636  17.784  70.973  1.00  0.00     5.076 C  
HETATM    5  C   UNL     1     -11.461  17.019  69.404  1.00  0.00     0.710 C  
HETATM    6  C   UNL     1      -9.429  18.368  68.464  1.00  0.00    -0.355 A  
HETATM    7  C   UNL     1     -12.406  17.215  68.210  1.00  0.00     2.616 C  
HETATM    8  C   UNL     1      -8.209  17.683  68.328  1.00  0.00    -0.276 A  
HETATM    9  C   UNL     1     -10.958  15.567  69.295  1.00  0.00    -0.268 C  
HETATM   10  C   UNL     1      -7.249  18.083  67.390  1.00  0.00    -0.205 A  
HETATM   11  C   UNL     1     -12.945  15.813  67.955  1.00  0.00     2.746 C  
HETATM   12  C   UNL     1      -9.697  19.387  67.530  1.00  0.00    -0.432 A  
HETATM   13  C   UNL     1     -11.716  14.939  68.132  1.00  0.00    -0.344 C  
HETATM   14  C   UNL     1      -7.513  19.138  66.527  1.00  0.00    -0.258 A  
HETATM   15  C   UNL     1      -8.750  19.771  66.572  1.00  0.00    -0.408 A  
ENDROOT
BRANCH   4  16
HETATM   16  C   UNL     1      -8.591  18.825  71.414  1.00  0.00     7.034 C  
BRANCH  16  17
HETATM   17  N   UNL     1      -8.687  19.175  72.849  1.00  0.00     6.163 NA 
HETATM   18  C   UNL     1      -9.272  20.497  73.125  1.00  0.00     4.720 C  
HETATM   19  C   UNL     1     -11.574  19.521  73.452  1.00  0.00     7.836 C  
HETATM   20  C   UNL     1     -10.754  20.609  72.766  1.00  0.00     7.893 C  
HETATM   21  C   UNL     1     -10.948  18.141  73.268  1.00  0.00     2.424 C  
HETATM   22  C   UNL     1      -9.448  18.148  73.587  1.00  0.00     9.771 C  
ENDBRANCH  16  17
ENDBRANCH   4  16
TORSDOF 2
ENDMDL
