MODEL        1
REMARK 921   NORMALIZED FREE ENERGY PREDICTED BY IDOCK:   -7.19 KCAL/MOL
REMARK 922        TOTAL FREE ENERGY PREDICTED BY IDOCK:   -8.45 KCAL/MOL
REMARK 923 INTER-LIGAND FREE ENERGY PREDICTED BY IDOCK:   -7.61 KCAL/MOL
REMARK 924 INTRA-LIGAND FREE ENERGY PREDICTED BY IDOCK:   -0.84 KCAL/MOL
REMARK 927      BINDING AFFINITY PREDICTED BY RF-SCORE:    0.00 PKD
ROOT
HETATM    1  C   UNL     1     -12.651  12.111  63.557  1.00  0.00    -0.506 C  
HETATM    2  N   UNL     1     -11.472  12.877  63.953  1.00  0.00    -0.418 NA 
HETATM    3  C   UNL     1     -11.829  14.089  64.710  1.00  0.00    -0.403 C  
HETATM    4  C   UNL     1     -12.366  13.826  66.127  1.00  0.00    -0.496 C  
HETATM    5  C   UNL     1     -11.418  12.959  66.945  1.00  0.00    -0.393 C  
HETATM    6  C   UNL     1     -10.525  12.066  64.738  1.00  0.00    -0.294 C  
HETATM    7  C   UNL     1     -10.991  11.721  66.166  1.00  0.00    -0.355 C  
ENDROOT
BRANCH   5   8
HETATM    8  C   UNL     1     -10.968  13.277  68.188  1.00  0.00    -0.278 A  
HETATM    9  C   UNL     1     -11.733  12.900  69.403  1.00  0.00    -0.382 A  
HETATM   10  C   UNL     1     -11.811  11.553  69.795  1.00  0.00    -0.429 A  
HETATM   11  C   UNL     1     -12.505  11.194  70.948  1.00  0.00    -0.509 A  
HETATM   12  C   UNL     1     -13.118  12.176  71.723  1.00  0.00    -0.457 A  
HETATM   13  C   UNL     1     -13.026  13.520  71.353  1.00  0.00    -0.421 A  
HETATM   14  C   UNL     1     -12.315  13.901  70.206  1.00  0.00    -0.413 A  
HETATM   15  C   UNL     1     -12.240  15.339  69.879  1.00  0.00    -0.357 A  
HETATM   16  C   UNL     1     -11.190  15.988  69.344  1.00  0.00    -0.349 A  
HETATM   17  C   UNL     1      -9.889  15.400  68.968  1.00  0.00    -0.234 A  
HETATM   18  C   UNL     1      -8.731  16.165  69.175  1.00  0.00    -0.235 A  
HETATM   19  C   UNL     1      -7.470  15.654  68.851  1.00  0.00    -0.162 A  
HETATM   20  C   UNL     1      -7.351  14.378  68.307  1.00  0.00    -0.122 A  
HETATM   21  C   UNL     1      -8.493  13.614  68.076  1.00  0.00    -0.174 A  
HETATM   22  C   UNL     1      -9.765  14.124  68.385  1.00  0.00    -0.226 A  
ENDBRANCH   5   8
TORSDOF 1
ENDMDL
MODEL        2
REMARK 921   NORMALIZED FREE ENERGY PREDICTED BY IDOCK:   -6.86 KCAL/MOL
REMARK 922        TOTAL FREE ENERGY PREDICTED BY IDOCK:   -8.10 KCAL/MOL
REMARK 923 INTER-LIGAND FREE ENERGY PREDICTED BY IDOCK:   -7.32 KCAL/MOL
REMARK 924 INTRA-LIGAND FREE ENERGY PREDICTED BY IDOCK:   -0.78 KCAL/MOL
REMARK 927      BINDING AFFINITY PREDICTED BY RF-SCORE:    0.00 PKD
ROOT
HETATM    1  C   UNL     1      -7.390  17.815  69.178  1.00  0.00    -0.114 C  
HETATM    2  N   UNL     1      -8.069  17.317  67.983  1.00  0.00    -0.214 NA 
HETATM    3  C   UNL     1      -8.009  15.849  67.885  1.00  0.00    -0.138 C  
HETATM    4  C   UNL     1      -8.871  15.100  68.914  1.00  0.00    -0.205 C  
HETATM    5  C   UNL     1     -10.322  15.567  68.892  1.00  0.00    -0.221 C  
HETATM    6  C   UNL     1      -9.472  17.759  67.921  1.00  0.00    -0.270 C  
HETATM    7  C   UNL     1     -10.412  17.088  68.941  1.00  0.00    -0.347 C  
ENDROOT
BRANCH   5   8
HETATM    8  C   UNL     1     -11.393  14.737  68.785  1.00  0.00    -0.301 A  
HETATM    9  C   UNL     1     -12.255  14.440  69.956  1.00  0.00    -0.408 A  
HETATM   10  C   UNL     1     -13.099  15.434  70.478  1.00  0.00    -0.318 A  
HETATM   11  C   UNL     1     -13.931  15.155  71.561  1.00  0.00    -0.614 A  
HETATM   12  C   UNL     1     -13.933  13.881  72.123  1.00  0.00    -0.639 A  
HETATM   13  C   UNL     1     -13.113  12.880  71.596  1.00  0.00    -0.430 A  
HETATM   14  C   UNL     1     -12.285  13.138  70.495  1.00  0.00    -0.405 A  
HETATM   15  C   UNL     1     -11.455  12.033  69.973  1.00  0.00    -0.183 A  
HETATM   16  C   UNL     1     -11.154  11.793  68.684  1.00  0.00    -0.289 A  
HETATM   17  C   UNL     1     -11.587  12.586  67.515  1.00  0.00    -0.424 A  
HETATM   18  C   UNL     1     -11.894  11.903  66.328  1.00  0.00    -0.110 A  
HETATM   19  C   UNL     1     -12.323  12.600  65.195  1.00  0.00    -0.547 A  
HETATM   20  C   UNL     1     -12.440  13.987  65.229  1.00  0.00    -0.495 A  
HETATM   21  C   UNL     1     -12.120  14.682  66.393  1.00  0.00    -0.229 A  
HETATM   22  C   UNL     1     -11.675  13.992  67.533  1.00  0.00    -0.421 A  
ENDBRANCH   5   8
TORSDOF 1
ENDMDL
MODEL        3
REMARK 921   NORMALIZED FREE ENERGY PREDICTED BY IDOCK:   -6.79 KCAL/MOL
REMARK 922        TOTAL FREE ENERGY PREDICTED BY IDOCK:   -8.03 KCAL/MOL
REMARK 923 INTER-LIGAND FREE ENERGY PREDICTED BY IDOCK:   -7.21 KCAL/MOL
REMARK 924 INTRA-LIGAND FREE ENERGY PREDICTED BY IDOCK:   -0.82 KCAL/MOL
REMARK 927      BINDING AFFINITY PREDICTED BY RF-SCORE:    0.00 PKD
ROOT
HETATM    1  C   UNL     1     -12.863  11.855  63.224  1.00  0.00    -0.161 C  
HETATM    2  N   UNL     1     -11.797  12.812  63.513  1.00  0.00    -0.522 NA 
HETATM    3  C   UNL     1     -12.272  13.935  64.339  1.00  0.00    -0.413 C  
HETATM    4  C   UNL     1     -12.593  13.568  65.797  1.00  0.00    -0.490 C  
HETATM    5  C   UNL     1     -11.424  12.872  66.482  1.00  0.00    -0.390 C  
HETATM    6  C   UNL     1     -10.642  12.172  64.166  1.00  0.00    -0.365 C  
HETATM    7  C   UNL     1     -10.879  11.736  65.625  1.00  0.00    -0.342 C  
ENDROOT
BRANCH   5   8
HETATM    8  C   UNL     1     -10.899  13.253  67.678  1.00  0.00    -0.273 A  
HETATM    9  C   UNL     1     -11.545  12.868  68.958  1.00  0.00    -0.372 A  
HETATM   10  C   UNL     1     -11.513  11.532  69.388  1.00  0.00    -0.376 A  
HETATM   11  C   UNL     1     -12.094  11.168  70.601  1.00  0.00    -0.477 A  
HETATM   12  C   UNL     1     -12.703  12.135  71.396  1.00  0.00    -0.368 A  
HETATM   13  C   UNL     1     -12.720  13.471  70.987  1.00  0.00    -0.399 A  
HETATM   14  C   UNL     1     -12.122  13.858  69.779  1.00  0.00    -0.404 A  
HETATM   15  C   UNL     1     -12.158  15.288  69.410  1.00  0.00    -0.301 A  
HETATM   16  C   UNL     1     -11.192  15.980  68.779  1.00  0.00    -0.360 A  
HETATM   17  C   UNL     1      -9.891  15.455  68.317  1.00  0.00    -0.213 A  
HETATM   18  C   UNL     1      -8.767  16.291  68.414  1.00  0.00    -0.205 A  
HETATM   19  C   UNL     1      -7.508  15.843  68.005  1.00  0.00    -0.135 A  
HETATM   20  C   UNL     1      -7.356  14.561  67.485  1.00  0.00    -0.212 A  
HETATM   21  C   UNL     1      -8.464  13.726  67.363  1.00  0.00    -0.209 A  
HETATM   22  C   UNL     1      -9.737  14.171  67.758  1.00  0.00    -0.223 A  
ENDBRANCH   5   8
TORSDOF 1
ENDMDL
MODEL        4
REMARK 921   NORMALIZED FREE ENERGY PREDICTED BY IDOCK:   -6.75 KCAL/MOL
REMARK 922        TOTAL FREE ENERGY PREDICTED BY IDOCK:   -7.98 KCAL/MOL
REMARK 923 INTER-LIGAND FREE ENERGY PREDICTED BY IDOCK:   -7.21 KCAL/MOL
REMARK 924 INTRA-LIGAND FREE ENERGY PREDICTED BY IDOCK:   -0.77 KCAL/MOL
REMARK 927      BINDING AFFINITY PREDICTED BY RF-SCORE:    0.00 PKD
ROOT
HETATM    1  C   UNL     1      -6.751  16.294  69.471  1.00  0.00    -0.198 C  
HETATM    2  N   UNL     1      -7.645  16.303  68.315  1.00  0.00    -0.148 NA 
HETATM    3  C   UNL     1      -7.705  14.990  67.651  1.00  0.00    -0.168 C  
HETATM    4  C   UNL     1      -8.443  13.902  68.448  1.00  0.00    -0.159 C  
HETATM    5  C   UNL     1      -9.842  14.344  68.860  1.00  0.00    -0.164 C  
HETATM    6  C   UNL     1      -9.006  16.739  68.672  1.00  0.00    -0.251 C  
HETATM    7  C   UNL     1      -9.816  15.725  69.504  1.00  0.00    -0.283 C  
ENDROOT
BRANCH   5   8
HETATM    8  C   UNL     1     -10.972  13.624  68.631  1.00  0.00    -0.290 A  
HETATM    9  C   UNL     1     -11.687  12.942  69.739  1.00  0.00    -0.351 A  
HETATM   10  C   UNL     1     -12.382  13.696  70.698  1.00  0.00    -0.440 A  
HETATM   11  C   UNL     1     -13.076  13.062  71.726  1.00  0.00    -0.469 A  
HETATM   12  C   UNL     1     -13.090  11.672  71.798  1.00  0.00    -0.487 A  
HETATM   13  C   UNL     1     -12.420  10.912  70.836  1.00  0.00    -0.507 A  
HETATM   14  C   UNL     1     -11.732  11.534  69.783  1.00  0.00    -0.426 A  
HETATM   15  C   UNL     1     -11.059  10.676  68.788  1.00  0.00    -0.316 A  
HETATM   16  C   UNL     1     -10.953  10.908  67.467  1.00  0.00    -0.352 A  
HETATM   17  C   UNL     1     -11.484  12.073  66.732  1.00  0.00    -0.410 A  
HETATM   18  C   UNL     1     -11.995  11.865  65.441  1.00  0.00    -0.054 A  
HETATM   19  C   UNL     1     -12.524  12.928  64.703  1.00  0.00    -0.499 A  
HETATM   20  C   UNL     1     -12.540  14.213  65.240  1.00  0.00    -0.460 A  
HETATM   21  C   UNL     1     -12.018  14.440  66.512  1.00  0.00    -0.406 A  
HETATM   22  C   UNL     1     -11.472  13.381  67.255  1.00  0.00    -0.374 A  
ENDBRANCH   5   8
TORSDOF 1
ENDMDL
MODEL        5
REMARK 921   NORMALIZED FREE ENERGY PREDICTED BY IDOCK:   -6.62 KCAL/MOL
REMARK 922        TOTAL FREE ENERGY PREDICTED BY IDOCK:   -7.85 KCAL/MOL
REMARK 923 INTER-LIGAND FREE ENERGY PREDICTED BY IDOCK:   -7.01 KCAL/MOL
REMARK 924 INTRA-LIGAND FREE ENERGY PREDICTED BY IDOCK:   -0.84 KCAL/MOL
REMARK 927      BINDING AFFINITY PREDICTED BY RF-SCORE:    0.00 PKD
ROOT
HETATM    1  C   UNL     1     -10.014  17.890  68.823  1.00  0.00    -0.376 C  
HETATM    2  N   UNL     1     -10.114  16.721  69.693  1.00  0.00    -0.103 NA 
HETATM    3  C   UNL     1     -11.452  16.107  69.644  1.00  0.00    -0.290 C  
HETATM    4  C   UNL     1     -11.780  15.388  68.325  1.00  0.00    -0.313 C  
HETATM    5  C   UNL     1     -10.719  14.358  67.957  1.00  0.00    -0.244 C  
HETATM    6  C   UNL     1      -9.094  15.706  69.375  1.00  0.00    -0.278 C  
HETATM    7  C   UNL     1      -9.318  14.952  68.050  1.00  0.00    -0.193 C  
ENDROOT
BRANCH   5   8
HETATM    8  C   UNL     1     -10.984  13.062  67.642  1.00  0.00    -0.277 A  
HETATM    9  C   UNL     1     -10.975  12.001  68.680  1.00  0.00    -0.281 A  
HETATM   10  C   UNL     1     -11.991  11.956  69.648  1.00  0.00    -0.365 A  
HETATM   11  C   UNL     1     -12.005  10.948  70.610  1.00  0.00    -0.467 A  
HETATM   12  C   UNL     1     -11.010   9.974  70.606  1.00  0.00    -0.392 A  
HETATM   13  C   UNL     1     -10.008   9.998  69.633  1.00  0.00    -0.263 A  
HETATM   14  C   UNL     1      -9.991  10.993  68.646  1.00  0.00    -0.205 A  
HETATM   15  C   UNL     1      -8.915  10.954  67.635  1.00  0.00    -0.140 A  
HETATM   16  C   UNL     1      -9.022  11.280  66.334  1.00  0.00    -0.194 A  
HETATM   17  C   UNL     1     -10.238  11.752  65.641  1.00  0.00    -0.284 A  
HETATM   18  C   UNL     1     -10.455  11.328  64.321  1.00  0.00    -0.419 A  
HETATM   19  C   UNL     1     -11.595  11.731  63.620  1.00  0.00    -0.521 A  
HETATM   20  C   UNL     1     -12.528  12.569  64.224  1.00  0.00    -0.520 A  
HETATM   21  C   UNL     1     -12.318  13.016  65.527  1.00  0.00    -0.527 A  
HETATM   22  C   UNL     1     -11.168  12.628  66.235  1.00  0.00    -0.354 A  
ENDBRANCH   5   8
TORSDOF 1
ENDMDL
MODEL        6
REMARK 921   NORMALIZED FREE ENERGY PREDICTED BY IDOCK:   -6.62 KCAL/MOL
REMARK 922        TOTAL FREE ENERGY PREDICTED BY IDOCK:   -7.85 KCAL/MOL
REMARK 923 INTER-LIGAND FREE ENERGY PREDICTED BY IDOCK:   -7.22 KCAL/MOL
REMARK 924 INTRA-LIGAND FREE ENERGY PREDICTED BY IDOCK:   -0.63 KCAL/MOL
REMARK 927      BINDING AFFINITY PREDICTED BY RF-SCORE:    0.00 PKD
ROOT
HETATM    1  C   UNL     1     -10.320   8.400  69.177  1.00  0.00    -0.220 C  
HETATM    2  N   UNL     1      -9.973   9.558  69.997  1.00  0.00    -0.221 NA 
HETATM    3  C   UNL     1      -9.189  10.553  69.245  1.00  0.00    -0.148 C  
HETATM    4  C   UNL     1      -9.981  11.316  68.171  1.00  0.00    -0.191 C  
HETATM    5  C   UNL     1     -11.238  11.962  68.740  1.00  0.00    -0.314 C  
HETATM    6  C   UNL     1     -11.164  10.204  70.575  1.00  0.00    -0.336 C  
HETATM    7  C   UNL     1     -12.045  10.967  69.567  1.00  0.00    -0.400 C  
ENDROOT
BRANCH   5   8
HETATM    8  C   UNL     1     -11.569  13.271  68.577  1.00  0.00    -0.368 A  
HETATM    9  C   UNL     1     -11.538  13.911  67.238  1.00  0.00    -0.393 A  
HETATM   10  C   UNL     1     -12.497  13.566  66.272  1.00  0.00    -0.384 A  
HETATM   11  C   UNL     1     -12.491  14.181  65.021  1.00  0.00    -0.434 A  
HETATM   12  C   UNL     1     -11.534  15.150  64.730  1.00  0.00    -0.383 A  
HETATM   13  C   UNL     1     -10.590  15.515  65.692  1.00  0.00    -0.389 A  
HETATM   14  C   UNL     1     -10.594  14.921  66.963  1.00  0.00    -0.289 A  
HETATM   15  C   UNL     1      -9.581  15.362  67.942  1.00  0.00    -0.206 A  
HETATM   16  C   UNL     1      -9.751  15.496  69.270  1.00  0.00    -0.272 A  
HETATM   17  C   UNL     1     -10.987  15.226  70.031  1.00  0.00    -0.306 A  
HETATM   18  C   UNL     1     -11.296  16.065  71.114  1.00  0.00    -0.413 A  
HETATM   19  C   UNL     1     -12.460  15.866  71.862  1.00  0.00    -0.524 A  
HETATM   20  C   UNL     1     -13.325  14.822  71.546  1.00  0.00    -0.452 A  
HETATM   21  C   UNL     1     -13.023  13.968  70.487  1.00  0.00    -0.194 A  
HETATM   22  C   UNL     1     -11.849  14.151  69.738  1.00  0.00    -0.381 A  
ENDBRANCH   5   8
TORSDOF 1
ENDMDL
MODEL        7
REMARK 921   NORMALIZED FREE ENERGY PREDICTED BY IDOCK:   -6.54 KCAL/MOL
REMARK 922        TOTAL FREE ENERGY PREDICTED BY IDOCK:   -7.77 KCAL/MOL
REMARK 923 INTER-LIGAND FREE ENERGY PREDICTED BY IDOCK:   -6.97 KCAL/MOL
REMARK 924 INTRA-LIGAND FREE ENERGY PREDICTED BY IDOCK:   -0.80 KCAL/MOL
REMARK 927      BINDING AFFINITY PREDICTED BY RF-SCORE:    0.00 PKD
ROOT
HETATM    1  C   UNL     1      -7.994  17.914  68.118  1.00  0.00    -0.265 C  
HETATM    2  N   UNL     1      -8.728  17.472  66.934  1.00  0.00    -0.243 NA 
HETATM    3  C   UNL     1      -8.239  16.177  66.432  1.00  0.00    -0.301 C  
HETATM    4  C   UNL     1      -8.581  14.972  67.324  1.00  0.00    -0.226 C  
HETATM    5  C   UNL     1     -10.073  14.888  67.623  1.00  0.00    -0.227 C  
HETATM    6  C   UNL     1     -10.178  17.390  67.182  1.00  0.00    -0.323 C  
HETATM    7  C   UNL     1     -10.617  16.231  68.097  1.00  0.00    -0.307 C  
ENDROOT
BRANCH   5   8
HETATM    8  C   UNL     1     -10.831  13.774  67.438  1.00  0.00    -0.285 A  
HETATM    9  C   UNL     1     -11.216  12.907  68.579  1.00  0.00    -0.310 A  
HETATM   10  C   UNL     1     -12.147  13.363  69.526  1.00  0.00    -0.334 A  
HETATM   11  C   UNL     1     -12.533  12.545  70.585  1.00  0.00    -0.323 A  
HETATM   12  C   UNL     1     -11.999  11.264  70.703  1.00  0.00    -0.435 A  
HETATM   13  C   UNL     1     -11.088  10.794  69.754  1.00  0.00    -0.346 A  
HETATM   14  C   UNL     1     -10.704  11.597  68.670  1.00  0.00    -0.246 A  
HETATM   15  C   UNL     1      -9.751  11.036  67.691  1.00  0.00    -0.184 A  
HETATM   16  C   UNL     1      -9.750  11.243  66.361  1.00  0.00    -0.238 A  
HETATM   17  C   UNL     1     -10.699  12.078  65.598  1.00  0.00    -0.313 A  
HETATM   18  C   UNL     1     -11.092  11.640  64.324  1.00  0.00    -0.406 A  
HETATM   19  C   UNL     1     -11.999  12.382  63.562  1.00  0.00    -0.627 A  
HETATM   20  C   UNL     1     -12.516  13.576  64.057  1.00  0.00    -0.294 A  
HETATM   21  C   UNL     1     -12.121  14.036  65.312  1.00  0.00    -0.415 A  
HETATM   22  C   UNL     1     -11.199  13.304  66.079  1.00  0.00    -0.316 A  
ENDBRANCH   5   8
TORSDOF 1
ENDMDL
MODEL        8
REMARK 921   NORMALIZED FREE ENERGY PREDICTED BY IDOCK:   -6.48 KCAL/MOL
REMARK 922        TOTAL FREE ENERGY PREDICTED BY IDOCK:   -7.70 KCAL/MOL
REMARK 923 INTER-LIGAND FREE ENERGY PREDICTED BY IDOCK:   -6.91 KCAL/MOL
REMARK 924 INTRA-LIGAND FREE ENERGY PREDICTED BY IDOCK:   -0.79 KCAL/MOL
REMARK 927      BINDING AFFINITY PREDICTED BY RF-SCORE:    0.00 PKD
ROOT
HETATM    1  C   UNL     1     -13.940  14.771  71.833  1.00  0.00    -0.482 C  
HETATM    2  N   UNL     1     -12.564  14.282  71.780  1.00  0.00    -0.341 NA 
HETATM    3  C   UNL     1     -12.219  13.747  70.452  1.00  0.00    -0.363 C  
HETATM    4  C   UNL     1     -12.081  14.809  69.349  1.00  0.00    -0.305 C  
HETATM    5  C   UNL     1     -11.108  15.915  69.737  1.00  0.00    -0.324 C  
HETATM    6  C   UNL     1     -11.593  15.322  72.162  1.00  0.00    -0.444 C  
HETATM    7  C   UNL     1     -11.411  16.453  71.131  1.00  0.00    -0.252 C  
ENDROOT
BRANCH   5   8
HETATM    8  C   UNL     1     -10.069  16.329  68.964  1.00  0.00    -0.259 A  
HETATM    9  C   UNL     1     -10.133  17.605  68.209  1.00  0.00    -0.362 A  
HETATM   10  C   UNL     1     -10.089  18.830  68.894  1.00  0.00    -0.360 A  
HETATM   11  C   UNL     1     -10.123  20.032  68.190  1.00  0.00    -0.547 A  
HETATM   12  C   UNL     1     -10.191  20.020  66.799  1.00  0.00    -0.592 A  
HETATM   13  C   UNL     1     -10.213  18.806  66.109  1.00  0.00    -0.462 A  
HETATM   14  C   UNL     1     -10.160  17.587  66.799  1.00  0.00    -0.320 A  
HETATM   15  C   UNL     1     -10.168  16.338  66.011  1.00  0.00    -0.376 A  
HETATM   16  C   UNL     1      -9.495  15.207  66.290  1.00  0.00    -0.341 A  
HETATM   17  C   UNL     1      -8.608  14.972  67.447  1.00  0.00    -0.208 A  
HETATM   18  C   UNL     1      -7.457  14.192  67.252  1.00  0.00    -0.068 A  
HETATM   19  C   UNL     1      -6.573  13.948  68.307  1.00  0.00    -0.110 A  
HETATM   20  C   UNL     1      -6.831  14.470  69.571  1.00  0.00    -0.152 A  
HETATM   21  C   UNL     1      -7.979  15.231  69.787  1.00  0.00    -0.039 A  
HETATM   22  C   UNL     1      -8.880  15.469  68.737  1.00  0.00    -0.203 A  
ENDBRANCH   5   8
TORSDOF 1
ENDMDL
MODEL        9
REMARK 921   NORMALIZED FREE ENERGY PREDICTED BY IDOCK:   -6.39 KCAL/MOL
REMARK 922        TOTAL FREE ENERGY PREDICTED BY IDOCK:   -7.60 KCAL/MOL
REMARK 923 INTER-LIGAND FREE ENERGY PREDICTED BY IDOCK:   -7.15 KCAL/MOL
REMARK 924 INTRA-LIGAND FREE ENERGY PREDICTED BY IDOCK:   -0.45 KCAL/MOL
REMARK 927      BINDING AFFINITY PREDICTED BY RF-SCORE:    0.00 PKD
ROOT
HETATM    1  C   UNL     1     -12.272  12.477  63.640  1.00  0.00    -0.550 C  
HETATM    2  N   UNL     1     -11.140  13.106  64.316  1.00  0.00    -0.379 NA 
HETATM    3  C   UNL     1     -11.573  14.109  65.303  1.00  0.00    -0.341 C  
HETATM    4  C   UNL     1     -12.241  13.527  66.560  1.00  0.00    -0.433 C  
HETATM    5  C   UNL     1     -11.371  12.473  67.233  1.00  0.00    -0.373 C  
HETATM    6  C   UNL     1     -10.267  12.115  64.970  1.00  0.00    -0.283 C  
HETATM    7  C   UNL     1     -10.865  11.448  66.224  1.00  0.00    -0.318 C  
ENDROOT
BRANCH   5   8
HETATM    8  C   UNL     1     -11.042  12.479  68.552  1.00  0.00    -0.297 A  
HETATM    9  C   UNL     1     -10.444  11.285  69.201  1.00  0.00    -0.191 A  
HETATM   10  C   UNL     1      -9.129  10.902  68.892  1.00  0.00    -0.151 A  
HETATM   11  C   UNL     1      -8.551   9.798  69.516  1.00  0.00    -0.186 A  
HETATM   12  C   UNL     1      -9.279   9.075  70.458  1.00  0.00    -0.261 A  
HETATM   13  C   UNL     1     -10.580   9.462  70.787  1.00  0.00    -0.371 A  
HETATM   14  C   UNL     1     -11.169  10.582  70.184  1.00  0.00    -0.389 A  
HETATM   15  C   UNL     1     -12.541  10.950  70.588  1.00  0.00    -0.435 A  
HETATM   16  C   UNL     1     -13.034  12.196  70.717  1.00  0.00     0.017 A  
HETATM   17  C   UNL     1     -12.309  13.460  70.478  1.00  0.00    -0.401 A  
HETATM   18  C   UNL     1     -12.584  14.551  71.317  1.00  0.00    -0.415 A  
HETATM   19  C   UNL     1     -11.918  15.768  71.148  1.00  0.00    -0.469 A  
HETATM   20  C   UNL     1     -10.977  15.915  70.132  1.00  0.00    -0.369 A  
HETATM   21  C   UNL     1     -10.706  14.848  69.278  1.00  0.00    -0.253 A  
HETATM   22  C   UNL     1     -11.381  13.625  69.431  1.00  0.00    -0.303 A  
ENDBRANCH   5   8
TORSDOF 1
ENDMDL
MODEL       10
REMARK 921   NORMALIZED FREE ENERGY PREDICTED BY IDOCK:   -6.35 KCAL/MOL
REMARK 922        TOTAL FREE ENERGY PREDICTED BY IDOCK:   -7.56 KCAL/MOL
REMARK 923 INTER-LIGAND FREE ENERGY PREDICTED BY IDOCK:   -6.72 KCAL/MOL
REMARK 924 INTRA-LIGAND FREE ENERGY PREDICTED BY IDOCK:   -0.84 KCAL/MOL
REMARK 927      BINDING AFFINITY PREDICTED BY RF-SCORE:    0.00 PKD
ROOT
HETATM    1  C   UNL     1      -6.714  18.079  67.635  1.00  0.00    -0.186 C  
HETATM    2  N   UNL     1      -7.631  17.751  68.724  1.00  0.00    -0.276 NA 
HETATM    3  C   UNL     1      -9.013  18.162  68.425  1.00  0.00    -0.293 C  
HETATM    4  C   UNL     1      -9.710  17.328  67.337  1.00  0.00    -0.258 C  
HETATM    5  C   UNL     1      -9.662  15.836  67.642  1.00  0.00    -0.222 C  
HETATM    6  C   UNL     1      -7.604  16.316  69.056  1.00  0.00    -0.219 C  
HETATM    7  C   UNL     1      -8.250  15.392  68.006  1.00  0.00    -0.146 C  
ENDROOT
BRANCH   5   8
HETATM    8  C   UNL     1     -10.749  15.019  67.644  1.00  0.00    -0.274 A  
HETATM    9  C   UNL     1     -11.483  14.719  68.900  1.00  0.00    -0.321 A  
HETATM   10  C   UNL     1     -12.252  15.716  69.520  1.00  0.00    -0.231 A  
HETATM   11  C   UNL     1     -12.964  15.435  70.684  1.00  0.00    -0.450 A  
HETATM   12  C   UNL     1     -12.920  14.156  71.232  1.00  0.00    -0.426 A  
HETATM   13  C   UNL     1     -12.175  13.151  70.609  1.00  0.00    -0.402 A  
HETATM   14  C   UNL     1     -11.469  13.411  69.426  1.00  0.00    -0.333 A  
HETATM   15  C   UNL     1     -10.715  12.303  68.807  1.00  0.00    -0.247 A  
HETATM   16  C   UNL     1     -10.559  12.074  67.490  1.00  0.00    -0.250 A  
HETATM   17  C   UNL     1     -11.107  12.884  66.383  1.00  0.00    -0.316 A  
HETATM   18  C   UNL     1     -11.550  12.218  65.230  1.00  0.00    -0.405 A  
HETATM   19  C   UNL     1     -12.091  12.932  64.157  1.00  0.00    -0.503 A  
HETATM   20  C   UNL     1     -12.187  14.319  64.216  1.00  0.00    -0.451 A  
HETATM   21  C   UNL     1     -11.733  14.997  65.346  1.00  0.00    -0.170 A  
HETATM   22  C   UNL     1     -11.175  14.290  66.424  1.00  0.00    -0.337 A  
ENDBRANCH   5   8
TORSDOF 1
ENDMDL
MODEL       11
REMARK 921   NORMALIZED FREE ENERGY PREDICTED BY IDOCK:   -6.32 KCAL/MOL
REMARK 922        TOTAL FREE ENERGY PREDICTED BY IDOCK:   -7.54 KCAL/MOL
REMARK 923 INTER-LIGAND FREE ENERGY PREDICTED BY IDOCK:   -6.71 KCAL/MOL
REMARK 924 INTRA-LIGAND FREE ENERGY PREDICTED BY IDOCK:   -0.83 KCAL/MOL
REMARK 927      BINDING AFFINITY PREDICTED BY RF-SCORE:    0.00 PKD
ROOT
HETATM    1  C   UNL     1      -8.767   8.844  68.918  1.00  0.00    -0.136 C  
HETATM    2  N   UNL     1      -9.283   9.471  67.703  1.00  0.00    -0.124 NA 
HETATM    3  C   UNL     1     -10.738   9.689  67.768  1.00  0.00    -0.257 C  
HETATM    4  C   UNL     1     -11.179  10.790  68.747  1.00  0.00    -0.331 C  
HETATM    5  C   UNL     1     -10.463  12.109  68.483  1.00  0.00    -0.248 C  
HETATM    6  C   UNL     1      -8.605  10.745  67.408  1.00  0.00    -0.126 C  
HETATM    7  C   UNL     1      -8.958  11.905  68.359  1.00  0.00    -0.163 C  
ENDROOT
BRANCH   5   8
HETATM    8  C   UNL     1     -11.092  13.304  68.322  1.00  0.00    -0.294 A  
HETATM    9  C   UNL     1     -11.313  13.881  66.973  1.00  0.00    -0.343 A  
HETATM   10  C   UNL     1     -12.244  13.293  66.101  1.00  0.00    -0.466 A  
HETATM   11  C   UNL     1     -12.476  13.844  64.842  1.00  0.00    -0.420 A  
HETATM   12  C   UNL     1     -11.788  14.990  64.449  1.00  0.00    -0.349 A  
HETATM   13  C   UNL     1     -10.878  15.594  65.319  1.00  0.00    -0.420 A  
HETATM   14  C   UNL     1     -10.646  15.065  66.597  1.00  0.00    -0.301 A  
HETATM   15  C   UNL     1      -9.685  15.759  67.476  1.00  0.00    -0.226 A  
HETATM   16  C   UNL     1      -9.775  15.904  68.811  1.00  0.00    -0.216 A  
HETATM   17  C   UNL     1     -10.853  15.395  69.681  1.00  0.00    -0.288 A  
HETATM   18  C   UNL     1     -11.256  16.186  70.769  1.00  0.00    -0.356 A  
HETATM   19  C   UNL     1     -12.282  15.761  71.619  1.00  0.00    -0.523 A  
HETATM   20  C   UNL     1     -12.911  14.539  71.400  1.00  0.00    -0.406 A  
HETATM   21  C   UNL     1     -12.510  13.733  70.337  1.00  0.00    -0.384 A  
HETATM   22  C   UNL     1     -11.471  14.144  69.486  1.00  0.00    -0.334 A  
ENDBRANCH   5   8
TORSDOF 1
ENDMDL
MODEL       12
REMARK 921   NORMALIZED FREE ENERGY PREDICTED BY IDOCK:   -6.30 KCAL/MOL
REMARK 922        TOTAL FREE ENERGY PREDICTED BY IDOCK:   -7.51 KCAL/MOL
REMARK 923 INTER-LIGAND FREE ENERGY PREDICTED BY IDOCK:   -7.06 KCAL/MOL
REMARK 924 INTRA-LIGAND FREE ENERGY PREDICTED BY IDOCK:   -0.45 KCAL/MOL
REMARK 927      BINDING AFFINITY PREDICTED BY RF-SCORE:    0.00 PKD
ROOT
HETATM    1  C   UNL     1     -12.832  15.796  72.634  1.00  0.00    -0.461 C  
HETATM    2  N   UNL     1     -13.559  15.214  71.508  1.00  0.00    -0.438 NA 
HETATM    3  C   UNL     1     -12.691  15.014  70.335  1.00  0.00    -0.325 C  
HETATM    4  C   UNL     1     -11.653  13.891  70.488  1.00  0.00    -0.132 C  
HETATM    5  C   UNL     1     -12.295  12.570  70.894  1.00  0.00    -0.349 C  
HETATM    6  C   UNL     1     -14.204  13.939  71.867  1.00  0.00    -0.357 C  
HETATM    7  C   UNL     1     -13.239  12.757  72.076  1.00  0.00    -0.538 C  
ENDROOT
BRANCH   5   8
HETATM    8  C   UNL     1     -12.095  11.390  70.250  1.00  0.00    -0.459 A  
HETATM    9  C   UNL     1     -12.521  10.102  70.853  1.00  0.00    -0.455 A  
HETATM   10  C   UNL     1     -13.887   9.794  70.958  1.00  0.00     0.035 A  
HETATM   11  C   UNL     1     -14.295   8.577  71.500  1.00  0.00    -0.451 A  
HETATM   12  C   UNL     1     -13.343   7.656  71.931  1.00  0.00    -0.293 A  
HETATM   13  C   UNL     1     -11.982   7.945  71.809  1.00  0.00    -0.337 A  
HETATM   14  C   UNL     1     -11.554   9.157  71.249  1.00  0.00    -0.401 A  
HETATM   15  C   UNL     1     -10.101   9.396  71.132  1.00  0.00    -0.335 A  
HETATM   16  C   UNL     1      -9.470  10.036  70.131  1.00  0.00    -0.124 A  
HETATM   17  C   UNL     1     -10.096  10.640  68.938  1.00  0.00    -0.215 A  
HETATM   18  C   UNL     1      -9.411  10.557  67.716  1.00  0.00    -0.158 A  
HETATM   19  C   UNL     1      -9.962  11.098  66.550  1.00  0.00    -0.252 A  
HETATM   20  C   UNL     1     -11.197  11.738  66.592  1.00  0.00    -0.383 A  
HETATM   21  C   UNL     1     -11.881  11.847  67.801  1.00  0.00    -0.289 A  
HETATM   22  C   UNL     1     -11.330  11.319  68.980  1.00  0.00    -0.344 A  
ENDBRANCH   5   8
TORSDOF 1
ENDMDL
MODEL       13
REMARK 921   NORMALIZED FREE ENERGY PREDICTED BY IDOCK:   -6.30 KCAL/MOL
REMARK 922        TOTAL FREE ENERGY PREDICTED BY IDOCK:   -7.51 KCAL/MOL
REMARK 923 INTER-LIGAND FREE ENERGY PREDICTED BY IDOCK:   -6.66 KCAL/MOL
REMARK 924 INTRA-LIGAND FREE ENERGY PREDICTED BY IDOCK:   -0.84 KCAL/MOL
REMARK 927      BINDING AFFINITY PREDICTED BY RF-SCORE:    0.00 PKD
ROOT
HETATM    1  C   UNL     1     -11.431   8.097  70.586  1.00  0.00    -0.231 C  
HETATM    2  N   UNL     1     -10.729   9.343  70.882  1.00  0.00    -0.296 NA 
HETATM    3  C   UNL     1      -9.506   9.494  70.075  1.00  0.00    -0.232 C  
HETATM    4  C   UNL     1      -9.751   9.767  68.582  1.00  0.00    -0.162 C  
HETATM    5  C   UNL     1     -10.671  10.962  68.364  1.00  0.00    -0.240 C  
HETATM    6  C   UNL     1     -11.592  10.522  70.693  1.00  0.00    -0.352 C  
HETATM    7  C   UNL     1     -11.924  10.858  69.226  1.00  0.00    -0.382 C  
ENDROOT
BRANCH   5   8
HETATM    8  C   UNL     1     -10.385  12.011  67.548  1.00  0.00    -0.217 A  
HETATM    9  C   UNL     1      -9.686  13.216  68.061  1.00  0.00    -0.224 A  
HETATM   10  C   UNL     1      -8.329  13.144  68.416  1.00  0.00    -0.122 A  
HETATM   11  C   UNL     1      -7.660  14.276  68.874  1.00  0.00    -0.113 A  
HETATM   12  C   UNL     1      -8.336  15.490  68.973  1.00  0.00    -0.227 A  
HETATM   13  C   UNL     1      -9.680  15.576  68.601  1.00  0.00    -0.208 A  
HETATM   14  C   UNL     1     -10.364  14.451  68.119  1.00  0.00    -0.231 A  
HETATM   15  C   UNL     1     -11.778  14.610  67.725  1.00  0.00    -0.386 A  
HETATM   16  C   UNL     1     -12.402  13.999  66.702  1.00  0.00    -0.408 A  
HETATM   17  C   UNL     1     -11.805  13.035  65.756  1.00  0.00    -0.453 A  
HETATM   18  C   UNL     1     -12.218  13.079  64.415  1.00  0.00    -0.471 A  
HETATM   19  C   UNL     1     -11.677  12.201  63.472  1.00  0.00    -0.579 A  
HETATM   20  C   UNL     1     -10.726  11.260  63.857  1.00  0.00    -0.451 A  
HETATM   21  C   UNL     1     -10.320  11.189  65.188  1.00  0.00    -0.354 A  
HETATM   22  C   UNL     1     -10.868  12.058  66.146  1.00  0.00    -0.325 A  
ENDBRANCH   5   8
TORSDOF 1
ENDMDL
MODEL       14
REMARK 921   NORMALIZED FREE ENERGY PREDICTED BY IDOCK:   -6.29 KCAL/MOL
REMARK 922        TOTAL FREE ENERGY PREDICTED BY IDOCK:   -7.50 KCAL/MOL
REMARK 923 INTER-LIGAND FREE ENERGY PREDICTED BY IDOCK:   -6.78 KCAL/MOL
REMARK 924 INTRA-LIGAND FREE ENERGY PREDICTED BY IDOCK:   -0.72 KCAL/MOL
REMARK 927      BINDING AFFINITY PREDICTED BY RF-SCORE:    0.00 PKD
ROOT
HETATM    1  C   UNL     1     -11.811   8.518  70.830  1.00  0.00    -0.217 C  
HETATM    2  N   UNL     1     -11.037   9.746  70.994  1.00  0.00    -0.350 NA 
HETATM    3  C   UNL     1      -9.808   9.736  70.182  1.00  0.00    -0.255 C  
HETATM    4  C   UNL     1     -10.038   9.862  68.667  1.00  0.00    -0.191 C  
HETATM    5  C   UNL     1     -10.886  11.078  68.317  1.00  0.00    -0.261 C  
HETATM    6  C   UNL     1     -11.829  10.946  70.675  1.00  0.00    -0.352 C  
HETATM    7  C   UNL     1     -12.142  11.141  69.179  1.00  0.00    -0.352 C  
ENDROOT
BRANCH   5   8
HETATM    8  C   UNL     1     -10.540  12.015  67.394  1.00  0.00    -0.253 A  
HETATM    9  C   UNL     1     -10.349  13.436  67.776  1.00  0.00    -0.241 A  
HETATM   10  C   UNL     1      -9.241  13.814  68.552  1.00  0.00    -0.138 A  
HETATM   11  C   UNL     1      -9.041  15.150  68.892  1.00  0.00    -0.206 A  
HETATM   12  C   UNL     1      -9.940  16.119  68.455  1.00  0.00    -0.230 A  
HETATM   13  C   UNL     1     -11.034  15.755  67.665  1.00  0.00    -0.302 A  
HETATM   14  C   UNL     1     -11.239  14.418  67.296  1.00  0.00    -0.334 A  
HETATM   15  C   UNL     1     -12.403  14.101  66.445  1.00  0.00    -0.431 A  
HETATM   16  C   UNL     1     -12.458  13.176  65.469  1.00  0.00    -0.516 A  
HETATM   17  C   UNL     1     -11.365  12.279  65.044  1.00  0.00    -0.376 A  
HETATM   18  C   UNL     1     -11.245  11.981  63.677  1.00  0.00    -0.528 A  
HETATM   19  C   UNL     1     -10.222  11.149  63.215  1.00  0.00    -0.403 A  
HETATM   20  C   UNL     1      -9.311  10.595  64.110  1.00  0.00    -0.297 A  
HETATM   21  C   UNL     1      -9.428  10.865  65.473  1.00  0.00    -0.249 A  
HETATM   22  C   UNL     1     -10.461  11.688  65.949  1.00  0.00    -0.300 A  
ENDBRANCH   5   8
TORSDOF 1
ENDMDL
MODEL       15
REMARK 921   NORMALIZED FREE ENERGY PREDICTED BY IDOCK:   -6.27 KCAL/MOL
REMARK 922        TOTAL FREE ENERGY PREDICTED BY IDOCK:   -7.48 KCAL/MOL
REMARK 923 INTER-LIGAND FREE ENERGY PREDICTED BY IDOCK:   -6.94 KCAL/MOL
REMARK 924 INTRA-LIGAND FREE ENERGY PREDICTED BY IDOCK:   -0.54 KCAL/MOL
REMARK 927      BINDING AFFINITY PREDICTED BY RF-SCORE:    0.00 PKD
ROOT
HETATM    1  C   UNL     1     -11.915  13.084  63.376  1.00  0.00    -0.520 C  
HETATM    2  N   UNL     1     -12.432  14.079  64.313  1.00  0.00    -0.684 NA 
HETATM    3  C   UNL     1     -12.904  13.466  65.566  1.00  0.00    -0.299 C  
HETATM    4  C   UNL     1     -11.790  12.918  66.473  1.00  0.00    -0.473 C  
HETATM    5  C   UNL     1     -10.728  13.969  66.772  1.00  0.00    -0.285 C  
HETATM    6  C   UNL     1     -11.436  15.121  64.618  1.00  0.00    -0.362 C  
HETATM    7  C   UNL     1     -10.257  14.657  65.496  1.00  0.00    -0.395 C  
ENDROOT
BRANCH   5   8
HETATM    8  C   UNL     1     -10.298  14.291  68.021  1.00  0.00    -0.229 A  
HETATM    9  C   UNL     1     -11.231  14.304  69.176  1.00  0.00    -0.302 A  
HETATM   10  C   UNL     1     -11.742  13.097  69.680  1.00  0.00    -0.370 A  
HETATM   11  C   UNL     1     -12.598  13.099  70.780  1.00  0.00    -0.338 A  
HETATM   12  C   UNL     1     -12.942  14.303  71.389  1.00  0.00    -0.411 A  
HETATM   13  C   UNL     1     -12.421  15.506  70.907  1.00  0.00    -0.494 A  
HETATM   14  C   UNL     1     -11.543  15.521  69.814  1.00  0.00    -0.345 A  
HETATM   15  C   UNL     1     -11.012  16.824  69.364  1.00  0.00    -0.176 A  
HETATM   16  C   UNL     1      -9.778  17.068  68.888  1.00  0.00    -0.259 A  
HETATM   17  C   UNL     1      -8.691  16.084  68.712  1.00  0.00    -0.223 A  
HETATM   18  C   UNL     1      -7.375  16.496  68.972  1.00  0.00    -0.228 A  
HETATM   19  C   UNL     1      -6.307  15.604  68.835  1.00  0.00    -0.114 A  
HETATM   20  C   UNL     1      -6.538  14.293  68.428  1.00  0.00    -0.105 A  
HETATM   21  C   UNL     1      -7.837  13.873  68.147  1.00  0.00    -0.147 A  
HETATM   22  C   UNL     1      -8.914  14.766  68.267  1.00  0.00    -0.181 A  
ENDBRANCH   5   8
TORSDOF 1
ENDMDL
MODEL       16
REMARK 921   NORMALIZED FREE ENERGY PREDICTED BY IDOCK:   -6.25 KCAL/MOL
REMARK 922        TOTAL FREE ENERGY PREDICTED BY IDOCK:   -7.46 KCAL/MOL
REMARK 923 INTER-LIGAND FREE ENERGY PREDICTED BY IDOCK:   -6.64 KCAL/MOL
REMARK 924 INTRA-LIGAND FREE ENERGY PREDICTED BY IDOCK:   -0.82 KCAL/MOL
REMARK 927      BINDING AFFINITY PREDICTED BY RF-SCORE:    0.00 PKD
ROOT
HETATM    1  C   UNL     1      -5.918  10.804  68.536  1.00  0.00    -0.043 C  
HETATM    2  N   UNL     1      -6.766  11.096  67.383  1.00  0.00    -0.078 NA 
HETATM    3  C   UNL     1      -7.925  10.191  67.306  1.00  0.00    -0.110 C  
HETATM    4  C   UNL     1      -8.994  10.423  68.387  1.00  0.00    -0.137 C  
HETATM    5  C   UNL     1      -9.463  11.872  68.425  1.00  0.00    -0.189 C  
HETATM    6  C   UNL     1      -7.230  12.494  67.379  1.00  0.00    -0.146 C  
HETATM    7  C   UNL     1      -8.281  12.835  68.453  1.00  0.00    -0.128 C  
ENDROOT
BRANCH   5   8
HETATM    8  C   UNL     1     -10.766  12.258  68.381  1.00  0.00    -0.255 A  
HETATM    9  C   UNL     1     -11.375  12.772  67.129  1.00  0.00    -0.365 A  
HETATM   10  C   UNL     1     -11.615  11.900  66.054  1.00  0.00    -0.296 A  
HETATM   11  C   UNL     1     -12.209  12.369  64.885  1.00  0.00    -0.485 A  
HETATM   12  C   UNL     1     -12.577  13.709  64.784  1.00  0.00    -0.339 A  
HETATM   13  C   UNL     1     -12.363  14.578  65.856  1.00  0.00    -0.238 A  
HETATM   14  C   UNL     1     -11.784  14.118  67.047  1.00  0.00    -0.430 A  
HETATM   15  C   UNL     1     -11.599  15.083  68.150  1.00  0.00    -0.360 A  
HETATM   16  C   UNL     1     -11.728  14.833  69.466  1.00  0.00    -0.358 A  
HETATM   17  C   UNL     1     -12.078  13.540  70.088  1.00  0.00    -0.425 A  
HETATM   18  C   UNL     1     -12.897  13.552  71.228  1.00  0.00    -0.420 A  
HETATM   19  C   UNL     1     -13.272  12.358  71.850  1.00  0.00    -0.486 A  
HETATM   20  C   UNL     1     -12.827  11.138  71.349  1.00  0.00    -0.544 A  
HETATM   21  C   UNL     1     -11.997  11.109  70.230  1.00  0.00    -0.460 A  
HETATM   22  C   UNL     1     -11.603  12.304  69.607  1.00  0.00    -0.348 A  
ENDBRANCH   5   8
TORSDOF 1
ENDMDL
MODEL       17
REMARK 921   NORMALIZED FREE ENERGY PREDICTED BY IDOCK:   -6.25 KCAL/MOL
REMARK 922        TOTAL FREE ENERGY PREDICTED BY IDOCK:   -7.45 KCAL/MOL
REMARK 923 INTER-LIGAND FREE ENERGY PREDICTED BY IDOCK:   -6.96 KCAL/MOL
REMARK 924 INTRA-LIGAND FREE ENERGY PREDICTED BY IDOCK:   -0.49 KCAL/MOL
REMARK 927      BINDING AFFINITY PREDICTED BY RF-SCORE:    0.00 PKD
ROOT
HETATM    1  C   UNL     1     -12.251  12.232  63.714  1.00  0.00    -0.546 C  
HETATM    2  N   UNL     1     -11.054  12.759  64.366  1.00  0.00    -0.328 NA 
HETATM    3  C   UNL     1     -11.379  13.796  65.361  1.00  0.00    -0.308 C  
HETATM    4  C   UNL     1     -12.069  13.272  66.632  1.00  0.00    -0.421 C  
HETATM    5  C   UNL     1     -11.279  12.146  67.288  1.00  0.00    -0.366 C  
HETATM    6  C   UNL     1     -10.258  11.696  65.002  1.00  0.00    -0.275 C  
HETATM    7  C   UNL     1     -10.885  11.082  66.269  1.00  0.00    -0.234 C  
ENDROOT
BRANCH   5   8
HETATM    8  C   UNL     1     -10.924  12.122  68.600  1.00  0.00    -0.284 A  
HETATM    9  C   UNL     1      -9.793  11.286  69.075  1.00  0.00    -0.101 A  
HETATM   10  C   UNL     1      -8.474  11.634  68.742  1.00  0.00    -0.027 A  
HETATM   11  C   UNL     1      -7.405  10.870  69.206  1.00  0.00    -0.125 A  
HETATM   12  C   UNL     1      -7.644   9.760  70.012  1.00  0.00    -0.169 A  
HETATM   13  C   UNL     1      -8.952   9.420  70.367  1.00  0.00    -0.294 A  
HETATM   14  C   UNL     1     -10.038  10.189  69.925  1.00  0.00    -0.268 A  
HETATM   15  C   UNL     1     -11.395   9.788  70.349  1.00  0.00    -0.362 A  
HETATM   16  C   UNL     1     -12.417  10.608  70.652  1.00  0.00    -0.462 A  
HETATM   17  C   UNL     1     -12.402  12.084  70.622  1.00  0.00    -0.394 A  
HETATM   18  C   UNL     1     -13.123  12.774  71.609  1.00  0.00    -0.428 A  
HETATM   19  C   UNL     1     -13.133  14.172  71.639  1.00  0.00    -0.425 A  
HETATM   20  C   UNL     1     -12.434  14.898  70.679  1.00  0.00    -0.411 A  
HETATM   21  C   UNL     1     -11.730  14.228  69.680  1.00  0.00    -0.362 A  
HETATM   22  C   UNL     1     -11.725  12.824  69.633  1.00  0.00    -0.372 A  
ENDBRANCH   5   8
TORSDOF 1
ENDMDL
MODEL       18
REMARK 921   NORMALIZED FREE ENERGY PREDICTED BY IDOCK:   -6.11 KCAL/MOL
REMARK 922        TOTAL FREE ENERGY PREDICTED BY IDOCK:   -7.31 KCAL/MOL
REMARK 923 INTER-LIGAND FREE ENERGY PREDICTED BY IDOCK:   -6.74 KCAL/MOL
REMARK 924 INTRA-LIGAND FREE ENERGY PREDICTED BY IDOCK:   -0.57 KCAL/MOL
REMARK 927      BINDING AFFINITY PREDICTED BY RF-SCORE:    0.00 PKD
ROOT
HETATM    1  C   UNL     1     -11.113  12.589  63.623  1.00  0.00    -0.467 C  
HETATM    2  N   UNL     1     -12.114  13.056  64.580  1.00  0.00    -0.385 NA 
HETATM    3  C   UNL     1     -11.717  12.784  65.972  1.00  0.00    -0.418 C  
HETATM    4  C   UNL     1     -10.551  13.644  66.487  1.00  0.00    -0.282 C  
HETATM    5  C   UNL     1     -10.812  15.133  66.299  1.00  0.00    -0.333 C  
HETATM    6  C   UNL     1     -12.402  14.492  64.421  1.00  0.00    -0.413 C  
HETATM    7  C   UNL     1     -11.275  15.437  64.879  1.00  0.00    -0.410 C  
ENDROOT
BRANCH   5   8
HETATM    8  C   UNL     1     -10.702  16.062  67.286  1.00  0.00    -0.295 A  
HETATM    9  C   UNL     1     -10.096  17.392  67.027  1.00  0.00    -0.313 A  
HETATM   10  C   UNL     1     -10.779  18.334  66.240  1.00  0.00    -0.182 A  
HETATM   11  C   UNL     1     -10.228  19.594  66.013  1.00  0.00    -0.587 A  
HETATM   12  C   UNL     1      -8.999  19.925  66.577  1.00  0.00    -0.442 A  
HETATM   13  C   UNL     1      -8.323  19.002  67.379  1.00  0.00    -0.299 A  
HETATM   14  C   UNL     1      -8.872  17.737  67.634  1.00  0.00    -0.248 A  
HETATM   15  C   UNL     1      -8.117  16.812  68.504  1.00  0.00    -0.241 A  
HETATM   16  C   UNL     1      -8.633  15.944  69.393  1.00  0.00    -0.195 A  
HETATM   17  C   UNL     1     -10.064  15.729  69.686  1.00  0.00    -0.289 A  
HETATM   18  C   UNL     1     -10.437  15.463  71.013  1.00  0.00     0.249 A  
HETATM   19  C   UNL     1     -11.778  15.265  71.352  1.00  0.00    -0.444 A  
HETATM   20  C   UNL     1     -12.763  15.318  70.369  1.00  0.00    -0.400 A  
HETATM   21  C   UNL     1     -12.408  15.560  69.044  1.00  0.00    -0.016 A  
HETATM   22  C   UNL     1     -11.061  15.747  68.691  1.00  0.00    -0.327 A  
ENDBRANCH   5   8
TORSDOF 1
ENDMDL
MODEL       19
REMARK 921   NORMALIZED FREE ENERGY PREDICTED BY IDOCK:   -6.10 KCAL/MOL
REMARK 922        TOTAL FREE ENERGY PREDICTED BY IDOCK:   -7.30 KCAL/MOL
REMARK 923 INTER-LIGAND FREE ENERGY PREDICTED BY IDOCK:   -6.71 KCAL/MOL
REMARK 924 INTRA-LIGAND FREE ENERGY PREDICTED BY IDOCK:   -0.59 KCAL/MOL
REMARK 927      BINDING AFFINITY PREDICTED BY RF-SCORE:    0.00 PKD
ROOT
HETATM    1  C   UNL     1     -13.615  14.875  71.442  1.00  0.00    -0.439 C  
HETATM    2  N   UNL     1     -12.213  14.489  71.294  1.00  0.00    -0.340 NA 
HETATM    3  C   UNL     1     -12.059  13.269  70.485  1.00  0.00    -0.314 C  
HETATM    4  C   UNL     1     -12.361  13.449  68.988  1.00  0.00    -0.014 C  
HETATM    5  C   UNL     1     -11.557  14.588  68.375  1.00  0.00    -0.356 C  
HETATM    6  C   UNL     1     -11.400  15.572  70.715  1.00  0.00    -0.355 C  
HETATM    7  C   UNL     1     -11.657  15.852  69.221  1.00  0.00    -0.372 C  
ENDROOT
BRANCH   5   8
HETATM    8  C   UNL     1     -10.801  14.475  67.250  1.00  0.00    -0.297 A  
HETATM    9  C   UNL     1      -9.483  15.149  67.137  1.00  0.00    -0.224 A  
HETATM   10  C   UNL     1      -8.393  14.690  67.895  1.00  0.00    -0.153 A  
HETATM   11  C   UNL     1      -7.146  15.301  67.776  1.00  0.00    -0.180 A  
HETATM   12  C   UNL     1      -6.977  16.365  66.894  1.00  0.00    -0.247 A  
HETATM   13  C   UNL     1      -8.050  16.813  66.121  1.00  0.00    -0.293 A  
HETATM   14  C   UNL     1      -9.307  16.198  66.213  1.00  0.00    -0.351 A  
HETATM   15  C   UNL     1     -10.397  16.706  65.356  1.00  0.00    -0.214 A  
HETATM   16  C   UNL     1     -11.363  15.978  64.767  1.00  0.00    -0.285 A  
HETATM   17  C   UNL     1     -11.541  14.515  64.856  1.00  0.00    -0.401 A  
HETATM   18  C   UNL     1     -11.989  13.831  63.716  1.00  0.00    -0.365 A  
HETATM   19  C   UNL     1     -12.162  12.444  63.737  1.00  0.00    -0.626 A  
HETATM   20  C   UNL     1     -11.901  11.724  64.899  1.00  0.00    -0.135 A  
HETATM   21  C   UNL     1     -11.475  12.390  66.046  1.00  0.00    -0.431 A  
HETATM   22  C   UNL     1     -11.311  13.785  66.039  1.00  0.00    -0.319 A  
ENDBRANCH   5   8
TORSDOF 1
ENDMDL
MODEL       20
REMARK 921   NORMALIZED FREE ENERGY PREDICTED BY IDOCK:   -6.07 KCAL/MOL
REMARK 922        TOTAL FREE ENERGY PREDICTED BY IDOCK:   -7.27 KCAL/MOL
REMARK 923 INTER-LIGAND FREE ENERGY PREDICTED BY IDOCK:   -6.43 KCAL/MOL
REMARK 924 INTRA-LIGAND FREE ENERGY PREDICTED BY IDOCK:   -0.84 KCAL/MOL
REMARK 927      BINDING AFFINITY PREDICTED BY RF-SCORE:    0.00 PKD
ROOT
HETATM    1  C   UNL     1     -13.978  15.407  71.561  1.00  0.00    -0.501 C  
HETATM    2  N   UNL     1     -12.568  15.032  71.642  1.00  0.00    -0.317 NA 
HETATM    3  C   UNL     1     -12.346  13.629  71.252  1.00  0.00    -0.271 C  
HETATM    4  C   UNL     1     -12.529  13.343  69.752  1.00  0.00    -0.112 C  
HETATM    5  C   UNL     1     -11.681  14.267  68.887  1.00  0.00    -0.363 C  
HETATM    6  C   UNL     1     -11.714  15.912  70.826  1.00  0.00    -0.401 C  
HETATM    7  C   UNL     1     -11.852  15.724  69.303  1.00  0.00    -0.358 C  
ENDROOT
BRANCH   5   8
HETATM    8  C   UNL     1     -10.839  13.842  67.908  1.00  0.00    -0.256 A  
HETATM    9  C   UNL     1     -11.314  13.648  66.515  1.00  0.00    -0.335 A  
HETATM   10  C   UNL     1     -11.646  14.760  65.724  1.00  0.00    -0.290 A  
HETATM   11  C   UNL     1     -12.068  14.587  64.407  1.00  0.00    -0.492 A  
HETATM   12  C   UNL     1     -12.153  13.305  63.869  1.00  0.00    -0.531 A  
HETATM   13  C   UNL     1     -11.804  12.195  64.642  1.00  0.00    -0.400 A  
HETATM   14  C   UNL     1     -11.358  12.352  65.962  1.00  0.00    -0.397 A  
HETATM   15  C   UNL     1     -10.987  11.141  66.722  1.00  0.00    -0.309 A  
HETATM   16  C   UNL     1      -9.988  11.027  67.615  1.00  0.00    -0.196 A  
HETATM   17  C   UNL     1      -9.052  12.091  68.031  1.00  0.00    -0.188 A  
HETATM   18  C   UNL     1      -7.718  11.737  68.287  1.00  0.00    -0.130 A  
HETATM   19  C   UNL     1      -6.784  12.703  68.670  1.00  0.00    -0.088 A  
HETATM   20  C   UNL     1      -7.170  14.033  68.811  1.00  0.00    -0.113 A  
HETATM   21  C   UNL     1      -8.495  14.398  68.579  1.00  0.00    -0.170 A  
HETATM   22  C   UNL     1      -9.444  13.432  68.208  1.00  0.00    -0.209 A  
ENDBRANCH   5   8
TORSDOF 1
ENDMDL
MODEL       21
REMARK 921   NORMALIZED FREE ENERGY PREDICTED BY IDOCK:   -6.01 KCAL/MOL
REMARK 922        TOTAL FREE ENERGY PREDICTED BY IDOCK:   -7.21 KCAL/MOL
REMARK 923 INTER-LIGAND FREE ENERGY PREDICTED BY IDOCK:   -6.75 KCAL/MOL
REMARK 924 INTRA-LIGAND FREE ENERGY PREDICTED BY IDOCK:   -0.46 KCAL/MOL
REMARK 927      BINDING AFFINITY PREDICTED BY RF-SCORE:    0.00 PKD
ROOT
HETATM    1  C   UNL     1     -12.834  10.500  70.405  1.00  0.00    -0.206 C  
HETATM    2  N   UNL     1     -11.548  11.179  70.264  1.00  0.00    -0.312 NA 
HETATM    3  C   UNL     1     -10.628  10.442  69.382  1.00  0.00    -0.239 C  
HETATM    4  C   UNL     1     -11.013  10.461  67.893  1.00  0.00    -0.354 C  
HETATM    5  C   UNL     1     -11.213  11.879  67.373  1.00  0.00    -0.366 C  
HETATM    6  C   UNL     1     -11.703  12.560  69.774  1.00  0.00    -0.285 C  
HETATM    7  C   UNL     1     -12.122  12.683  68.296  1.00  0.00    -0.135 C  
ENDROOT
BRANCH   5   8
HETATM    8  C   UNL     1     -10.613  12.380  66.260  1.00  0.00    -0.277 A  
HETATM    9  C   UNL     1     -10.626  13.835  65.968  1.00  0.00    -0.290 A  
HETATM   10  C   UNL     1      -9.866  14.716  66.753  1.00  0.00    -0.262 A  
HETATM   11  C   UNL     1      -9.852  16.080  66.470  1.00  0.00    -0.284 A  
HETATM   12  C   UNL     1     -10.589  16.573  65.395  1.00  0.00    -0.293 A  
HETATM   13  C   UNL     1     -11.331  15.700  64.595  1.00  0.00    -0.355 A  
HETATM   14  C   UNL     1     -11.340  14.322  64.854  1.00  0.00    -0.372 A  
HETATM   15  C   UNL     1     -12.129  13.450  63.961  1.00  0.00    -0.506 A  
HETATM   16  C   UNL     1     -11.808  12.206  63.562  1.00  0.00    -0.597 A  
HETATM   17  C   UNL     1     -10.597  11.446  63.935  1.00  0.00    -0.452 A  
HETATM   18  C   UNL     1     -10.006  10.623  62.964  1.00  0.00    -0.239 A  
HETATM   19  C   UNL     1      -8.852   9.891  63.256  1.00  0.00    -0.257 A  
HETATM   20  C   UNL     1      -8.278   9.964  64.522  1.00  0.00    -0.162 A  
HETATM   21  C   UNL     1      -8.864  10.761  65.504  1.00  0.00    -0.203 A  
HETATM   22  C   UNL     1     -10.032  11.489  65.225  1.00  0.00    -0.302 A  
ENDBRANCH   5   8
TORSDOF 1
ENDMDL
MODEL       22
REMARK 921   NORMALIZED FREE ENERGY PREDICTED BY IDOCK:   -6.01 KCAL/MOL
REMARK 922        TOTAL FREE ENERGY PREDICTED BY IDOCK:   -7.20 KCAL/MOL
REMARK 923 INTER-LIGAND FREE ENERGY PREDICTED BY IDOCK:   -6.76 KCAL/MOL
REMARK 924 INTRA-LIGAND FREE ENERGY PREDICTED BY IDOCK:   -0.44 KCAL/MOL
REMARK 927      BINDING AFFINITY PREDICTED BY RF-SCORE:    0.00 PKD
ROOT
HETATM    1  C   UNL     1     -13.936  15.053  72.772  1.00  0.00    -0.278 C  
HETATM    2  N   UNL     1     -12.619  14.471  72.525  1.00  0.00    -0.325 NA 
HETATM    3  C   UNL     1     -12.610  13.614  71.327  1.00  0.00    -0.351 C  
HETATM    4  C   UNL     1     -12.732  14.372  69.995  1.00  0.00    -0.185 C  
HETATM    5  C   UNL     1     -11.683  15.468  69.861  1.00  0.00    -0.368 C  
HETATM    6  C   UNL     1     -11.574  15.502  72.402  1.00  0.00    -0.445 C  
HETATM    7  C   UNL     1     -11.635  16.341  71.110  1.00  0.00    -0.376 C  
ENDROOT
BRANCH   5   8
HETATM    8  C   UNL     1     -10.857  15.614  68.791  1.00  0.00    -0.262 A  
HETATM    9  C   UNL     1     -10.791  14.582  67.725  1.00  0.00    -0.267 A  
HETATM   10  C   UNL     1     -11.873  14.409  66.846  1.00  0.00    -0.433 A  
HETATM   11  C   UNL     1     -11.809  13.461  65.827  1.00  0.00    -0.412 A  
HETATM   12  C   UNL     1     -10.662  12.687  65.673  1.00  0.00    -0.297 A  
HETATM   13  C   UNL     1      -9.572  12.868  66.528  1.00  0.00    -0.259 A  
HETATM   14  C   UNL     1      -9.612  13.831  67.546  1.00  0.00    -0.219 A  
HETATM   15  C   UNL     1      -8.422  13.986  68.406  1.00  0.00    -0.166 A  
HETATM   16  C   UNL     1      -7.944  15.135  68.917  1.00  0.00    -0.178 A  
HETATM   17  C   UNL     1      -8.510  16.486  68.729  1.00  0.00    -0.248 A  
HETATM   18  C   UNL     1      -7.622  17.566  68.606  1.00  0.00    -0.273 A  
HETATM   19  C   UNL     1      -8.100  18.865  68.412  1.00  0.00    -0.376 A  
HETATM   20  C   UNL     1      -9.470  19.105  68.350  1.00  0.00    -0.425 A  
HETATM   21  C   UNL     1     -10.366  18.047  68.491  1.00  0.00    -0.359 A  
HETATM   22  C   UNL     1      -9.895  16.740  68.700  1.00  0.00    -0.261 A  
ENDBRANCH   5   8
TORSDOF 1
ENDMDL
MODEL       23
REMARK 921   NORMALIZED FREE ENERGY PREDICTED BY IDOCK:   -5.97 KCAL/MOL
REMARK 922        TOTAL FREE ENERGY PREDICTED BY IDOCK:   -7.16 KCAL/MOL
REMARK 923 INTER-LIGAND FREE ENERGY PREDICTED BY IDOCK:   -6.71 KCAL/MOL
REMARK 924 INTRA-LIGAND FREE ENERGY PREDICTED BY IDOCK:   -0.45 KCAL/MOL
REMARK 927      BINDING AFFINITY PREDICTED BY RF-SCORE:    0.00 PKD
ROOT
HETATM    1  C   UNL     1      -6.193   8.575  72.606  1.00  0.00    -0.083 C  
HETATM    2  N   UNL     1      -6.996   7.688  71.768  1.00  0.00    -0.061 NA 
HETATM    3  C   UNL     1      -8.292   7.364  72.389  1.00  0.00    -0.105 C  
HETATM    4  C   UNL     1      -9.291   8.531  72.435  1.00  0.00    -0.349 C  
HETATM    5  C   UNL     1      -9.510   9.152  71.061  1.00  0.00    -0.344 C  
HETATM    6  C   UNL     1      -7.219   8.250  70.425  1.00  0.00    -0.044 C  
HETATM    7  C   UNL     1      -8.184   9.451  70.373  1.00  0.00    -0.214 C  
ENDROOT
BRANCH   5   8
HETATM    8  C   UNL     1     -10.731   9.359  70.499  1.00  0.00    -0.335 A  
HETATM    9  C   UNL     1     -10.891  10.227  69.306  1.00  0.00    -0.275 A  
HETATM   10  C   UNL     1     -10.407   9.802  68.058  1.00  0.00    -0.250 A  
HETATM   11  C   UNL     1     -10.576  10.600  66.928  1.00  0.00    -0.311 A  
HETATM   12  C   UNL     1     -11.237  11.821  67.034  1.00  0.00    -0.382 A  
HETATM   13  C   UNL     1     -11.741  12.241  68.267  1.00  0.00    -0.392 A  
HETATM   14  C   UNL     1     -11.597  11.442  69.410  1.00  0.00    -0.391 A  
HETATM   15  C   UNL     1     -12.168  11.933  70.681  1.00  0.00    -0.424 A  
HETATM   16  C   UNL     1     -12.748  11.192  71.642  1.00  0.00    -0.466 A  
HETATM   17  C   UNL     1     -12.935   9.727  71.632  1.00  0.00    -0.517 A  
HETATM   18  C   UNL     1     -14.116   9.205  72.184  1.00  0.00    -0.416 A  
HETATM   19  C   UNL     1     -14.353   7.828  72.189  1.00  0.00    -0.376 A  
HETATM   20  C   UNL     1     -13.412   6.953  71.654  1.00  0.00    -0.284 A  
HETATM   21  C   UNL     1     -12.226   7.453  71.120  1.00  0.00    -0.357 A  
HETATM   22  C   UNL     1     -11.971   8.834  71.123  1.00  0.00    -0.331 A  
ENDBRANCH   5   8
TORSDOF 1
ENDMDL
MODEL       24
REMARK 921   NORMALIZED FREE ENERGY PREDICTED BY IDOCK:   -5.92 KCAL/MOL
REMARK 922        TOTAL FREE ENERGY PREDICTED BY IDOCK:   -7.11 KCAL/MOL
REMARK 923 INTER-LIGAND FREE ENERGY PREDICTED BY IDOCK:   -6.31 KCAL/MOL
REMARK 924 INTRA-LIGAND FREE ENERGY PREDICTED BY IDOCK:   -0.80 KCAL/MOL
REMARK 927      BINDING AFFINITY PREDICTED BY RF-SCORE:    0.00 PKD
ROOT
HETATM    1  C   UNL     1      -9.430   5.722  66.324  1.00  0.00    -0.148 C  
HETATM    2  N   UNL     1     -10.492   6.650  66.708  1.00  0.00    -0.242 NA 
HETATM    3  C   UNL     1     -11.137   6.259  67.973  1.00  0.00    -0.265 C  
HETATM    4  C   UNL     1     -10.264   6.447  69.224  1.00  0.00    -0.229 C  
HETATM    5  C   UNL     1      -9.718   7.865  69.332  1.00  0.00    -0.170 C  
HETATM    6  C   UNL     1     -10.004   8.036  66.811  1.00  0.00    -0.274 C  
HETATM    7  C   UNL     1      -9.089   8.316  68.019  1.00  0.00    -0.139 C  
ENDROOT
BRANCH   5   8
HETATM    8  C   UNL     1      -9.829   8.647  70.439  1.00  0.00    -0.207 A  
HETATM    9  C   UNL     1      -8.964   8.428  71.625  1.00  0.00    -0.261 A  
HETATM   10  C   UNL     1      -7.595   8.737  71.564  1.00  0.00    -0.130 A  
HETATM   11  C   UNL     1      -6.782   8.559  72.681  1.00  0.00    -0.077 A  
HETATM   12  C   UNL     1      -7.329   8.079  73.868  1.00  0.00    -0.196 A  
HETATM   13  C   UNL     1      -8.694   7.789  73.945  1.00  0.00    -0.322 A  
HETATM   14  C   UNL     1      -9.531   7.982  72.836  1.00  0.00    -0.346 A  
HETATM   15  C   UNL     1     -10.967   7.674  72.986  1.00  0.00    -0.457 A  
HETATM   16  C   UNL     1     -11.995   8.340  72.427  1.00  0.00    -0.447 A  
HETATM   17  C   UNL     1     -11.904   9.518  71.541  1.00  0.00    -0.478 A  
HETATM   18  C   UNL     1     -12.883  10.515  71.662  1.00  0.00    -0.581 A  
HETATM   19  C   UNL     1     -12.840  11.660  70.860  1.00  0.00    -0.264 A  
HETATM   20  C   UNL     1     -11.825  11.817  69.921  1.00  0.00    -0.423 A  
HETATM   21  C   UNL     1     -10.856  10.827  69.773  1.00  0.00    -0.284 A  
HETATM   22  C   UNL     1     -10.899   9.667  70.565  1.00  0.00    -0.371 A  
ENDBRANCH   5   8
TORSDOF 1
ENDMDL
MODEL       25
REMARK 921   NORMALIZED FREE ENERGY PREDICTED BY IDOCK:   -5.89 KCAL/MOL
REMARK 922        TOTAL FREE ENERGY PREDICTED BY IDOCK:   -7.08 KCAL/MOL
REMARK 923 INTER-LIGAND FREE ENERGY PREDICTED BY IDOCK:   -6.28 KCAL/MOL
REMARK 924 INTRA-LIGAND FREE ENERGY PREDICTED BY IDOCK:   -0.80 KCAL/MOL
REMARK 927      BINDING AFFINITY PREDICTED BY RF-SCORE:    0.00 PKD
ROOT
HETATM    1  C   UNL     1     -10.046  17.775  66.982  1.00  0.00    -0.337 C  
HETATM    2  N   UNL     1      -9.650  16.873  65.902  1.00  0.00    -0.512 NA 
HETATM    3  C   UNL     1      -8.601  15.930  66.327  1.00  0.00    -0.313 C  
HETATM    4  C   UNL     1      -9.072  14.847  67.311  1.00  0.00    -0.211 C  
HETATM    5  C   UNL     1     -10.280  14.083  66.786  1.00  0.00    -0.264 C  
HETATM    6  C   UNL     1     -10.797  16.124  65.360  1.00  0.00    -0.307 C  
HETATM    7  C   UNL     1     -11.363  15.035  66.291  1.00  0.00    -0.273 C  
ENDROOT
BRANCH   5   8
HETATM    8  C   UNL     1     -10.359  12.727  66.715  1.00  0.00    -0.248 A  
HETATM    9  C   UNL     1     -10.607  11.907  67.926  1.00  0.00    -0.229 A  
HETATM   10  C   UNL     1     -11.867  11.931  68.546  1.00  0.00    -0.357 A  
HETATM   11  C   UNL     1     -12.116  11.144  69.668  1.00  0.00    -0.406 A  
HETATM   12  C   UNL     1     -11.112  10.321  70.175  1.00  0.00    -0.385 A  
HETATM   13  C   UNL     1      -9.863  10.275  69.552  1.00  0.00    -0.244 A  
HETATM   14  C   UNL     1      -9.602  11.045  68.410  1.00  0.00    -0.181 A  
HETATM   15  C   UNL     1      -8.267  10.938  67.787  1.00  0.00    -0.116 A  
HETATM   16  C   UNL     1      -7.988  10.980  66.472  1.00  0.00    -0.158 A  
HETATM   17  C   UNL     1      -8.957  11.145  65.370  1.00  0.00    -0.154 A  
HETATM   18  C   UNL     1      -8.731  10.440  64.178  1.00  0.00    -0.205 A  
HETATM   19  C   UNL     1      -9.623  10.546  63.106  1.00  0.00    -0.375 A  
HETATM   20  C   UNL     1     -10.744  11.365  63.207  1.00  0.00    -0.332 A  
HETATM   21  C   UNL     1     -10.972  12.088  64.376  1.00  0.00    -0.385 A  
HETATM   22  C   UNL     1     -10.074  11.998  65.453  1.00  0.00    -0.285 A  
ENDBRANCH   5   8
TORSDOF 1
ENDMDL
MODEL       26
REMARK 921   NORMALIZED FREE ENERGY PREDICTED BY IDOCK:   -5.89 KCAL/MOL
REMARK 922        TOTAL FREE ENERGY PREDICTED BY IDOCK:   -7.07 KCAL/MOL
REMARK 923 INTER-LIGAND FREE ENERGY PREDICTED BY IDOCK:   -6.27 KCAL/MOL
REMARK 924 INTRA-LIGAND FREE ENERGY PREDICTED BY IDOCK:   -0.80 KCAL/MOL
REMARK 927      BINDING AFFINITY PREDICTED BY RF-SCORE:    0.00 PKD
ROOT
HETATM    1  C   UNL     1     -12.530  12.104  63.265  1.00  0.00    -0.411 C  
HETATM    2  N   UNL     1     -11.456  12.963  63.759  1.00  0.00    -0.443 NA 
HETATM    3  C   UNL     1     -11.917  13.864  64.828  1.00  0.00    -0.406 C  
HETATM    4  C   UNL     1     -12.228  13.169  66.164  1.00  0.00    -0.451 C  
HETATM    5  C   UNL     1     -11.058  12.328  66.657  1.00  0.00    -0.344 C  
HETATM    6  C   UNL     1     -10.300  12.184  64.234  1.00  0.00    -0.334 C  
HETATM    7  C   UNL     1     -10.527  11.421  65.554  1.00  0.00    -0.322 C  
ENDROOT
BRANCH   5   8
HETATM    8  C   UNL     1     -10.521  12.417  67.904  1.00  0.00    -0.227 A  
HETATM    9  C   UNL     1      -9.565  13.498  68.254  1.00  0.00    -0.218 A  
HETATM   10  C   UNL     1     -10.014  14.823  68.371  1.00  0.00    -0.223 A  
HETATM   11  C   UNL     1      -9.128  15.839  68.724  1.00  0.00    -0.213 A  
HETATM   12  C   UNL     1      -7.791  15.537  68.972  1.00  0.00    -0.201 A  
HETATM   13  C   UNL     1      -7.340  14.218  68.880  1.00  0.00    -0.126 A  
HETATM   14  C   UNL     1      -8.222  13.181  68.545  1.00  0.00    -0.076 A  
HETATM   15  C   UNL     1      -7.689  11.806  68.480  1.00  0.00    -0.137 A  
HETATM   16  C   UNL     1      -8.325  10.678  68.847  1.00  0.00    -0.150 A  
HETATM   17  C   UNL     1      -9.695  10.576  69.389  1.00  0.00    -0.188 A  
HETATM   18  C   UNL     1      -9.945   9.620  70.385  1.00  0.00    -0.330 A  
HETATM   19  C   UNL     1     -11.219   9.488  70.945  1.00  0.00    -0.411 A  
HETATM   20  C   UNL     1     -12.262  10.301  70.511  1.00  0.00    -0.390 A  
HETATM   21  C   UNL     1     -12.036  11.242  69.508  1.00  0.00    -0.421 A  
HETATM   22  C   UNL     1     -10.763  11.372  68.929  1.00  0.00    -0.248 A  
ENDBRANCH   5   8
TORSDOF 1
ENDMDL
MODEL       27
REMARK 921   NORMALIZED FREE ENERGY PREDICTED BY IDOCK:   -5.86 KCAL/MOL
REMARK 922        TOTAL FREE ENERGY PREDICTED BY IDOCK:   -7.05 KCAL/MOL
REMARK 923 INTER-LIGAND FREE ENERGY PREDICTED BY IDOCK:   -6.20 KCAL/MOL
REMARK 924 INTRA-LIGAND FREE ENERGY PREDICTED BY IDOCK:   -0.84 KCAL/MOL
REMARK 927      BINDING AFFINITY PREDICTED BY RF-SCORE:    0.00 PKD
ROOT
HETATM    1  C   UNL     1      -5.987  10.080  67.515  1.00  0.00    -0.054 C  
HETATM    2  N   UNL     1      -6.863  10.388  68.644  1.00  0.00    -0.057 NA 
HETATM    3  C   UNL     1      -7.102  11.835  68.779  1.00  0.00    -0.111 C  
HETATM    4  C   UNL     1      -7.991  12.444  67.682  1.00  0.00    -0.164 C  
HETATM    5  C   UNL     1      -9.316  11.705  67.545  1.00  0.00    -0.168 C  
HETATM    6  C   UNL     1      -8.152   9.681  68.552  1.00  0.00    -0.104 C  
HETATM    7  C   UNL     1      -9.102  10.199  67.454  1.00  0.00    -0.149 C  
ENDROOT
BRANCH   5   8
HETATM    8  C   UNL     1     -10.535  12.308  67.558  1.00  0.00    -0.230 A  
HETATM    9  C   UNL     1     -11.164  12.799  66.306  1.00  0.00    -0.339 A  
HETATM   10  C   UNL     1     -11.645  11.884  65.356  1.00  0.00    -0.284 A  
HETATM   11  C   UNL     1     -12.260  12.337  64.190  1.00  0.00    -0.539 A  
HETATM   12  C   UNL     1     -12.407  13.704  63.970  1.00  0.00    -0.382 A  
HETATM   13  C   UNL     1     -11.950  14.621  64.920  1.00  0.00    -0.402 A  
HETATM   14  C   UNL     1     -11.347  14.182  66.108  1.00  0.00    -0.337 A  
HETATM   15  C   UNL     1     -10.902  15.200  67.081  1.00  0.00    -0.320 A  
HETATM   16  C   UNL     1     -10.947  15.104  68.422  1.00  0.00    -0.271 A  
HETATM   17  C   UNL     1     -11.448  13.958  69.207  1.00  0.00    -0.348 A  
HETATM   18  C   UNL     1     -12.143  14.223  70.397  1.00  0.00    -0.409 A  
HETATM   19  C   UNL     1     -12.653  13.179  71.174  1.00  0.00    -0.403 A  
HETATM   20  C   UNL     1     -12.466  11.857  70.779  1.00  0.00    -0.384 A  
HETATM   21  C   UNL     1     -11.761  11.576  69.610  1.00  0.00    -0.419 A  
HETATM   22  C   UNL     1     -11.233  12.618  68.830  1.00  0.00    -0.329 A  
ENDBRANCH   5   8
TORSDOF 1
ENDMDL
MODEL       28
REMARK 921   NORMALIZED FREE ENERGY PREDICTED BY IDOCK:   -5.82 KCAL/MOL
REMARK 922        TOTAL FREE ENERGY PREDICTED BY IDOCK:   -7.01 KCAL/MOL
REMARK 923 INTER-LIGAND FREE ENERGY PREDICTED BY IDOCK:   -6.54 KCAL/MOL
REMARK 924 INTRA-LIGAND FREE ENERGY PREDICTED BY IDOCK:   -0.47 KCAL/MOL
REMARK 927      BINDING AFFINITY PREDICTED BY RF-SCORE:    0.00 PKD
ROOT
HETATM    1  C   UNL     1     -14.006  15.617  72.769  1.00  0.00    -0.482 C  
HETATM    2  N   UNL     1     -12.867  14.702  72.781  1.00  0.00    -0.420 NA 
HETATM    3  C   UNL     1     -13.075  13.549  71.889  1.00  0.00    -0.384 C  
HETATM    4  C   UNL     1     -13.031  13.881  70.389  1.00  0.00    -0.087 C  
HETATM    5  C   UNL     1     -11.754  14.616  70.003  1.00  0.00    -0.348 C  
HETATM    6  C   UNL     1     -11.609  15.381  72.424  1.00  0.00    -0.447 C  
HETATM    7  C   UNL     1     -11.486  15.786  70.942  1.00  0.00    -0.438 C  
ENDROOT
BRANCH   5   8
HETATM    8  C   UNL     1     -10.930  14.242  68.987  1.00  0.00    -0.282 A  
HETATM    9  C   UNL     1      -9.966  15.197  68.388  1.00  0.00    -0.222 A  
HETATM   10  C   UNL     1      -8.844  15.617  69.120  1.00  0.00    -0.251 A  
HETATM   11  C   UNL     1      -7.920  16.494  68.555  1.00  0.00    -0.216 A  
HETATM   12  C   UNL     1      -8.105  16.950  67.252  1.00  0.00    -0.207 A  
HETATM   13  C   UNL     1      -9.207  16.521  66.508  1.00  0.00    -0.300 A  
HETATM   14  C   UNL     1     -10.135  15.623  67.054  1.00  0.00    -0.253 A  
HETATM   15  C   UNL     1     -11.269  15.193  66.211  1.00  0.00    -0.273 A  
HETATM   16  C   UNL     1     -11.835  13.973  66.187  1.00  0.00    -0.422 A  
HETATM   17  C   UNL     1     -11.446  12.804  67.001  1.00  0.00    -0.397 A  
HETATM   18  C   UNL     1     -11.511  11.533  66.410  1.00  0.00    -0.150 A  
HETATM   19  C   UNL     1     -11.141  10.392  67.128  1.00  0.00    -0.195 A  
HETATM   20  C   UNL     1     -10.713  10.504  68.448  1.00  0.00    -0.262 A  
HETATM   21  C   UNL     1     -10.662  11.757  69.056  1.00  0.00    -0.209 A  
HETATM   22  C   UNL     1     -11.044  12.908  68.348  1.00  0.00    -0.293 A  
ENDBRANCH   5   8
TORSDOF 1
ENDMDL
MODEL       29
REMARK 921   NORMALIZED FREE ENERGY PREDICTED BY IDOCK:   -5.82 KCAL/MOL
REMARK 922        TOTAL FREE ENERGY PREDICTED BY IDOCK:   -7.00 KCAL/MOL
REMARK 923 INTER-LIGAND FREE ENERGY PREDICTED BY IDOCK:   -6.23 KCAL/MOL
REMARK 924 INTRA-LIGAND FREE ENERGY PREDICTED BY IDOCK:   -0.77 KCAL/MOL
REMARK 927      BINDING AFFINITY PREDICTED BY RF-SCORE:    0.00 PKD
ROOT
HETATM    1  C   UNL     1     -12.674  13.312  65.191  1.00  0.00    -0.402 C  
HETATM    2  N   UNL     1     -11.298  13.041  65.603  1.00  0.00    -0.294 NA 
HETATM    3  C   UNL     1     -10.330  13.896  64.895  1.00  0.00    -0.406 C  
HETATM    4  C   UNL     1     -10.360  15.377  65.307  1.00  0.00    -0.420 C  
HETATM    5  C   UNL     1     -10.211  15.555  66.813  1.00  0.00    -0.282 C  
HETATM    6  C   UNL     1     -11.118  13.191  67.058  1.00  0.00    -0.279 C  
HETATM    7  C   UNL     1     -11.167  14.643  67.574  1.00  0.00    -0.343 C  
ENDROOT
BRANCH   5   8
HETATM    8  C   UNL     1      -9.303  16.378  67.402  1.00  0.00    -0.223 A  
HETATM    9  C   UNL     1      -9.451  17.854  67.341  1.00  0.00    -0.258 A  
HETATM   10  C   UNL     1     -10.472  18.489  68.066  1.00  0.00    -0.395 A  
HETATM   11  C   UNL     1     -10.601  19.876  68.035  1.00  0.00    -0.406 A  
HETATM   12  C   UNL     1      -9.707  20.638  67.288  1.00  0.00    -0.562 A  
HETATM   13  C   UNL     1      -8.674  20.017  66.581  1.00  0.00    -0.397 A  
HETATM   14  C   UNL     1      -8.518  18.624  66.618  1.00  0.00    -0.301 A  
HETATM   15  C   UNL     1      -7.396  18.029  65.864  1.00  0.00    -0.248 A  
HETATM   16  C   UNL     1      -6.654  16.968  66.231  1.00  0.00    -0.104 A  
HETATM   17  C   UNL     1      -6.807  16.170  67.464  1.00  0.00    -0.194 A  
HETATM   18  C   UNL     1      -5.647  15.686  68.089  1.00  0.00    -0.126 A  
HETATM   19  C   UNL     1      -5.730  14.937  69.266  1.00  0.00    -0.097 A  
HETATM   20  C   UNL     1      -6.971  14.653  69.829  1.00  0.00    -0.130 A  
HETATM   21  C   UNL     1      -8.133  15.108  69.210  1.00  0.00    -0.217 A  
HETATM   22  C   UNL     1      -8.062  15.849  68.020  1.00  0.00    -0.144 A  
ENDBRANCH   5   8
TORSDOF 1
ENDMDL
MODEL       30
REMARK 921   NORMALIZED FREE ENERGY PREDICTED BY IDOCK:   -5.82 KCAL/MOL
REMARK 922        TOTAL FREE ENERGY PREDICTED BY IDOCK:   -7.00 KCAL/MOL
REMARK 923 INTER-LIGAND FREE ENERGY PREDICTED BY IDOCK:   -6.38 KCAL/MOL
REMARK 924 INTRA-LIGAND FREE ENERGY PREDICTED BY IDOCK:   -0.62 KCAL/MOL
REMARK 927      BINDING AFFINITY PREDICTED BY RF-SCORE:    0.00 PKD
ROOT
HETATM    1  C   UNL     1     -12.388   8.717  71.149  1.00  0.00    -0.213 C  
HETATM    2  N   UNL     1     -11.409   9.799  71.221  1.00  0.00    -0.380 NA 
HETATM    3  C   UNL     1     -10.126   9.426  70.601  1.00  0.00    -0.291 C  
HETATM    4  C   UNL     1     -10.164   9.311  69.068  1.00  0.00    -0.217 C  
HETATM    5  C   UNL     1     -10.715  10.571  68.413  1.00  0.00    -0.262 C  
HETATM    6  C   UNL     1     -11.912  11.040  70.608  1.00  0.00    -0.365 C  
HETATM    7  C   UNL     1     -12.019  11.010  69.070  1.00  0.00    -0.364 C  
ENDROOT
BRANCH   5   8
HETATM    8  C   UNL     1     -10.095  11.248  67.410  1.00  0.00    -0.214 A  
HETATM    9  C   UNL     1     -10.832  11.659  66.189  1.00  0.00    -0.343 A  
HETATM   10  C   UNL     1     -11.795  12.678  66.258  1.00  0.00    -0.471 A  
HETATM   11  C   UNL     1     -12.473  13.087  65.112  1.00  0.00    -0.552 A  
HETATM   12  C   UNL     1     -12.188  12.488  63.887  1.00  0.00    -0.590 A  
HETATM   13  C   UNL     1     -11.215  11.489  63.805  1.00  0.00    -0.456 A  
HETATM   14  C   UNL     1     -10.509  11.079  64.945  1.00  0.00    -0.371 A  
HETATM   15  C   UNL     1      -9.481  10.030  64.790  1.00  0.00    -0.366 A  
HETATM   16  C   UNL     1      -8.309   9.950  65.445  1.00  0.00    -0.150 A  
HETATM   17  C   UNL     1      -7.803  10.892  66.463  1.00  0.00    -0.152 A  
HETATM   18  C   UNL     1      -6.427  11.171  66.483  1.00  0.00    -0.129 A  
HETATM   19  C   UNL     1      -5.893  12.066  67.415  1.00  0.00    -0.125 A  
HETATM   20  C   UNL     1      -6.723  12.685  68.346  1.00  0.00    -0.082 A  
HETATM   21  C   UNL     1      -8.088  12.403  68.353  1.00  0.00    -0.143 A  
HETATM   22  C   UNL     1      -8.632  11.495  67.430  1.00  0.00    -0.145 A  
ENDBRANCH   5   8
TORSDOF 1
ENDMDL
MODEL       31
REMARK 921   NORMALIZED FREE ENERGY PREDICTED BY IDOCK:   -5.80 KCAL/MOL
REMARK 922        TOTAL FREE ENERGY PREDICTED BY IDOCK:   -6.98 KCAL/MOL
REMARK 923 INTER-LIGAND FREE ENERGY PREDICTED BY IDOCK:   -6.36 KCAL/MOL
REMARK 924 INTRA-LIGAND FREE ENERGY PREDICTED BY IDOCK:   -0.62 KCAL/MOL
REMARK 927      BINDING AFFINITY PREDICTED BY RF-SCORE:    0.00 PKD
ROOT
HETATM    1  C   UNL     1     -10.264  20.087  66.267  1.00  0.00    -0.478 C  
HETATM    2  N   UNL     1      -9.133  19.452  66.938  1.00  0.00    -0.306 NA 
HETATM    3  C   UNL     1      -9.321  19.387  68.398  1.00  0.00    -0.367 C  
HETATM    4  C   UNL     1     -10.396  18.392  68.863  1.00  0.00    -0.168 C  
HETATM    5  C   UNL     1     -10.162  16.994  68.303  1.00  0.00    -0.326 C  
HETATM    6  C   UNL     1      -8.867  18.101  66.415  1.00  0.00    -0.236 C  
HETATM    7  C   UNL     1      -9.913  17.036  66.800  1.00  0.00    -0.297 C  
ENDROOT
BRANCH   5   8
HETATM    8  C   UNL     1     -10.123  15.863  69.057  1.00  0.00    -0.228 A  
HETATM    9  C   UNL     1      -9.063  14.843  68.859  1.00  0.00    -0.191 A  
HETATM   10  C   UNL     1      -7.740  15.121  69.240  1.00  0.00    -0.204 A  
HETATM   11  C   UNL     1      -6.744  14.160  69.081  1.00  0.00    -0.118 A  
HETATM   12  C   UNL     1      -7.063  12.912  68.551  1.00  0.00    -0.102 A  
HETATM   13  C   UNL     1      -8.380  12.619  68.191  1.00  0.00    -0.175 A  
HETATM   14  C   UNL     1      -9.399  13.568  68.362  1.00  0.00    -0.171 A  
HETATM   15  C   UNL     1     -10.774  13.191  67.978  1.00  0.00    -0.248 A  
HETATM   16  C   UNL     1     -11.910  13.554  68.600  1.00  0.00    -0.404 A  
HETATM   17  C   UNL     1     -12.024  14.409  69.799  1.00  0.00    -0.385 A  
HETATM   18  C   UNL     1     -13.016  14.100  70.742  1.00  0.00    -0.337 A  
HETATM   19  C   UNL     1     -13.161  14.866  71.902  1.00  0.00    -0.441 A  
HETATM   20  C   UNL     1     -12.326  15.956  72.130  1.00  0.00    -0.557 A  
HETATM   21  C   UNL     1     -11.349  16.289  71.194  1.00  0.00    -0.297 A  
HETATM   22  C   UNL     1     -11.205  15.534  70.018  1.00  0.00    -0.325 A  
ENDBRANCH   5   8
TORSDOF 1
ENDMDL
MODEL       32
REMARK 921   NORMALIZED FREE ENERGY PREDICTED BY IDOCK:   -5.80 KCAL/MOL
REMARK 922        TOTAL FREE ENERGY PREDICTED BY IDOCK:   -6.98 KCAL/MOL
REMARK 923 INTER-LIGAND FREE ENERGY PREDICTED BY IDOCK:   -6.32 KCAL/MOL
REMARK 924 INTRA-LIGAND FREE ENERGY PREDICTED BY IDOCK:   -0.66 KCAL/MOL
REMARK 927      BINDING AFFINITY PREDICTED BY RF-SCORE:    0.00 PKD
ROOT
HETATM    1  C   UNL     1     -12.005  15.991  72.548  1.00  0.00    -0.545 C  
HETATM    2  N   UNL     1     -12.720  15.808  71.287  1.00  0.00    -0.470 NA 
HETATM    3  C   UNL     1     -11.864  16.084  70.121  1.00  0.00    -0.240 C  
HETATM    4  C   UNL     1     -10.767  15.036  69.868  1.00  0.00    -0.238 C  
HETATM    5  C   UNL     1     -11.334  13.625  69.777  1.00  0.00    -0.181 C  
HETATM    6  C   UNL     1     -13.294  14.456  71.169  1.00  0.00    -0.331 C  
HETATM    7  C   UNL     1     -12.267  13.329  70.947  1.00  0.00    -0.346 C  
ENDROOT
BRANCH   5   8
HETATM    8  C   UNL     1     -11.086  12.762  68.756  1.00  0.00    -0.303 A  
HETATM    9  C   UNL     1     -10.536  11.407  69.011  1.00  0.00    -0.224 A  
HETATM   10  C   UNL     1     -11.337  10.428  69.621  1.00  0.00    -0.333 A  
HETATM   11  C   UNL     1     -10.837   9.146  69.841  1.00  0.00    -0.242 A  
HETATM   12  C   UNL     1      -9.540   8.830  69.444  1.00  0.00    -0.163 A  
HETATM   13  C   UNL     1      -8.744   9.791  68.817  1.00  0.00    -0.128 A  
HETATM   14  C   UNL     1      -9.238  11.081  68.570  1.00  0.00    -0.177 A  
HETATM   15  C   UNL     1      -8.354  12.047  67.887  1.00  0.00    -0.155 A  
HETATM   16  C   UNL     1      -8.724  12.981  66.992  1.00  0.00    -0.195 A  
HETATM   17  C   UNL     1     -10.094  13.242  66.506  1.00  0.00    -0.275 A  
HETATM   18  C   UNL     1     -10.262  13.602  65.160  1.00  0.00    -0.349 A  
HETATM   19  C   UNL     1     -11.536  13.847  64.640  1.00  0.00    -0.398 A  
HETATM   20  C   UNL     1     -12.657  13.747  65.459  1.00  0.00    -0.551 A  
HETATM   21  C   UNL     1     -12.506  13.411  66.803  1.00  0.00    -0.162 A  
HETATM   22  C   UNL     1     -11.229  13.176  67.338  1.00  0.00    -0.319 A  
ENDBRANCH   5   8
TORSDOF 1
ENDMDL
MODEL       33
REMARK 921   NORMALIZED FREE ENERGY PREDICTED BY IDOCK:   -5.74 KCAL/MOL
REMARK 922        TOTAL FREE ENERGY PREDICTED BY IDOCK:   -6.92 KCAL/MOL
REMARK 923 INTER-LIGAND FREE ENERGY PREDICTED BY IDOCK:   -6.09 KCAL/MOL
REMARK 924 INTRA-LIGAND FREE ENERGY PREDICTED BY IDOCK:   -0.83 KCAL/MOL
REMARK 927      BINDING AFFINITY PREDICTED BY RF-SCORE:    0.00 PKD
ROOT
HETATM    1  C   UNL     1      -5.955   9.392  66.678  1.00  0.00    -0.060 C  
HETATM    2  N   UNL     1      -6.869   9.511  67.812  1.00  0.00    -0.078 NA 
HETATM    3  C   UNL     1      -7.066  10.912  68.219  1.00  0.00    -0.075 C  
HETATM    4  C   UNL     1      -7.884  11.760  67.230  1.00  0.00    -0.161 C  
HETATM    5  C   UNL     1      -9.226  11.117  66.901  1.00  0.00    -0.179 C  
HETATM    6  C   UNL     1      -8.176   8.889  67.534  1.00  0.00    -0.109 C  
HETATM    7  C   UNL     1      -9.058   9.650  66.525  1.00  0.00    -0.185 C  
ENDROOT
BRANCH   5   8
HETATM    8  C   UNL     1     -10.423  11.756  66.987  1.00  0.00    -0.252 A  
HETATM    9  C   UNL     1     -11.042  12.393  65.798  1.00  0.00    -0.351 A  
HETATM   10  C   UNL     1     -11.560  11.597  64.764  1.00  0.00    -0.170 A  
HETATM   11  C   UNL     1     -12.165  12.187  63.656  1.00  0.00    -0.663 A  
HETATM   12  C   UNL     1     -12.266  13.574  63.578  1.00  0.00    -0.410 A  
HETATM   13  C   UNL     1     -11.774  14.373  64.613  1.00  0.00    -0.438 A  
HETATM   14  C   UNL     1     -11.179  13.795  65.744  1.00  0.00    -0.300 A  
HETATM   15  C   UNL     1     -10.694  14.692  66.811  1.00  0.00    -0.301 A  
HETATM   16  C   UNL     1     -10.735  14.461  68.136  1.00  0.00    -0.239 A  
HETATM   17  C   UNL     1     -11.271  13.258  68.805  1.00  0.00    -0.317 A  
HETATM   18  C   UNL     1     -11.949  13.423  70.022  1.00  0.00    -0.407 A  
HETATM   19  C   UNL     1     -12.490  12.322  70.693  1.00  0.00    -0.323 A  
HETATM   20  C   UNL     1     -12.351  11.042  70.163  1.00  0.00    -0.389 A  
HETATM   21  C   UNL     1     -11.662  10.859  68.965  1.00  0.00    -0.391 A  
HETATM   22  C   UNL     1     -11.103  11.957  68.291  1.00  0.00    -0.289 A  
ENDBRANCH   5   8
TORSDOF 1
ENDMDL
MODEL       34
REMARK 921   NORMALIZED FREE ENERGY PREDICTED BY IDOCK:   -5.72 KCAL/MOL
REMARK 922        TOTAL FREE ENERGY PREDICTED BY IDOCK:   -6.90 KCAL/MOL
REMARK 923 INTER-LIGAND FREE ENERGY PREDICTED BY IDOCK:   -6.07 KCAL/MOL
REMARK 924 INTRA-LIGAND FREE ENERGY PREDICTED BY IDOCK:   -0.83 KCAL/MOL
REMARK 927      BINDING AFFINITY PREDICTED BY RF-SCORE:    0.00 PKD
ROOT
HETATM    1  C   UNL     1      -7.796   5.186  74.243  1.00  0.00    -0.096 C  
HETATM    2  N   UNL     1      -8.915   6.103  74.449  1.00  0.00    -0.136 NA 
HETATM    3  C   UNL     1      -8.655   7.431  73.868  1.00  0.00    -0.203 C  
HETATM    4  C   UNL     1      -8.662   7.471  72.331  1.00  0.00    -0.155 C  
HETATM    5  C   UNL     1      -9.944   6.887  71.749  1.00  0.00    -0.183 C  
HETATM    6  C   UNL     1     -10.176   5.566  73.909  1.00  0.00    -0.241 C  
HETATM    7  C   UNL     1     -10.265   5.533  72.371  1.00  0.00    -0.238 C  
ENDROOT
BRANCH   5   8
HETATM    8  C   UNL     1     -10.728   7.518  70.835  1.00  0.00    -0.244 A  
HETATM    9  C   UNL     1     -10.587   7.247  69.383  1.00  0.00    -0.238 A  
HETATM   10  C   UNL     1     -10.995   6.011  68.855  1.00  0.00    -0.395 A  
HETATM   11  C   UNL     1     -10.890   5.759  67.489  1.00  0.00    -0.268 A  
HETATM   12  C   UNL     1     -10.385   6.740  66.639  1.00  0.00    -0.219 A  
HETATM   13  C   UNL     1      -9.998   7.980  67.152  1.00  0.00    -0.303 A  
HETATM   14  C   UNL     1     -10.115   8.259  68.522  1.00  0.00    -0.217 A  
HETATM   15  C   UNL     1      -9.705   9.594  68.999  1.00  0.00    -0.169 A  
HETATM   16  C   UNL     1     -10.286  10.312  69.978  1.00  0.00    -0.255 A  
HETATM   17  C   UNL     1     -11.457   9.915  70.785  1.00  0.00    -0.433 A  
HETATM   18  C   UNL     1     -12.382  10.907  71.145  1.00  0.00    -0.479 A  
HETATM   19  C   UNL     1     -13.517  10.587  71.896  1.00  0.00    -0.358 A  
HETATM   20  C   UNL     1     -13.737   9.276  72.306  1.00  0.00    -0.527 A  
HETATM   21  C   UNL     1     -12.819   8.282  71.974  1.00  0.00    -0.369 A  
HETATM   22  C   UNL     1     -11.669   8.596  71.232  1.00  0.00    -0.341 A  
ENDBRANCH   5   8
TORSDOF 1
ENDMDL
MODEL       35
REMARK 921   NORMALIZED FREE ENERGY PREDICTED BY IDOCK:   -5.69 KCAL/MOL
REMARK 922        TOTAL FREE ENERGY PREDICTED BY IDOCK:   -6.87 KCAL/MOL
REMARK 923 INTER-LIGAND FREE ENERGY PREDICTED BY IDOCK:   -6.03 KCAL/MOL
REMARK 924 INTRA-LIGAND FREE ENERGY PREDICTED BY IDOCK:   -0.83 KCAL/MOL
REMARK 927      BINDING AFFINITY PREDICTED BY RF-SCORE:    0.00 PKD
ROOT
HETATM    1  C   UNL     1      -9.768   4.987  66.691  1.00  0.00    -0.177 C  
HETATM    2  N   UNL     1      -8.967   5.036  67.912  1.00  0.00    -0.106 NA 
HETATM    3  C   UNL     1      -8.149   6.259  67.988  1.00  0.00    -0.115 C  
HETATM    4  C   UNL     1      -8.946   7.550  68.234  1.00  0.00    -0.130 C  
HETATM    5  C   UNL     1      -9.842   7.444  69.462  1.00  0.00    -0.165 C  
HETATM    6  C   UNL     1      -9.800   4.924  69.123  1.00  0.00    -0.193 C  
HETATM    7  C   UNL     1     -10.664   6.161  69.436  1.00  0.00    -0.385 C  
ENDROOT
BRANCH   5   8
HETATM    8  C   UNL     1      -9.863   8.349  70.477  1.00  0.00    -0.204 A  
HETATM    9  C   UNL     1      -8.929   8.238  71.625  1.00  0.00    -0.235 A  
HETATM   10  C   UNL     1      -7.560   8.496  71.445  1.00  0.00    -0.124 A  
HETATM   11  C   UNL     1      -6.681   8.420  72.524  1.00  0.00    -0.104 A  
HETATM   12  C   UNL     1      -7.163   8.094  73.789  1.00  0.00    -0.186 A  
HETATM   13  C   UNL     1      -8.526   7.858  73.981  1.00  0.00    -0.321 A  
HETATM   14  C   UNL     1      -9.428   7.950  72.911  1.00  0.00    -0.321 A  
HETATM   15  C   UNL     1     -10.859   7.706  73.183  1.00  0.00    -0.440 A  
HETATM   16  C   UNL     1     -11.903   8.335  72.615  1.00  0.00    -0.382 A  
HETATM   17  C   UNL     1     -11.841   9.402  71.596  1.00  0.00    -0.464 A  
HETATM   18  C   UNL     1     -12.787  10.437  71.661  1.00  0.00    -0.579 A  
HETATM   19  C   UNL     1     -12.768  11.482  70.732  1.00  0.00    -0.318 A  
HETATM   20  C   UNL     1     -11.812  11.501  69.721  1.00  0.00    -0.429 A  
HETATM   21  C   UNL     1     -10.879  10.471  69.629  1.00  0.00    -0.320 A  
HETATM   22  C   UNL     1     -10.898   9.410  70.549  1.00  0.00    -0.336 A  
ENDBRANCH   5   8
TORSDOF 1
ENDMDL
MODEL       36
REMARK 921   NORMALIZED FREE ENERGY PREDICTED BY IDOCK:   -5.69 KCAL/MOL
REMARK 922        TOTAL FREE ENERGY PREDICTED BY IDOCK:   -6.86 KCAL/MOL
REMARK 923 INTER-LIGAND FREE ENERGY PREDICTED BY IDOCK:   -6.02 KCAL/MOL
REMARK 924 INTRA-LIGAND FREE ENERGY PREDICTED BY IDOCK:   -0.84 KCAL/MOL
REMARK 927      BINDING AFFINITY PREDICTED BY RF-SCORE:    0.00 PKD
ROOT
HETATM    1  C   UNL     1     -10.384   9.460  70.991  1.00  0.00    -0.312 C  
HETATM    2  N   UNL     1     -10.978   9.426  69.656  1.00  0.00    -0.227 NA 
HETATM    3  C   UNL     1     -11.817  10.608  69.394  1.00  0.00    -0.253 C  
HETATM    4  C   UNL     1     -11.038  11.922  69.218  1.00  0.00    -0.264 C  
HETATM    5  C   UNL     1      -9.952  11.805  68.155  1.00  0.00    -0.196 C  
HETATM    6  C   UNL     1      -9.957   9.301  68.601  1.00  0.00    -0.178 C  
HETATM    7  C   UNL     1      -9.099  10.560  68.373  1.00  0.00    -0.148 C  
ENDROOT
BRANCH   5   8
HETATM    8  C   UNL     1      -9.800  12.668  67.116  1.00  0.00    -0.212 A  
HETATM    9  C   UNL     1      -8.998  13.908  67.257  1.00  0.00    -0.225 A  
HETATM   10  C   UNL     1      -7.600  13.832  67.376  1.00  0.00    -0.153 A  
HETATM   11  C   UNL     1      -6.837  14.993  67.483  1.00  0.00    -0.197 A  
HETATM   12  C   UNL     1      -7.462  16.237  67.464  1.00  0.00    -0.172 A  
HETATM   13  C   UNL     1      -8.849  16.324  67.324  1.00  0.00    -0.204 A  
HETATM   14  C   UNL     1      -9.631  15.166  67.195  1.00  0.00    -0.224 A  
HETATM   15  C   UNL     1     -11.090  15.325  67.033  1.00  0.00    -0.305 A  
HETATM   16  C   UNL     1     -11.901  14.568  66.271  1.00  0.00    -0.354 A  
HETATM   17  C   UNL     1     -11.505  13.415  65.438  1.00  0.00    -0.322 A  
HETATM   18  C   UNL     1     -12.154  13.232  64.207  1.00  0.00    -0.475 A  
HETATM   19  C   UNL     1     -11.811  12.166  63.370  1.00  0.00    -0.553 A  
HETATM   20  C   UNL     1     -10.823  11.264  63.756  1.00  0.00    -0.424 A  
HETATM   21  C   UNL     1     -10.182  11.420  64.983  1.00  0.00    -0.333 A  
HETATM   22  C   UNL     1     -10.530  12.479  65.838  1.00  0.00    -0.289 A  
ENDBRANCH   5   8
TORSDOF 1
ENDMDL
MODEL       37
REMARK 921   NORMALIZED FREE ENERGY PREDICTED BY IDOCK:   -5.64 KCAL/MOL
REMARK 922        TOTAL FREE ENERGY PREDICTED BY IDOCK:   -6.81 KCAL/MOL
REMARK 923 INTER-LIGAND FREE ENERGY PREDICTED BY IDOCK:   -5.98 KCAL/MOL
REMARK 924 INTRA-LIGAND FREE ENERGY PREDICTED BY IDOCK:   -0.83 KCAL/MOL
REMARK 927      BINDING AFFINITY PREDICTED BY RF-SCORE:    0.00 PKD
ROOT
HETATM    1  C   UNL     1     -11.728  15.363  72.376  1.00  0.00    -0.466 C  
HETATM    2  N   UNL     1     -12.185  15.836  71.071  1.00  0.00    -0.407 NA 
HETATM    3  C   UNL     1     -11.095  16.446  70.292  1.00  0.00    -0.256 C  
HETATM    4  C   UNL     1     -10.043  15.452  69.772  1.00  0.00    -0.266 C  
HETATM    5  C   UNL     1     -10.675  14.311  68.984  1.00  0.00    -0.259 C  
HETATM    6  C   UNL     1     -12.814  14.761  70.284  1.00  0.00    -0.217 C  
HETATM    7  C   UNL     1     -11.841  13.693  69.747  1.00  0.00    -0.392 C  
ENDROOT
BRANCH   5   8
HETATM    8  C   UNL     1     -10.284  13.931  67.738  1.00  0.00    -0.237 A  
HETATM    9  C   UNL     1     -10.812  14.608  66.527  1.00  0.00    -0.315 A  
HETATM   10  C   UNL     1     -10.421  15.924  66.230  1.00  0.00    -0.324 A  
HETATM   11  C   UNL     1     -10.892  16.557  65.082  1.00  0.00    -0.247 A  
HETATM   12  C   UNL     1     -11.748  15.878  64.218  1.00  0.00    -0.132 A  
HETATM   13  C   UNL     1     -12.125  14.562  64.494  1.00  0.00    -0.501 A  
HETATM   14  C   UNL     1     -11.644  13.903  65.635  1.00  0.00    -0.338 A  
HETATM   15  C   UNL     1     -12.065  12.506  65.861  1.00  0.00    -0.420 A  
HETATM   16  C   UNL     1     -11.318  11.516  66.385  1.00  0.00    -0.246 A  
HETATM   17  C   UNL     1      -9.920  11.618  66.848  1.00  0.00    -0.225 A  
HETATM   18  C   UNL     1      -9.067  10.525  66.627  1.00  0.00    -0.172 A  
HETATM   19  C   UNL     1      -7.730  10.571  67.031  1.00  0.00    -0.110 A  
HETATM   20  C   UNL     1      -7.229  11.702  67.669  1.00  0.00    -0.107 A  
HETATM   21  C   UNL     1      -8.068  12.788  67.914  1.00  0.00    -0.159 A  
HETATM   22  C   UNL     1      -9.416  12.747  67.524  1.00  0.00    -0.187 A  
ENDBRANCH   5   8
TORSDOF 1
ENDMDL
MODEL       38
REMARK 921   NORMALIZED FREE ENERGY PREDICTED BY IDOCK:   -5.61 KCAL/MOL
REMARK 922        TOTAL FREE ENERGY PREDICTED BY IDOCK:   -6.78 KCAL/MOL
REMARK 923 INTER-LIGAND FREE ENERGY PREDICTED BY IDOCK:   -6.04 KCAL/MOL
REMARK 924 INTRA-LIGAND FREE ENERGY PREDICTED BY IDOCK:   -0.74 KCAL/MOL
REMARK 927      BINDING AFFINITY PREDICTED BY RF-SCORE:    0.00 PKD
ROOT
HETATM    1  C   UNL     1      -9.685  11.231  62.887  1.00  0.00    -0.323 C  
HETATM    2  N   UNL     1     -10.573  10.844  63.981  1.00  0.00    -0.333 NA 
HETATM    3  C   UNL     1      -9.837  10.231  65.099  1.00  0.00    -0.321 C  
HETATM    4  C   UNL     1      -8.963  11.206  65.905  1.00  0.00    -0.210 C  
HETATM    5  C   UNL     1      -9.756  12.410  66.398  1.00  0.00    -0.246 C  
HETATM    6  C   UNL     1     -11.366  11.982  64.476  1.00  0.00    -0.330 C  
HETATM    7  C   UNL     1     -10.569  13.035  65.270  1.00  0.00    -0.320 C  
ENDROOT
BRANCH   5   8
HETATM    8  C   UNL     1      -9.780  12.837  67.689  1.00  0.00    -0.205 A  
HETATM    9  C   UNL     1     -10.449  12.042  68.749  1.00  0.00    -0.207 A  
HETATM   10  C   UNL     1      -9.887  10.828  69.178  1.00  0.00    -0.194 A  
HETATM   11  C   UNL     1     -10.495  10.089  70.191  1.00  0.00    -0.338 A  
HETATM   12  C   UNL     1     -11.661  10.561  70.788  1.00  0.00    -0.454 A  
HETATM   13  C   UNL     1     -12.214  11.778  70.384  1.00  0.00    -0.416 A  
HETATM   14  C   UNL     1     -11.605  12.544  69.380  1.00  0.00    -0.368 A  
HETATM   15  C   UNL     1     -12.229  13.830  69.009  1.00  0.00    -0.259 A  
HETATM   16  C   UNL     1     -11.591  14.961  68.658  1.00  0.00    -0.342 A  
HETATM   17  C   UNL     1     -10.130  15.157  68.566  1.00  0.00    -0.228 A  
HETATM   18  C   UNL     1      -9.602  16.397  68.959  1.00  0.00    -0.264 A  
HETATM   19  C   UNL     1      -8.225  16.634  68.906  1.00  0.00    -0.231 A  
HETATM   20  C   UNL     1      -7.360  15.642  68.452  1.00  0.00    -0.116 A  
HETATM   21  C   UNL     1      -7.871  14.413  68.040  1.00  0.00    -0.141 A  
HETATM   22  C   UNL     1      -9.254  14.170  68.075  1.00  0.00    -0.195 A  
ENDBRANCH   5   8
TORSDOF 1
ENDMDL
MODEL       39
REMARK 921   NORMALIZED FREE ENERGY PREDICTED BY IDOCK:   -5.57 KCAL/MOL
REMARK 922        TOTAL FREE ENERGY PREDICTED BY IDOCK:   -6.73 KCAL/MOL
REMARK 923 INTER-LIGAND FREE ENERGY PREDICTED BY IDOCK:   -6.02 KCAL/MOL
REMARK 924 INTRA-LIGAND FREE ENERGY PREDICTED BY IDOCK:   -0.71 KCAL/MOL
REMARK 927      BINDING AFFINITY PREDICTED BY RF-SCORE:    0.00 PKD
ROOT
HETATM    1  C   UNL     1     -12.400  12.350  63.530  1.00  0.00    -0.546 C  
HETATM    2  N   UNL     1     -11.179  12.907  64.109  1.00  0.00    -0.366 NA 
HETATM    3  C   UNL     1     -11.447  13.652  65.351  1.00  0.00    -0.311 C  
HETATM    4  C   UNL     1     -11.840  12.778  66.552  1.00  0.00    -0.471 C  
HETATM    5  C   UNL     1     -10.823  11.674  66.814  1.00  0.00    -0.322 C  
HETATM    6  C   UNL     1     -10.166  11.869  64.365  1.00  0.00    -0.297 C  
HETATM    7  C   UNL     1     -10.488  10.918  65.533  1.00  0.00    -0.286 C  
ENDROOT
BRANCH   5   8
HETATM    8  C   UNL     1     -10.246  11.433  68.021  1.00  0.00    -0.201 A  
HETATM    9  C   UNL     1      -8.774  11.501  68.198  1.00  0.00    -0.157 A  
HETATM   10  C   UNL     1      -8.118  12.742  68.151  1.00  0.00    -0.158 A  
HETATM   11  C   UNL     1      -6.739  12.817  68.342  1.00  0.00    -0.087 A  
HETATM   12  C   UNL     1      -6.009  11.657  68.589  1.00  0.00    -0.050 A  
HETATM   13  C   UNL     1      -6.657  10.422  68.660  1.00  0.00    -0.052 A  
HETATM   14  C   UNL     1      -8.046  10.330  68.490  1.00  0.00    -0.109 A  
HETATM   15  C   UNL     1      -8.675   8.998  68.593  1.00  0.00    -0.133 A  
HETATM   16  C   UNL     1      -9.879   8.715  69.124  1.00  0.00    -0.185 A  
HETATM   17  C   UNL     1     -10.830   9.679  69.713  1.00  0.00    -0.274 A  
HETATM   18  C   UNL     1     -11.572   9.277  70.834  1.00  0.00    -0.364 A  
HETATM   19  C   UNL     1     -12.477  10.152  71.442  1.00  0.00    -0.524 A  
HETATM   20  C   UNL     1     -12.660  11.435  70.934  1.00  0.00    -0.453 A  
HETATM   21  C   UNL     1     -11.945  11.843  69.809  1.00  0.00    -0.377 A  
HETATM   22  C   UNL     1     -11.044  10.967  69.183  1.00  0.00    -0.301 A  
ENDBRANCH   5   8
TORSDOF 1
ENDMDL
MODEL       40
REMARK 921   NORMALIZED FREE ENERGY PREDICTED BY IDOCK:   -5.55 KCAL/MOL
REMARK 922        TOTAL FREE ENERGY PREDICTED BY IDOCK:   -6.71 KCAL/MOL
REMARK 923 INTER-LIGAND FREE ENERGY PREDICTED BY IDOCK:   -6.09 KCAL/MOL
REMARK 924 INTRA-LIGAND FREE ENERGY PREDICTED BY IDOCK:   -0.62 KCAL/MOL
REMARK 927      BINDING AFFINITY PREDICTED BY RF-SCORE:    0.00 PKD
ROOT
HETATM    1  C   UNL     1     -13.960  14.666  71.890  1.00  0.00    -0.481 C  
HETATM    2  N   UNL     1     -12.610  14.107  71.854  1.00  0.00    -0.313 NA 
HETATM    3  C   UNL     1     -12.365  13.332  70.626  1.00  0.00    -0.339 C  
HETATM    4  C   UNL     1     -12.251  14.177  69.346  1.00  0.00    -0.329 C  
HETATM    5  C   UNL     1     -11.213  15.284  69.482  1.00  0.00    -0.289 C  
HETATM    6  C   UNL     1     -11.578  15.149  71.996  1.00  0.00    -0.412 C  
HETATM    7  C   UNL     1     -11.412  16.071  70.772  1.00  0.00    -0.444 C  
ENDROOT
BRANCH   5   8
HETATM    8  C   UNL     1     -10.206  15.504  68.596  1.00  0.00    -0.216 A  
HETATM    9  C   UNL     1      -9.296  14.408  68.178  1.00  0.00    -0.203 A  
HETATM   10  C   UNL     1      -9.772  13.374  67.356  1.00  0.00    -0.221 A  
HETATM   11  C   UNL     1      -8.917  12.356  66.939  1.00  0.00    -0.212 A  
HETATM   12  C   UNL     1      -7.581  12.368  67.331  1.00  0.00    -0.160 A  
HETATM   13  C   UNL     1      -7.094  13.405  68.131  1.00  0.00    -0.116 A  
HETATM   14  C   UNL     1      -7.935  14.448  68.544  1.00  0.00    -0.144 A  
HETATM   15  C   UNL     1      -7.357  15.524  69.373  1.00  0.00    -0.215 A  
HETATM   16  C   UNL     1      -7.669  16.832  69.326  1.00  0.00    -0.076 A  
HETATM   17  C   UNL     1      -8.660  17.469  68.437  1.00  0.00    -0.275 A  
HETATM   18  C   UNL     1      -8.371  18.745  67.929  1.00  0.00    -0.300 A  
HETATM   19  C   UNL     1      -9.266  19.391  67.071  1.00  0.00    -0.378 A  
HETATM   20  C   UNL     1     -10.465  18.778  66.718  1.00  0.00    -0.478 A  
HETATM   21  C   UNL     1     -10.776  17.519  67.230  1.00  0.00    -0.222 A  
HETATM   22  C   UNL     1      -9.890  16.868  68.104  1.00  0.00    -0.264 A  
ENDBRANCH   5   8
TORSDOF 1
ENDMDL
MODEL       41
REMARK 921   NORMALIZED FREE ENERGY PREDICTED BY IDOCK:   -5.44 KCAL/MOL
REMARK 922        TOTAL FREE ENERGY PREDICTED BY IDOCK:   -6.60 KCAL/MOL
REMARK 923 INTER-LIGAND FREE ENERGY PREDICTED BY IDOCK:   -5.76 KCAL/MOL
REMARK 924 INTRA-LIGAND FREE ENERGY PREDICTED BY IDOCK:   -0.84 KCAL/MOL
REMARK 927      BINDING AFFINITY PREDICTED BY RF-SCORE:    0.00 PKD
ROOT
HETATM    1  C   UNL     1     -10.222  10.697  64.984  1.00  0.00    -0.310 C  
HETATM    2  N   UNL     1      -9.131  10.158  65.793  1.00  0.00    -0.163 NA 
HETATM    3  C   UNL     1      -8.866  10.984  66.984  1.00  0.00    -0.143 C  
HETATM    4  C   UNL     1      -9.954  10.915  68.068  1.00  0.00    -0.188 C  
HETATM    5  C   UNL     1     -10.257   9.481  68.484  1.00  0.00    -0.223 C  
HETATM    6  C   UNL     1      -9.383   8.766  66.205  1.00  0.00    -0.234 C  
HETATM    7  C   UNL     1     -10.485   8.591  67.268  1.00  0.00    -0.366 C  
ENDROOT
BRANCH   5   8
HETATM    8  C   UNL     1     -10.266   9.041  69.770  1.00  0.00    -0.214 A  
HETATM    9  C   UNL     1      -9.074   8.389  70.369  1.00  0.00    -0.155 A  
HETATM   10  C   UNL     1      -7.927   9.148  70.654  1.00  0.00    -0.177 A  
HETATM   11  C   UNL     1      -6.813   8.549  71.239  1.00  0.00    -0.068 A  
HETATM   12  C   UNL     1      -6.840   7.192  71.552  1.00  0.00    -0.056 A  
HETATM   13  C   UNL     1      -7.985   6.435  71.292  1.00  0.00    -0.112 A  
HETATM   14  C   UNL     1      -9.121   7.026  70.722  1.00  0.00    -0.154 A  
HETATM   15  C   UNL     1     -10.306   6.176  70.488  1.00  0.00    -0.270 A  
HETATM   16  C   UNL     1     -11.595   6.540  70.616  1.00  0.00    -0.442 A  
HETATM   17  C   UNL     1     -12.099   7.870  71.013  1.00  0.00    -0.246 A  
HETATM   18  C   UNL     1     -13.246   7.930  71.820  1.00  0.00    -0.360 A  
HETATM   19  C   UNL     1     -13.760   9.161  72.239  1.00  0.00    -0.548 A  
HETATM   20  C   UNL     1     -13.144  10.346  71.849  1.00  0.00    -0.563 A  
HETATM   21  C   UNL     1     -12.016  10.305  71.031  1.00  0.00    -0.483 A  
HETATM   22  C   UNL     1     -11.500   9.074  70.593  1.00  0.00    -0.291 A  
ENDBRANCH   5   8
TORSDOF 1
ENDMDL
MODEL       42
REMARK 921   NORMALIZED FREE ENERGY PREDICTED BY IDOCK:   -5.43 KCAL/MOL
REMARK 922        TOTAL FREE ENERGY PREDICTED BY IDOCK:   -6.59 KCAL/MOL
REMARK 923 INTER-LIGAND FREE ENERGY PREDICTED BY IDOCK:   -5.94 KCAL/MOL
REMARK 924 INTRA-LIGAND FREE ENERGY PREDICTED BY IDOCK:   -0.65 KCAL/MOL
REMARK 927      BINDING AFFINITY PREDICTED BY RF-SCORE:    0.00 PKD
ROOT
HETATM    1  C   UNL     1      -6.441  10.724  69.343  1.00  0.00    -0.076 C  
HETATM    2  N   UNL     1      -6.818  10.580  67.939  1.00  0.00    -0.069 NA 
HETATM    3  C   UNL     1      -8.270  10.399  67.771  1.00  0.00    -0.110 C  
HETATM    4  C   UNL     1      -9.110  11.653  68.062  1.00  0.00    -0.177 C  
HETATM    5  C   UNL     1      -8.637  12.857  67.257  1.00  0.00    -0.205 C  
HETATM    6  C   UNL     1      -6.365  11.722  67.125  1.00  0.00    -0.145 C  
HETATM    7  C   UNL     1      -7.128  13.038  67.371  1.00  0.00    -0.124 C  
ENDROOT
BRANCH   5   8
HETATM    8  C   UNL     1      -9.449  13.635  66.492  1.00  0.00    -0.270 A  
HETATM    9  C   UNL     1      -9.498  15.107  66.674  1.00  0.00    -0.285 A  
HETATM   10  C   UNL     1      -8.404  15.900  66.290  1.00  0.00    -0.235 A  
HETATM   11  C   UNL     1      -8.452  17.285  66.433  1.00  0.00    -0.304 A  
HETATM   12  C   UNL     1      -9.595  17.889  66.952  1.00  0.00    -0.300 A  
HETATM   13  C   UNL     1     -10.696  17.110  67.316  1.00  0.00    -0.208 A  
HETATM   14  C   UNL     1     -10.672  15.717  67.160  1.00  0.00    -0.314 A  
HETATM   15  C   UNL     1     -11.874  14.951  67.546  1.00  0.00    -0.256 A  
HETATM   16  C   UNL     1     -12.362  13.857  66.933  1.00  0.00    -0.331 A  
HETATM   17  C   UNL     1     -11.798  13.188  65.744  1.00  0.00    -0.442 A  
HETATM   18  C   UNL     1     -12.687  12.648  64.802  1.00  0.00    -0.460 A  
HETATM   19  C   UNL     1     -12.210  12.015  63.651  1.00  0.00    -0.642 A  
HETATM   20  C   UNL     1     -10.840  11.904  63.430  1.00  0.00    -0.469 A  
HETATM   21  C   UNL     1      -9.943  12.416  64.365  1.00  0.00    -0.220 A  
HETATM   22  C   UNL     1     -10.413  13.041  65.532  1.00  0.00    -0.297 A  
ENDBRANCH   5   8
TORSDOF 1
ENDMDL
MODEL       43
REMARK 921   NORMALIZED FREE ENERGY PREDICTED BY IDOCK:   -5.40 KCAL/MOL
REMARK 922        TOTAL FREE ENERGY PREDICTED BY IDOCK:   -6.56 KCAL/MOL
REMARK 923 INTER-LIGAND FREE ENERGY PREDICTED BY IDOCK:   -5.72 KCAL/MOL
REMARK 924 INTRA-LIGAND FREE ENERGY PREDICTED BY IDOCK:   -0.84 KCAL/MOL
REMARK 927      BINDING AFFINITY PREDICTED BY RF-SCORE:    0.00 PKD
ROOT
HETATM    1  C   UNL     1     -12.998   9.579  71.283  1.00  0.00    -0.328 C  
HETATM    2  N   UNL     1     -11.819  10.438  71.369  1.00  0.00    -0.293 NA 
HETATM    3  C   UNL     1     -10.717   9.949  70.524  1.00  0.00    -0.317 C  
HETATM    4  C   UNL     1     -10.950  10.103  69.012  1.00  0.00    -0.265 C  
HETATM    5  C   UNL     1     -11.306  11.535  68.631  1.00  0.00    -0.330 C  
HETATM    6  C   UNL     1     -12.127  11.835  71.019  1.00  0.00    -0.058 C  
HETATM    7  C   UNL     1     -12.411  12.085  69.525  1.00  0.00    -0.056 C  
ENDROOT
BRANCH   5   8
HETATM    8  C   UNL     1     -10.679  12.248  67.658  1.00  0.00    -0.250 A  
HETATM    9  C   UNL     1     -11.124  12.175  66.244  1.00  0.00    -0.353 A  
HETATM   10  C   UNL     1     -12.344  12.755  65.860  1.00  0.00    -0.319 A  
HETATM   11  C   UNL     1     -12.756  12.713  64.530  1.00  0.00    -0.439 A  
HETATM   12  C   UNL     1     -11.951  12.100  63.573  1.00  0.00    -0.619 A  
HETATM   13  C   UNL     1     -10.725  11.540  63.942  1.00  0.00    -0.458 A  
HETATM   14  C   UNL     1     -10.286  11.591  65.272  1.00  0.00    -0.315 A  
HETATM   15  C   UNL     1      -8.973  10.996  65.596  1.00  0.00    -0.212 A  
HETATM   16  C   UNL     1      -8.081  11.457  66.491  1.00  0.00    -0.141 A  
HETATM   17  C   UNL     1      -8.226  12.653  67.345  1.00  0.00    -0.184 A  
HETATM   18  C   UNL     1      -7.085  13.429  67.598  1.00  0.00    -0.168 A  
HETATM   19  C   UNL     1      -7.165  14.580  68.388  1.00  0.00    -0.116 A  
HETATM   20  C   UNL     1      -8.382  14.965  68.943  1.00  0.00    -0.178 A  
HETATM   21  C   UNL     1      -9.521  14.194  68.718  1.00  0.00    -0.102 A  
HETATM   22  C   UNL     1      -9.448  13.028  67.938  1.00  0.00    -0.219 A  
ENDBRANCH   5   8
TORSDOF 1
ENDMDL
MODEL       44
REMARK 921   NORMALIZED FREE ENERGY PREDICTED BY IDOCK:   -5.37 KCAL/MOL
REMARK 922        TOTAL FREE ENERGY PREDICTED BY IDOCK:   -6.53 KCAL/MOL
REMARK 923 INTER-LIGAND FREE ENERGY PREDICTED BY IDOCK:   -5.71 KCAL/MOL
REMARK 924 INTRA-LIGAND FREE ENERGY PREDICTED BY IDOCK:   -0.82 KCAL/MOL
REMARK 927      BINDING AFFINITY PREDICTED BY RF-SCORE:    0.00 PKD
ROOT
HETATM    1  C   UNL     1      -5.464  10.876  70.952  1.00  0.00    -0.108 C  
HETATM    2  N   UNL     1      -5.849   9.750  70.103  1.00  0.00    -0.043 NA 
HETATM    3  C   UNL     1      -6.496   8.674  70.872  1.00  0.00    -0.047 C  
HETATM    4  C   UNL     1      -7.906   9.011  71.386  1.00  0.00    -0.088 C  
HETATM    5  C   UNL     1      -8.826   9.480  70.265  1.00  0.00    -0.281 C  
HETATM    6  C   UNL     1      -6.730  10.168  68.999  1.00  0.00    -0.054 C  
HETATM    7  C   UNL     1      -8.160  10.560  69.420  1.00  0.00    -0.136 C  
ENDROOT
BRANCH   5   8
HETATM    8  C   UNL     1     -10.058   8.961  70.018  1.00  0.00    -0.207 A  
HETATM    9  C   UNL     1     -11.240   9.373  70.816  1.00  0.00    -0.367 A  
HETATM   10  C   UNL     1     -11.772  10.664  70.670  1.00  0.00    -0.454 A  
HETATM   11  C   UNL     1     -12.897  11.050  71.396  1.00  0.00    -0.548 A  
HETATM   12  C   UNL     1     -13.503  10.147  72.266  1.00  0.00    -0.291 A  
HETATM   13  C   UNL     1     -12.994   8.853  72.401  1.00  0.00    -0.467 A  
HETATM   14  C   UNL     1     -11.875   8.442  71.663  1.00  0.00    -0.357 A  
HETATM   15  C   UNL     1     -11.395   7.056  71.837  1.00  0.00    -0.291 A  
HETATM   16  C   UNL     1     -10.880   6.258  70.884  1.00  0.00    -0.329 A  
HETATM   17  C   UNL     1     -10.682   6.600  69.461  1.00  0.00    -0.305 A  
HETATM   18  C   UNL     1     -10.898   5.598  68.502  1.00  0.00    -0.173 A  
HETATM   19  C   UNL     1     -10.739   5.867  67.140  1.00  0.00    -0.387 A  
HETATM   20  C   UNL     1     -10.352   7.136  66.718  1.00  0.00    -0.297 A  
HETATM   21  C   UNL     1     -10.114   8.137  67.658  1.00  0.00    -0.267 A  
HETATM   22  C   UNL     1     -10.258   7.872  69.030  1.00  0.00    -0.216 A  
ENDBRANCH   5   8
TORSDOF 1
ENDMDL
MODEL       45
REMARK 921   NORMALIZED FREE ENERGY PREDICTED BY IDOCK:   -5.36 KCAL/MOL
REMARK 922        TOTAL FREE ENERGY PREDICTED BY IDOCK:   -6.52 KCAL/MOL
REMARK 923 INTER-LIGAND FREE ENERGY PREDICTED BY IDOCK:   -6.02 KCAL/MOL
REMARK 924 INTRA-LIGAND FREE ENERGY PREDICTED BY IDOCK:   -0.50 KCAL/MOL
REMARK 927      BINDING AFFINITY PREDICTED BY RF-SCORE:    0.00 PKD
ROOT
HETATM    1  C   UNL     1     -12.761  11.966  63.255  1.00  0.00    -0.271 C  
HETATM    2  N   UNL     1     -11.662  12.882  63.550  1.00  0.00    -0.514 NA 
HETATM    3  C   UNL     1     -12.055  13.926  64.512  1.00  0.00    -0.443 C  
HETATM    4  C   UNL     1     -12.271  13.425  65.950  1.00  0.00    -0.502 C  
HETATM    5  C   UNL     1     -11.064  12.657  66.475  1.00  0.00    -0.320 C  
HETATM    6  C   UNL     1     -10.471  12.173  64.049  1.00  0.00    -0.386 C  
HETATM    7  C   UNL     1     -10.603  11.603  65.475  1.00  0.00    -0.329 C  
ENDROOT
BRANCH   5   8
HETATM    8  C   UNL     1     -10.444  12.917  67.657  1.00  0.00    -0.228 A  
HETATM    9  C   UNL     1     -10.452  14.280  68.246  1.00  0.00    -0.247 A  
HETATM   10  C   UNL     1     -11.641  14.812  68.771  1.00  0.00    -0.347 A  
HETATM   11  C   UNL     1     -11.651  16.080  69.348  1.00  0.00    -0.320 A  
HETATM   12  C   UNL     1     -10.474  16.821  69.414  1.00  0.00    -0.312 A  
HETATM   13  C   UNL     1      -9.282  16.291  68.914  1.00  0.00    -0.249 A  
HETATM   14  C   UNL     1      -9.250  15.008  68.348  1.00  0.00    -0.193 A  
HETATM   15  C   UNL     1      -7.956  14.497  67.853  1.00  0.00    -0.152 A  
HETATM   16  C   UNL     1      -7.517  13.227  67.915  1.00  0.00    -0.143 A  
HETATM   17  C   UNL     1      -8.237  12.072  68.488  1.00  0.00    -0.113 A  
HETATM   18  C   UNL     1      -7.493  11.102  69.177  1.00  0.00    -0.109 A  
HETATM   19  C   UNL     1      -8.124   9.995  69.753  1.00  0.00    -0.188 A  
HETATM   20  C   UNL     1      -9.502   9.837  69.639  1.00  0.00    -0.237 A  
HETATM   21  C   UNL     1     -10.253  10.781  68.941  1.00  0.00    -0.219 A  
HETATM   22  C   UNL     1      -9.627  11.889  68.347  1.00  0.00    -0.196 A  
ENDBRANCH   5   8
TORSDOF 1
ENDMDL
MODEL       46
REMARK 921   NORMALIZED FREE ENERGY PREDICTED BY IDOCK:   -5.33 KCAL/MOL
REMARK 922        TOTAL FREE ENERGY PREDICTED BY IDOCK:   -6.48 KCAL/MOL
REMARK 923 INTER-LIGAND FREE ENERGY PREDICTED BY IDOCK:   -5.66 KCAL/MOL
REMARK 924 INTRA-LIGAND FREE ENERGY PREDICTED BY IDOCK:   -0.83 KCAL/MOL
REMARK 927      BINDING AFFINITY PREDICTED BY RF-SCORE:    0.00 PKD
ROOT
HETATM    1  C   UNL     1     -13.012  12.516  64.325  1.00  0.00    -0.156 C  
HETATM    2  N   UNL     1     -11.724  12.251  64.963  1.00  0.00    -0.360 NA 
HETATM    3  C   UNL     1     -10.637  13.045  64.365  1.00  0.00    -0.409 C  
HETATM    4  C   UNL     1     -10.695  14.550  64.679  1.00  0.00    -0.332 C  
HETATM    5  C   UNL     1     -10.777  14.818  66.177  1.00  0.00    -0.314 C  
HETATM    6  C   UNL     1     -11.768  12.488  66.416  1.00  0.00    -0.397 C  
HETATM    7  C   UNL     1     -11.862  13.970  66.831  1.00  0.00    -0.458 C  
ENDROOT
BRANCH   5   8
HETATM    8  C   UNL     1      -9.953  15.664  66.851  1.00  0.00    -0.252 A  
HETATM    9  C   UNL     1      -8.807  15.151  67.643  1.00  0.00    -0.178 A  
HETATM   10  C   UNL     1      -7.688  14.607  66.990  1.00  0.00     0.006 A  
HETATM   11  C   UNL     1      -6.598  14.148  67.726  1.00  0.00    -0.188 A  
HETATM   12  C   UNL     1      -6.612  14.236  69.116  1.00  0.00    -0.114 A  
HETATM   13  C   UNL     1      -7.711  14.796  69.772  1.00  0.00     0.068 A  
HETATM   14  C   UNL     1      -8.808  15.282  69.046  1.00  0.00    -0.226 A  
HETATM   15  C   UNL     1      -9.931  15.878  69.797  1.00  0.00    -0.211 A  
HETATM   16  C   UNL     1     -10.682  16.929  69.420  1.00  0.00    -0.258 A  
HETATM   17  C   UNL     1     -10.545  17.708  68.172  1.00  0.00    -0.359 A  
HETATM   18  C   UNL     1     -10.769  19.092  68.227  1.00  0.00    -0.122 A  
HETATM   19  C   UNL     1     -10.639  19.882  67.081  1.00  0.00    -0.527 A  
HETATM   20  C   UNL     1     -10.296  19.299  65.864  1.00  0.00    -0.499 A  
HETATM   21  C   UNL     1     -10.090  17.923  65.789  1.00  0.00    -0.058 A  
HETATM   22  C   UNL     1     -10.231  17.119  66.932  1.00  0.00    -0.315 A  
ENDBRANCH   5   8
TORSDOF 1
ENDMDL
MODEL       47
REMARK 921   NORMALIZED FREE ENERGY PREDICTED BY IDOCK:   -5.27 KCAL/MOL
REMARK 922        TOTAL FREE ENERGY PREDICTED BY IDOCK:   -6.42 KCAL/MOL
REMARK 923 INTER-LIGAND FREE ENERGY PREDICTED BY IDOCK:   -5.74 KCAL/MOL
REMARK 924 INTRA-LIGAND FREE ENERGY PREDICTED BY IDOCK:   -0.68 KCAL/MOL
REMARK 927      BINDING AFFINITY PREDICTED BY RF-SCORE:    0.00 PKD
ROOT
HETATM    1  C   UNL     1     -12.542  14.923  72.585  1.00  0.00    -0.367 C  
HETATM    2  N   UNL     1     -12.780  15.534  71.279  1.00  0.00    -0.432 NA 
HETATM    3  C   UNL     1     -11.580  16.210  70.758  1.00  0.00    -0.351 C  
HETATM    4  C   UNL     1     -10.451  15.265  70.318  1.00  0.00    -0.217 C  
HETATM    5  C   UNL     1     -10.936  14.220  69.321  1.00  0.00    -0.271 C  
HETATM    6  C   UNL     1     -13.263  14.555  70.291  1.00  0.00     0.162 C  
HETATM    7  C   UNL     1     -12.209  13.538  69.812  1.00  0.00    -0.330 C  
ENDROOT
BRANCH   5   8
HETATM    8  C   UNL     1     -10.343  13.968  68.123  1.00  0.00    -0.241 A  
HETATM    9  C   UNL     1      -8.913  13.580  68.040  1.00  0.00    -0.189 A  
HETATM   10  C   UNL     1      -8.501  12.315  68.491  1.00  0.00    -0.077 A  
HETATM   11  C   UNL     1      -7.165  11.933  68.392  1.00  0.00    -0.091 A  
HETATM   12  C   UNL     1      -6.233  12.806  67.835  1.00  0.00    -0.115 A  
HETATM   13  C   UNL     1      -6.638  14.057  67.364  1.00  0.00     0.054 A  
HETATM   14  C   UNL     1      -7.983  14.450  67.437  1.00  0.00    -0.220 A  
HETATM   15  C   UNL     1      -8.350  15.778  66.906  1.00  0.00    -0.283 A  
HETATM   16  C   UNL     1      -9.488  16.099  66.263  1.00  0.00    -0.347 A  
HETATM   17  C   UNL     1     -10.612  15.193  65.954  1.00  0.00    -0.347 A  
HETATM   18  C   UNL     1     -11.283  15.361  64.733  1.00  0.00    -0.404 A  
HETATM   19  C   UNL     1     -12.345  14.523  64.381  1.00  0.00    -0.437 A  
HETATM   20  C   UNL     1     -12.758  13.515  65.247  1.00  0.00    -0.481 A  
HETATM   21  C   UNL     1     -12.116  13.348  66.473  1.00  0.00    -0.444 A  
HETATM   22  C   UNL     1     -11.057  14.193  66.842  1.00  0.00    -0.312 A  
ENDBRANCH   5   8
TORSDOF 1
ENDMDL
MODEL       48
REMARK 921   NORMALIZED FREE ENERGY PREDICTED BY IDOCK:   -5.26 KCAL/MOL
REMARK 922        TOTAL FREE ENERGY PREDICTED BY IDOCK:   -6.41 KCAL/MOL
REMARK 923 INTER-LIGAND FREE ENERGY PREDICTED BY IDOCK:   -5.61 KCAL/MOL
REMARK 924 INTRA-LIGAND FREE ENERGY PREDICTED BY IDOCK:   -0.80 KCAL/MOL
REMARK 927      BINDING AFFINITY PREDICTED BY RF-SCORE:    0.00 PKD
ROOT
HETATM    1  C   UNL     1      -9.763   5.707  66.847  1.00  0.00    -0.148 C  
HETATM    2  N   UNL     1      -9.057   6.724  67.623  1.00  0.00    -0.118 NA 
HETATM    3  C   UNL     1      -8.088   7.472  66.803  1.00  0.00    -0.123 C  
HETATM    4  C   UNL     1      -8.719   8.426  65.775  1.00  0.00    -0.199 C  
HETATM    5  C   UNL     1      -9.710   9.387  66.419  1.00  0.00    -0.315 C  
HETATM    6  C   UNL     1      -9.985   7.666  68.272  1.00  0.00    -0.176 C  
HETATM    7  C   UNL     1     -10.695   8.644  67.315  1.00  0.00    -0.209 C  
ENDROOT
BRANCH   5   8
HETATM    8  C   UNL     1      -9.684  10.737  66.260  1.00  0.00    -0.248 A  
HETATM    9  C   UNL     1      -8.730  11.583  67.019  1.00  0.00    -0.169 A  
HETATM   10  C   UNL     1      -7.358  11.538  66.721  1.00  0.00    -0.111 A  
HETATM   11  C   UNL     1      -6.460  12.348  67.412  1.00  0.00    -0.154 A  
HETATM   12  C   UNL     1      -6.924  13.214  68.399  1.00  0.00    -0.104 A  
HETATM   13  C   UNL     1      -8.290  13.281  68.687  1.00  0.00     0.004 A  
HETATM   14  C   UNL     1      -9.210  12.488  67.987  1.00  0.00    -0.204 A  
HETATM   15  C   UNL     1     -10.642  12.618  68.326  1.00  0.00    -0.250 A  
HETATM   16  C   UNL     1     -11.679  12.548  67.473  1.00  0.00    -0.439 A  
HETATM   17  C   UNL     1     -11.608  12.323  66.015  1.00  0.00    -0.451 A  
HETATM   18  C   UNL     1     -12.522  13.001  65.194  1.00  0.00    -0.552 A  
HETATM   19  C   UNL     1     -12.492  12.838  63.806  1.00  0.00    -0.474 A  
HETATM   20  C   UNL     1     -11.557  11.988  63.221  1.00  0.00    -0.409 A  
HETATM   21  C   UNL     1     -10.656  11.292  64.024  1.00  0.00    -0.450 A  
HETATM   22  C   UNL     1     -10.687  11.438  65.420  1.00  0.00    -0.313 A  
ENDBRANCH   5   8
TORSDOF 1
ENDMDL
MODEL       49
REMARK 921   NORMALIZED FREE ENERGY PREDICTED BY IDOCK:   -5.25 KCAL/MOL
REMARK 922        TOTAL FREE ENERGY PREDICTED BY IDOCK:   -6.40 KCAL/MOL
REMARK 923 INTER-LIGAND FREE ENERGY PREDICTED BY IDOCK:   -5.96 KCAL/MOL
REMARK 924 INTRA-LIGAND FREE ENERGY PREDICTED BY IDOCK:   -0.44 KCAL/MOL
REMARK 927      BINDING AFFINITY PREDICTED BY RF-SCORE:    0.00 PKD
ROOT
HETATM    1  C   UNL     1      -8.099   3.691  72.939  1.00  0.00    -0.078 C  
HETATM    2  N   UNL     1      -9.376   3.479  72.262  1.00  0.00    -0.109 NA 
HETATM    3  C   UNL     1     -10.460   4.271  72.866  1.00  0.00    -0.176 C  
HETATM    4  C   UNL     1     -10.366   5.785  72.615  1.00  0.00    -0.229 C  
HETATM    5  C   UNL     1     -10.243   6.112  71.131  1.00  0.00    -0.245 C  
HETATM    6  C   UNL     1      -9.294   3.773  70.821  1.00  0.00    -0.148 C  
HETATM    7  C   UNL     1      -9.161   5.267  70.468  1.00  0.00    -0.187 C  
ENDROOT
BRANCH   5   8
HETATM    8  C   UNL     1     -11.036   7.000  70.473  1.00  0.00    -0.297 A  
HETATM    9  C   UNL     1     -10.745   7.399  69.074  1.00  0.00    -0.164 A  
HETATM   10  C   UNL     1     -10.934   6.482  68.027  1.00  0.00    -0.368 A  
HETATM   11  C   UNL     1     -10.688   6.857  66.708  1.00  0.00    -0.296 A  
HETATM   12  C   UNL     1     -10.262   8.152  66.424  1.00  0.00    -0.120 A  
HETATM   13  C   UNL     1     -10.093   9.078  67.456  1.00  0.00    -0.285 A  
HETATM   14  C   UNL     1     -10.355   8.723  68.787  1.00  0.00    -0.234 A  
HETATM   15  C   UNL     1     -10.174   9.752  69.831  1.00  0.00    -0.291 A  
HETATM   16  C   UNL     1     -10.925   9.917  70.935  1.00  0.00    -0.392 A  
HETATM   17  C   UNL     1     -12.088   9.102  71.340  1.00  0.00    -0.409 A  
HETATM   18  C   UNL     1     -13.168   9.749  71.960  1.00  0.00    -0.557 A  
HETATM   19  C   UNL     1     -14.301   9.031  72.352  1.00  0.00    -0.325 A  
HETATM   20  C   UNL     1     -14.367   7.657  72.141  1.00  0.00    -0.356 A  
HETATM   21  C   UNL     1     -13.295   6.995  71.545  1.00  0.00    -0.370 A  
HETATM   22  C   UNL     1     -12.146   7.706  71.160  1.00  0.00    -0.322 A  
ENDBRANCH   5   8
TORSDOF 1
ENDMDL
MODEL       50
REMARK 921   NORMALIZED FREE ENERGY PREDICTED BY IDOCK:   -5.20 KCAL/MOL
REMARK 922        TOTAL FREE ENERGY PREDICTED BY IDOCK:   -6.34 KCAL/MOL
REMARK 923 INTER-LIGAND FREE ENERGY PREDICTED BY IDOCK:   -5.81 KCAL/MOL
REMARK 924 INTRA-LIGAND FREE ENERGY PREDICTED BY IDOCK:   -0.53 KCAL/MOL
REMARK 927      BINDING AFFINITY PREDICTED BY RF-SCORE:    0.00 PKD
ROOT
HETATM    1  C   UNL     1      -6.360  16.919  67.159  1.00  0.00    -0.186 C  
HETATM    2  N   UNL     1      -7.429  16.506  68.066  1.00  0.00    -0.152 NA 
HETATM    3  C   UNL     1      -8.745  16.506  67.405  1.00  0.00    -0.182 C  
HETATM    4  C   UNL     1      -8.941  15.390  66.365  1.00  0.00    -0.351 C  
HETATM    5  C   UNL     1      -8.646  14.012  66.944  1.00  0.00    -0.148 C  
HETATM    6  C   UNL     1      -7.172  15.181  68.655  1.00  0.00    -0.118 C  
HETATM    7  C   UNL     1      -7.311  13.996  67.680  1.00  0.00    -0.188 C  
ENDROOT
BRANCH   5   8
HETATM    8  C   UNL     1      -9.491  12.949  66.864  1.00  0.00    -0.237 A  
HETATM    9  C   UNL     1     -10.424  12.794  65.720  1.00  0.00    -0.294 A  
HETATM   10  C   UNL     1      -9.927  12.474  64.446  1.00  0.00    -0.206 A  
HETATM   11  C   UNL     1     -10.798  12.301  63.372  1.00  0.00    -0.457 A  
HETATM   12  C   UNL     1     -12.170  12.436  63.565  1.00  0.00    -0.661 A  
HETATM   13  C   UNL     1     -12.675  12.732  64.833  1.00  0.00    -0.479 A  
HETATM   14  C   UNL     1     -11.814  12.890  65.929  1.00  0.00    -0.476 A  
HETATM   15  C   UNL     1     -12.410  13.185  67.247  1.00  0.00    -0.066 A  
HETATM   16  C   UNL     1     -11.981  12.739  68.441  1.00  0.00    -0.275 A  
HETATM   17  C   UNL     1     -10.819  11.861  68.688  1.00  0.00    -0.273 A  
HETATM   18  C   UNL     1     -10.918  10.900  69.707  1.00  0.00    -0.290 A  
HETATM   19  C   UNL     1      -9.855  10.033  69.976  1.00  0.00    -0.247 A  
HETATM   20  C   UNL     1      -8.677  10.121  69.240  1.00  0.00    -0.186 A  
HETATM   21  C   UNL     1      -8.554  11.083  68.239  1.00  0.00    -0.143 A  
HETATM   22  C   UNL     1      -9.611  11.968  67.971  1.00  0.00    -0.199 A  
ENDBRANCH   5   8
TORSDOF 1
ENDMDL
MODEL       51
REMARK 921   NORMALIZED FREE ENERGY PREDICTED BY IDOCK:   -5.19 KCAL/MOL
REMARK 922        TOTAL FREE ENERGY PREDICTED BY IDOCK:   -6.34 KCAL/MOL
REMARK 923 INTER-LIGAND FREE ENERGY PREDICTED BY IDOCK:   -5.67 KCAL/MOL
REMARK 924 INTRA-LIGAND FREE ENERGY PREDICTED BY IDOCK:   -0.67 KCAL/MOL
REMARK 927      BINDING AFFINITY PREDICTED BY RF-SCORE:    0.00 PKD
ROOT
HETATM    1  C   UNL     1     -13.056  14.132  72.519  1.00  0.00    -0.463 C  
HETATM    2  N   UNL     1     -13.379  14.417  71.123  1.00  0.00    -0.351 NA 
HETATM    3  C   UNL     1     -12.901  15.746  70.705  1.00  0.00    -0.287 C  
HETATM    4  C   UNL     1     -11.374  15.867  70.572  1.00  0.00    -0.409 C  
HETATM    5  C   UNL     1     -10.794  14.793  69.660  1.00  0.00    -0.247 C  
HETATM    6  C   UNL     1     -12.843  13.391  70.211  1.00  0.00     0.109 C  
HETATM    7  C   UNL     1     -11.312  13.410  70.038  1.00  0.00    -0.009 C  
ENDROOT
BRANCH   5   8
HETATM    8  C   UNL     1      -9.965  15.042  68.611  1.00  0.00    -0.220 A  
HETATM    9  C   UNL     1      -8.695  15.787  68.795  1.00  0.00    -0.203 A  
HETATM   10  C   UNL     1      -7.623  15.190  69.478  1.00  0.00    -0.207 A  
HETATM   11  C   UNL     1      -6.418  15.872  69.633  1.00  0.00    -0.186 A  
HETATM   12  C   UNL     1      -6.271  17.150  69.099  1.00  0.00    -0.212 A  
HETATM   13  C   UNL     1      -7.325  17.743  68.400  1.00  0.00    -0.257 A  
HETATM   14  C   UNL     1      -8.538  17.063  68.217  1.00  0.00    -0.234 A  
HETATM   15  C   UNL     1      -9.607  17.736  67.453  1.00  0.00    -0.264 A  
HETATM   16  C   UNL     1     -10.480  17.156  66.611  1.00  0.00    -0.259 A  
HETATM   17  C   UNL     1     -10.558  15.720  66.273  1.00  0.00    -0.313 A  
HETATM   18  C   UNL     1     -10.886  15.365  64.956  1.00  0.00    -0.462 A  
HETATM   19  C   UNL     1     -10.960  14.022  64.575  1.00  0.00    -0.361 A  
HETATM   20  C   UNL     1     -10.720  13.017  65.507  1.00  0.00    -0.299 A  
HETATM   21  C   UNL     1     -10.413  13.351  66.825  1.00  0.00    -0.275 A  
HETATM   22  C   UNL     1     -10.350  14.698  67.220  1.00  0.00    -0.256 A  
ENDBRANCH   5   8
TORSDOF 1
ENDMDL
MODEL       52
REMARK 921   NORMALIZED FREE ENERGY PREDICTED BY IDOCK:   -5.13 KCAL/MOL
REMARK 922        TOTAL FREE ENERGY PREDICTED BY IDOCK:   -6.27 KCAL/MOL
REMARK 923 INTER-LIGAND FREE ENERGY PREDICTED BY IDOCK:   -5.43 KCAL/MOL
REMARK 924 INTRA-LIGAND FREE ENERGY PREDICTED BY IDOCK:   -0.83 KCAL/MOL
REMARK 927      BINDING AFFINITY PREDICTED BY RF-SCORE:    0.00 PKD
ROOT
HETATM    1  C   UNL     1     -12.074  14.551  64.095  1.00  0.00    -0.350 C  
HETATM    2  N   UNL     1     -12.712  13.768  65.151  1.00  0.00    -0.686 NA 
HETATM    3  C   UNL     1     -12.257  12.368  65.152  1.00  0.00    -0.384 C  
HETATM    4  C   UNL     1     -10.806  12.165  65.620  1.00  0.00    -0.323 C  
HETATM    5  C   UNL     1     -10.551  12.799  66.981  1.00  0.00    -0.253 C  
HETATM    6  C   UNL     1     -12.497  14.359  66.483  1.00  0.00    -0.118 C  
HETATM    7  C   UNL     1     -11.059  14.235  67.025  1.00  0.00    -0.317 C  
ENDROOT
BRANCH   5   8
HETATM    8  C   UNL     1      -9.993  12.149  68.038  1.00  0.00    -0.203 A  
HETATM    9  C   UNL     1      -8.520  12.018  68.169  1.00  0.00    -0.171 A  
HETATM   10  C   UNL     1      -7.739  13.145  68.471  1.00  0.00    -0.117 A  
HETATM   11  C   UNL     1      -6.359  13.026  68.622  1.00  0.00    -0.083 A  
HETATM   12  C   UNL     1      -5.751  11.781  68.482  1.00  0.00    -0.048 A  
HETATM   13  C   UNL     1      -6.523  10.651  68.203  1.00  0.00    -0.062 A  
HETATM   14  C   UNL     1      -7.916  10.749  68.068  1.00  0.00    -0.108 A  
HETATM   15  C   UNL     1      -8.678   9.515  67.791  1.00  0.00    -0.115 A  
HETATM   16  C   UNL     1      -9.900   9.203  68.259  1.00  0.00    -0.181 A  
HETATM   17  C   UNL     1     -10.741  10.031  69.147  1.00  0.00    -0.244 A  
HETATM   18  C   UNL     1     -11.513   9.382  70.123  1.00  0.00    -0.175 A  
HETATM   19  C   UNL     1     -12.317  10.115  71.001  1.00  0.00    -0.474 A  
HETATM   20  C   UNL     1     -12.370  11.503  70.908  1.00  0.00    -0.460 A  
HETATM   21  C   UNL     1     -11.626  12.161  69.931  1.00  0.00    -0.297 A  
HETATM   22  C   UNL     1     -10.826  11.433  69.036  1.00  0.00    -0.265 A  
ENDBRANCH   5   8
TORSDOF 1
ENDMDL
MODEL       53
REMARK 921   NORMALIZED FREE ENERGY PREDICTED BY IDOCK:   -5.10 KCAL/MOL
REMARK 922        TOTAL FREE ENERGY PREDICTED BY IDOCK:   -6.24 KCAL/MOL
REMARK 923 INTER-LIGAND FREE ENERGY PREDICTED BY IDOCK:   -5.65 KCAL/MOL
REMARK 924 INTRA-LIGAND FREE ENERGY PREDICTED BY IDOCK:   -0.60 KCAL/MOL
REMARK 927      BINDING AFFINITY PREDICTED BY RF-SCORE:    0.00 PKD
ROOT
HETATM    1  C   UNL     1     -10.430  16.133  68.355  1.00  0.00    -0.274 C  
HETATM    2  N   UNL     1     -10.759  15.124  67.350  1.00  0.00    -0.280 NA 
HETATM    3  C   UNL     1      -9.583  14.329  66.958  1.00  0.00    -0.257 C  
HETATM    4  C   UNL     1      -9.076  13.358  68.038  1.00  0.00    -0.205 C  
HETATM    5  C   UNL     1     -10.181  12.441  68.546  1.00  0.00    -0.213 C  
HETATM    6  C   UNL     1     -11.834  14.225  67.802  1.00  0.00    -0.379 C  
HETATM    7  C   UNL     1     -11.431  13.234  68.912  1.00  0.00    -0.342 C  
ENDROOT
BRANCH   5   8
HETATM    8  C   UNL     1     -10.083  11.087  68.612  1.00  0.00    -0.207 A  
HETATM    9  C   UNL     1     -10.534  10.341  69.814  1.00  0.00    -0.300 A  
HETATM   10  C   UNL     1     -11.904  10.240  70.106  1.00  0.00    -0.343 A  
HETATM   11  C   UNL     1     -12.336   9.520  71.217  1.00  0.00    -0.430 A  
HETATM   12  C   UNL     1     -11.406   8.888  72.039  1.00  0.00    -0.427 A  
HETATM   13  C   UNL     1     -10.043   8.965  71.744  1.00  0.00    -0.407 A  
HETATM   14  C   UNL     1      -9.592   9.669  70.618  1.00  0.00    -0.214 A  
HETATM   15  C   UNL     1      -8.140   9.698  70.350  1.00  0.00    -0.198 A  
HETATM   16  C   UNL     1      -7.544   9.671  69.144  1.00  0.00    -0.082 A  
HETATM   17  C   UNL     1      -8.216   9.610  67.831  1.00  0.00    -0.106 A  
HETATM   18  C   UNL     1      -7.618   8.849  66.815  1.00  0.00    -0.086 A  
HETATM   19  C   UNL     1      -8.216   8.743  65.555  1.00  0.00    -0.133 A  
HETATM   20  C   UNL     1      -9.412   9.404  65.291  1.00  0.00    -0.296 A  
HETATM   21  C   UNL     1     -10.009  10.181  66.283  1.00  0.00    -0.304 A  
HETATM   22  C   UNL     1      -9.409  10.304  67.546  1.00  0.00    -0.164 A  
ENDBRANCH   5   8
TORSDOF 1
ENDMDL
MODEL       54
REMARK 921   NORMALIZED FREE ENERGY PREDICTED BY IDOCK:   -5.09 KCAL/MOL
REMARK 922        TOTAL FREE ENERGY PREDICTED BY IDOCK:   -6.23 KCAL/MOL
REMARK 923 INTER-LIGAND FREE ENERGY PREDICTED BY IDOCK:   -5.64 KCAL/MOL
REMARK 924 INTRA-LIGAND FREE ENERGY PREDICTED BY IDOCK:   -0.59 KCAL/MOL
REMARK 927      BINDING AFFINITY PREDICTED BY RF-SCORE:    0.00 PKD
ROOT
HETATM    1  C   UNL     1      -6.271  15.581  68.814  1.00  0.00    -0.099 C  
HETATM    2  N   UNL     1      -6.441  14.995  67.486  1.00  0.00    -0.283 NA 
HETATM    3  C   UNL     1      -6.331  13.527  67.511  1.00  0.00    -0.082 C  
HETATM    4  C   UNL     1      -7.510  12.806  68.185  1.00  0.00    -0.124 C  
HETATM    5  C   UNL     1      -8.850  13.220  67.589  1.00  0.00    -0.200 C  
HETATM    6  C   UNL     1      -7.722  15.384  66.871  1.00  0.00    -0.124 C  
HETATM    7  C   UNL     1      -8.971  14.737  67.503  1.00  0.00    -0.192 C  
ENDROOT
BRANCH   5   8
HETATM    8  C   UNL     1      -9.791  12.348  67.139  1.00  0.00    -0.206 A  
HETATM    9  C   UNL     1     -10.124  11.117  67.899  1.00  0.00    -0.195 A  
HETATM   10  C   UNL     1     -10.815  11.208  69.118  1.00  0.00    -0.284 A  
HETATM   11  C   UNL     1     -11.155  10.056  69.824  1.00  0.00    -0.319 A  
HETATM   12  C   UNL     1     -10.815   8.805  69.314  1.00  0.00    -0.094 A  
HETATM   13  C   UNL     1     -10.147   8.704  68.092  1.00  0.00    -0.236 A  
HETATM   14  C   UNL     1      -9.815   9.852  67.358  1.00  0.00    -0.223 A  
HETATM   15  C   UNL     1      -9.125   9.678  66.064  1.00  0.00    -0.212 A  
HETATM   16  C   UNL     1      -9.298  10.419  64.955  1.00  0.00    -0.294 A  
HETATM   17  C   UNL     1     -10.212  11.568  64.796  1.00  0.00    -0.331 A  
HETATM   18  C   UNL     1     -10.862  11.732  63.563  1.00  0.00    -0.496 A  
HETATM   19  C   UNL     1     -11.749  12.793  63.359  1.00  0.00    -0.556 A  
HETATM   20  C   UNL     1     -11.991  13.708  64.379  1.00  0.00    -0.476 A  
HETATM   21  C   UNL     1     -11.339  13.571  65.603  1.00  0.00    -0.312 A  
HETATM   22  C   UNL     1     -10.435  12.517  65.813  1.00  0.00    -0.296 A  
ENDBRANCH   5   8
TORSDOF 1
ENDMDL
MODEL       55
REMARK 921   NORMALIZED FREE ENERGY PREDICTED BY IDOCK:   -5.04 KCAL/MOL
REMARK 922        TOTAL FREE ENERGY PREDICTED BY IDOCK:   -6.18 KCAL/MOL
REMARK 923 INTER-LIGAND FREE ENERGY PREDICTED BY IDOCK:   -5.75 KCAL/MOL
REMARK 924 INTRA-LIGAND FREE ENERGY PREDICTED BY IDOCK:   -0.44 KCAL/MOL
REMARK 927      BINDING AFFINITY PREDICTED BY RF-SCORE:    0.00 PKD
ROOT
HETATM    1  C   UNL     1      -7.919  11.793  68.255  1.00  0.00    -0.147 C  
HETATM    2  N   UNL     1      -8.356  10.414  68.052  1.00  0.00    -0.117 NA 
HETATM    3  C   UNL     1      -7.655   9.474  68.943  1.00  0.00    -0.075 C  
HETATM    4  C   UNL     1      -8.051   9.579  70.425  1.00  0.00    -0.209 C  
HETATM    5  C   UNL     1      -9.557   9.464  70.624  1.00  0.00    -0.331 C  
HETATM    6  C   UNL     1      -9.812  10.265  68.224  1.00  0.00    -0.146 C  
HETATM    7  C   UNL     1     -10.311  10.390  69.677  1.00  0.00    -0.261 C  
ENDROOT
BRANCH   5   8
HETATM    8  C   UNL     1     -10.152   8.605  71.495  1.00  0.00    -0.345 A  
HETATM    9  C   UNL     1      -9.353   7.644  72.294  1.00  0.00    -0.199 A  
HETATM   10  C   UNL     1      -8.534   8.106  73.337  1.00  0.00    -0.303 A  
HETATM   11  C   UNL     1      -7.800   7.208  74.108  1.00  0.00    -0.136 A  
HETATM   12  C   UNL     1      -7.886   5.842  73.851  1.00  0.00    -0.099 A  
HETATM   13  C   UNL     1      -8.715   5.371  72.830  1.00  0.00    -0.118 A  
HETATM   14  C   UNL     1      -9.476   6.260  72.057  1.00  0.00    -0.158 A  
HETATM   15  C   UNL     1     -10.346   5.698  71.004  1.00  0.00    -0.297 A  
HETATM   16  C   UNL     1     -11.559   6.151  70.639  1.00  0.00    -0.256 A  
HETATM   17  C   UNL     1     -12.277   7.308  71.210  1.00  0.00    -0.389 A  
HETATM   18  C   UNL     1     -13.671   7.222  71.347  1.00  0.00    -0.404 A  
HETATM   19  C   UNL     1     -14.402   8.281  71.894  1.00  0.00    -0.564 A  
HETATM   20  C   UNL     1     -13.752   9.442  72.302  1.00  0.00    -0.495 A  
HETATM   21  C   UNL     1     -12.370   9.552  72.154  1.00  0.00    -0.332 A  
HETATM   22  C   UNL     1     -11.629   8.500  71.593  1.00  0.00    -0.364 A  
ENDBRANCH   5   8
TORSDOF 1
ENDMDL
MODEL       56
REMARK 921   NORMALIZED FREE ENERGY PREDICTED BY IDOCK:   -5.04 KCAL/MOL
REMARK 922        TOTAL FREE ENERGY PREDICTED BY IDOCK:   -6.18 KCAL/MOL
REMARK 923 INTER-LIGAND FREE ENERGY PREDICTED BY IDOCK:   -5.34 KCAL/MOL
REMARK 924 INTRA-LIGAND FREE ENERGY PREDICTED BY IDOCK:   -0.84 KCAL/MOL
REMARK 927      BINDING AFFINITY PREDICTED BY RF-SCORE:    0.00 PKD
ROOT
HETATM    1  C   UNL     1      -6.676   7.940  67.405  1.00  0.00    -0.069 C  
HETATM    2  N   UNL     1      -7.734   8.252  66.447  1.00  0.00    -0.090 NA 
HETATM    3  C   UNL     1      -8.982   8.657  67.115  1.00  0.00    -0.132 C  
HETATM    4  C   UNL     1      -8.930  10.038  67.790  1.00  0.00    -0.133 C  
HETATM    5  C   UNL     1      -8.473  11.128  66.828  1.00  0.00    -0.153 C  
HETATM    6  C   UNL     1      -7.324   9.295  65.491  1.00  0.00    -0.090 C  
HETATM    7  C   UNL     1      -7.209  10.713  66.084  1.00  0.00    -0.138 C  
ENDROOT
BRANCH   5   8
HETATM    8  C   UNL     1      -9.139  12.295  66.620  1.00  0.00    -0.203 A  
HETATM    9  C   UNL     1      -8.837  13.506  67.422  1.00  0.00    -0.221 A  
HETATM   10  C   UNL     1      -7.622  14.186  67.239  1.00  0.00    -0.104 A  
HETATM   11  C   UNL     1      -7.343  15.339  67.970  1.00  0.00    -0.133 A  
HETATM   12  C   UNL     1      -8.276  15.825  68.882  1.00  0.00    -0.210 A  
HETATM   13  C   UNL     1      -9.497  15.168  69.054  1.00  0.00    -0.221 A  
HETATM   14  C   UNL     1      -9.803  14.018  68.313  1.00  0.00    -0.233 A  
HETATM   15  C   UNL     1     -11.117  13.379  68.528  1.00  0.00    -0.299 A  
HETATM   16  C   UNL     1     -11.885  12.787  67.596  1.00  0.00    -0.396 A  
HETATM   17  C   UNL     1     -11.576  12.647  66.158  1.00  0.00    -0.445 A  
HETATM   18  C   UNL     1     -12.632  12.757  65.240  1.00  0.00    -0.460 A  
HETATM   19  C   UNL     1     -12.397  12.647  63.866  1.00  0.00    -0.546 A  
HETATM   20  C   UNL     1     -11.109  12.416  63.393  1.00  0.00    -0.465 A  
HETATM   21  C   UNL     1     -10.053  12.284  64.292  1.00  0.00    -0.311 A  
HETATM   22  C   UNL     1     -10.281  12.379  65.675  1.00  0.00    -0.285 A  
ENDBRANCH   5   8
TORSDOF 1
ENDMDL
MODEL       57
REMARK 921   NORMALIZED FREE ENERGY PREDICTED BY IDOCK:   -5.04 KCAL/MOL
REMARK 922        TOTAL FREE ENERGY PREDICTED BY IDOCK:   -6.18 KCAL/MOL
REMARK 923 INTER-LIGAND FREE ENERGY PREDICTED BY IDOCK:   -5.33 KCAL/MOL
REMARK 924 INTRA-LIGAND FREE ENERGY PREDICTED BY IDOCK:   -0.84 KCAL/MOL
REMARK 927      BINDING AFFINITY PREDICTED BY RF-SCORE:    0.00 PKD
ROOT
HETATM    1  C   UNL     1      -5.126  12.735  67.369  1.00  0.00    -0.002 C  
HETATM    2  N   UNL     1      -5.982  12.158  68.404  1.00  0.00    -0.049 NA 
HETATM    3  C   UNL     1      -7.097  13.053  68.760  1.00  0.00    -0.097 C  
HETATM    4  C   UNL     1      -8.180  13.190  67.677  1.00  0.00    -0.175 C  
HETATM    5  C   UNL     1      -8.717  11.837  67.231  1.00  0.00    -0.163 C  
HETATM    6  C   UNL     1      -6.511  10.841  68.012  1.00  0.00    -0.062 C  
HETATM    7  C   UNL     1      -7.582  10.873  66.904  1.00  0.00    -0.128 C  
ENDROOT
BRANCH   5   8
HETATM    8  C   UNL     1     -10.037  11.513  67.184  1.00  0.00    -0.223 A  
HETATM    9  C   UNL     1     -10.842  11.739  65.958  1.00  0.00    -0.343 A  
HETATM   10  C   UNL     1     -10.625  10.947  64.818  1.00  0.00    -0.316 A  
HETATM   11  C   UNL     1     -11.393  11.136  63.672  1.00  0.00     0.081 A  
HETATM   12  C   UNL     1     -12.389  12.110  63.657  1.00  0.00    -0.673 A  
HETATM   13  C   UNL     1     -12.627  12.887  64.793  1.00  0.00    -0.493 A  
HETATM   14  C   UNL     1     -11.876  12.697  65.962  1.00  0.00    -0.492 A  
HETATM   15  C   UNL     1     -12.187  13.538  67.135  1.00  0.00    -0.328 A  
HETATM   16  C   UNL     1     -12.152  13.162  68.427  1.00  0.00    -0.216 A  
HETATM   17  C   UNL     1     -11.791  11.827  68.946  1.00  0.00    -0.381 A  
HETATM   18  C   UNL     1     -12.485  11.341  70.064  1.00  0.00    -0.251 A  
HETATM   19  C   UNL     1     -12.196  10.079  70.591  1.00  0.00    -0.360 A  
HETATM   20  C   UNL     1     -11.203   9.291  70.015  1.00  0.00    -0.190 A  
HETATM   21  C   UNL     1     -10.489   9.768  68.917  1.00  0.00    -0.233 A  
HETATM   22  C   UNL     1     -10.763  11.040  68.389  1.00  0.00    -0.240 A  
ENDBRANCH   5   8
TORSDOF 1
ENDMDL
MODEL       58
REMARK 921   NORMALIZED FREE ENERGY PREDICTED BY IDOCK:   -4.99 KCAL/MOL
REMARK 922        TOTAL FREE ENERGY PREDICTED BY IDOCK:   -6.13 KCAL/MOL
REMARK 923 INTER-LIGAND FREE ENERGY PREDICTED BY IDOCK:   -5.33 KCAL/MOL
REMARK 924 INTRA-LIGAND FREE ENERGY PREDICTED BY IDOCK:   -0.80 KCAL/MOL
REMARK 927      BINDING AFFINITY PREDICTED BY RF-SCORE:    0.00 PKD
ROOT
HETATM    1  C   UNL     1      -5.616   8.632  72.945  1.00  0.00    -0.073 C  
HETATM    2  N   UNL     1      -6.056   7.679  71.928  1.00  0.00    -0.039 NA 
HETATM    3  C   UNL     1      -7.215   6.889  72.377  1.00  0.00    -0.078 C  
HETATM    4  C   UNL     1      -8.531   7.678  72.475  1.00  0.00    -0.157 C  
HETATM    5  C   UNL     1      -8.862   8.401  71.175  1.00  0.00    -0.201 C  
HETATM    6  C   UNL     1      -6.374   8.341  70.651  1.00  0.00    -0.036 C  
HETATM    7  C   UNL     1      -7.662   9.187  70.660  1.00  0.00    -0.152 C  
ENDROOT
BRANCH   5   8
HETATM    8  C   UNL     1     -10.056   8.310  70.530  1.00  0.00    -0.210 A  
HETATM    9  C   UNL     1     -10.196   7.520  69.281  1.00  0.00    -0.201 A  
HETATM   10  C   UNL     1     -10.132   6.118  69.325  1.00  0.00    -0.218 A  
HETATM   11  C   UNL     1     -10.290   5.369  68.161  1.00  0.00    -0.210 A  
HETATM   12  C   UNL     1     -10.520   6.012  66.948  1.00  0.00    -0.344 A  
HETATM   13  C   UNL     1     -10.607   7.405  66.898  1.00  0.00    -0.375 A  
HETATM   14  C   UNL     1     -10.472   8.174  68.063  1.00  0.00    -0.242 A  
HETATM   15  C   UNL     1     -10.591   9.642  67.948  1.00  0.00    -0.308 A  
HETATM   16  C   UNL     1     -11.152  10.475  68.843  1.00  0.00    -0.312 A  
HETATM   17  C   UNL     1     -11.763  10.101  70.134  1.00  0.00    -0.330 A  
HETATM   18  C   UNL     1     -12.902  10.803  70.557  1.00  0.00    -0.335 A  
HETATM   19  C   UNL     1     -13.531  10.483  71.763  1.00  0.00    -0.345 A  
HETATM   20  C   UNL     1     -13.026   9.465  72.567  1.00  0.00    -0.345 A  
HETATM   21  C   UNL     1     -11.884   8.771  72.172  1.00  0.00    -0.436 A  
HETATM   22  C   UNL     1     -11.237   9.095  70.968  1.00  0.00    -0.380 A  
ENDBRANCH   5   8
TORSDOF 1
ENDMDL
MODEL       59
REMARK 921   NORMALIZED FREE ENERGY PREDICTED BY IDOCK:   -4.98 KCAL/MOL
REMARK 922        TOTAL FREE ENERGY PREDICTED BY IDOCK:   -6.12 KCAL/MOL
REMARK 923 INTER-LIGAND FREE ENERGY PREDICTED BY IDOCK:   -5.66 KCAL/MOL
REMARK 924 INTRA-LIGAND FREE ENERGY PREDICTED BY IDOCK:   -0.46 KCAL/MOL
REMARK 927      BINDING AFFINITY PREDICTED BY RF-SCORE:    0.00 PKD
ROOT
HETATM    1  C   UNL     1     -13.511   7.602  71.652  1.00  0.00    -0.358 C  
HETATM    2  N   UNL     1     -12.442   8.486  72.111  1.00  0.00    -0.357 NA 
HETATM    3  C   UNL     1     -11.141   8.136  71.516  1.00  0.00    -0.252 C  
HETATM    4  C   UNL     1     -11.015   8.454  70.017  1.00  0.00    -0.194 C  
HETATM    5  C   UNL     1     -11.357   9.906  69.709  1.00  0.00    -0.241 C  
HETATM    6  C   UNL     1     -12.743   9.903  71.841  1.00  0.00    -0.409 C  
HETATM    7  C   UNL     1     -12.676  10.311  70.357  1.00  0.00    -0.243 C  
ENDROOT
BRANCH   5   8
HETATM    8  C   UNL     1     -10.560  10.747  68.997  1.00  0.00    -0.250 A  
HETATM    9  C   UNL     1     -11.086  12.021  68.445  1.00  0.00    -0.290 A  
HETATM   10  C   UNL     1     -11.407  13.082  69.307  1.00  0.00    -0.310 A  
HETATM   11  C   UNL     1     -11.876  14.289  68.795  1.00  0.00    -0.377 A  
HETATM   12  C   UNL     1     -12.021  14.449  67.419  1.00  0.00    -0.407 A  
HETATM   13  C   UNL     1     -11.683  13.407  66.552  1.00  0.00    -0.415 A  
HETATM   14  C   UNL     1     -11.190  12.192  67.050  1.00  0.00    -0.370 A  
HETATM   15  C   UNL     1     -10.835  11.135  66.081  1.00  0.00    -0.247 A  
HETATM   16  C   UNL     1      -9.811  10.267  66.179  1.00  0.00    -0.284 A  
HETATM   17  C   UNL     1      -8.828  10.183  67.277  1.00  0.00    -0.137 A  
HETATM   18  C   UNL     1      -7.499   9.868  66.954  1.00  0.00    -0.092 A  
HETATM   19  C   UNL     1      -6.522   9.789  67.951  1.00  0.00    -0.060 A  
HETATM   20  C   UNL     1      -6.861  10.013  69.282  1.00  0.00    -0.059 A  
HETATM   21  C   UNL     1      -8.180  10.308  69.622  1.00  0.00    -0.146 A  
HETATM   22  C   UNL     1      -9.171  10.375  68.630  1.00  0.00    -0.164 A  
ENDBRANCH   5   8
TORSDOF 1
ENDMDL
MODEL       60
REMARK 921   NORMALIZED FREE ENERGY PREDICTED BY IDOCK:   -4.97 KCAL/MOL
REMARK 922        TOTAL FREE ENERGY PREDICTED BY IDOCK:   -6.10 KCAL/MOL
REMARK 923 INTER-LIGAND FREE ENERGY PREDICTED BY IDOCK:   -5.38 KCAL/MOL
REMARK 924 INTRA-LIGAND FREE ENERGY PREDICTED BY IDOCK:   -0.72 KCAL/MOL
REMARK 927      BINDING AFFINITY PREDICTED BY RF-SCORE:    0.00 PKD
ROOT
HETATM    1  C   UNL     1     -10.403   4.898  66.323  1.00  0.00    -0.298 C  
HETATM    2  N   UNL     1      -9.232   5.671  66.733  1.00  0.00    -0.125 NA 
HETATM    3  C   UNL     1      -9.266   7.046  66.206  1.00  0.00    -0.126 C  
HETATM    4  C   UNL     1     -10.325   7.955  66.851  1.00  0.00    -0.400 C  
HETATM    5  C   UNL     1     -10.209   7.979  68.370  1.00  0.00    -0.239 C  
HETATM    6  C   UNL     1      -9.080   5.707  68.198  1.00  0.00    -0.110 C  
HETATM    7  C   UNL     1     -10.121   6.568  68.940  1.00  0.00    -0.183 C  
ENDROOT
BRANCH   5   8
HETATM    8  C   UNL     1     -10.136   9.115  69.115  1.00  0.00    -0.199 A  
HETATM    9  C   UNL     1     -11.203   9.466  70.086  1.00  0.00    -0.253 A  
HETATM   10  C   UNL     1     -11.353   8.721  71.267  1.00  0.00    -0.357 A  
HETATM   11  C   UNL     1     -12.334   9.061  72.195  1.00  0.00    -0.442 A  
HETATM   12  C   UNL     1     -13.166  10.152  71.956  1.00  0.00    -0.534 A  
HETATM   13  C   UNL     1     -13.010  10.912  70.795  1.00  0.00    -0.308 A  
HETATM   14  C   UNL     1     -12.014  10.596  69.860  1.00  0.00    -0.385 A  
HETATM   15  C   UNL     1     -11.888  11.449  68.661  1.00  0.00    -0.377 A  
HETATM   16  C   UNL     1     -10.747  11.798  68.039  1.00  0.00    -0.244 A  
HETATM   17  C   UNL     1      -9.378  11.399  68.421  1.00  0.00    -0.194 A  
HETATM   18  C   UNL     1      -8.346  12.337  68.264  1.00  0.00    -0.174 A  
HETATM   19  C   UNL     1      -7.032  12.020  68.622  1.00  0.00    -0.096 A  
HETATM   20  C   UNL     1      -6.730  10.760  69.130  1.00  0.00    -0.074 A  
HETATM   21  C   UNL     1      -7.740   9.810  69.274  1.00  0.00    -0.101 A  
HETATM   22  C   UNL     1      -9.060  10.114  68.904  1.00  0.00    -0.165 A  
ENDBRANCH   5   8
TORSDOF 1
ENDMDL
MODEL       61
REMARK 921   NORMALIZED FREE ENERGY PREDICTED BY IDOCK:   -4.96 KCAL/MOL
REMARK 922        TOTAL FREE ENERGY PREDICTED BY IDOCK:   -6.09 KCAL/MOL
REMARK 923 INTER-LIGAND FREE ENERGY PREDICTED BY IDOCK:   -5.46 KCAL/MOL
REMARK 924 INTRA-LIGAND FREE ENERGY PREDICTED BY IDOCK:   -0.64 KCAL/MOL
REMARK 927      BINDING AFFINITY PREDICTED BY RF-SCORE:    0.00 PKD
ROOT
HETATM    1  C   UNL     1     -12.329  14.934  64.431  1.00  0.00    -0.323 C  
HETATM    2  N   UNL     1     -12.699  13.822  65.304  1.00  0.00    -0.672 NA 
HETATM    3  C   UNL     1     -12.607  12.524  64.614  1.00  0.00    -0.426 C  
HETATM    4  C   UNL     1     -11.174  12.057  64.314  1.00  0.00    -0.421 C  
HETATM    5  C   UNL     1     -10.302  12.048  65.564  1.00  0.00    -0.298 C  
HETATM    6  C   UNL     1     -11.884  13.788  66.531  1.00  0.00    -0.407 C  
HETATM    7  C   UNL     1     -10.417  13.363  66.326  1.00  0.00    -0.289 C  
ENDROOT
BRANCH   5   8
HETATM    8  C   UNL     1      -9.562  10.984  65.975  1.00  0.00    -0.249 A  
HETATM    9  C   UNL     1      -9.611  10.510  67.380  1.00  0.00    -0.181 A  
HETATM   10  C   UNL     1     -10.764   9.875  67.869  1.00  0.00    -0.316 A  
HETATM   11  C   UNL     1     -10.808   9.404  69.179  1.00  0.00    -0.176 A  
HETATM   12  C   UNL     1      -9.699   9.556  70.008  1.00  0.00    -0.271 A  
HETATM   13  C   UNL     1      -8.540  10.167  69.524  1.00  0.00    -0.177 A  
HETATM   14  C   UNL     1      -8.471  10.628  68.202  1.00  0.00    -0.122 A  
HETATM   15  C   UNL     1      -7.212  11.249  67.745  1.00  0.00    -0.088 A  
HETATM   16  C   UNL     1      -6.662  11.145  66.521  1.00  0.00    -0.128 A  
HETATM   17  C   UNL     1      -7.203  10.390  65.373  1.00  0.00    -0.121 A  
HETATM   18  C   UNL     1      -6.298   9.732  64.526  1.00  0.00    -0.111 A  
HETATM   19  C   UNL     1      -6.754   8.990  63.432  1.00  0.00    -0.089 A  
HETATM   20  C   UNL     1      -8.117   8.905  63.164  1.00  0.00    -0.173 A  
HETATM   21  C   UNL     1      -9.028   9.570  63.983  1.00  0.00    -0.228 A  
HETATM   22  C   UNL     1      -8.579  10.329  65.076  1.00  0.00    -0.190 A  
ENDBRANCH   5   8
TORSDOF 1
ENDMDL
MODEL       62
REMARK 921   NORMALIZED FREE ENERGY PREDICTED BY IDOCK:   -4.96 KCAL/MOL
REMARK 922        TOTAL FREE ENERGY PREDICTED BY IDOCK:   -6.09 KCAL/MOL
REMARK 923 INTER-LIGAND FREE ENERGY PREDICTED BY IDOCK:   -5.25 KCAL/MOL
REMARK 924 INTRA-LIGAND FREE ENERGY PREDICTED BY IDOCK:   -0.84 KCAL/MOL
REMARK 927      BINDING AFFINITY PREDICTED BY RF-SCORE:    0.00 PKD
ROOT
HETATM    1  C   UNL     1     -11.704   7.704  70.593  1.00  0.00    -0.193 C  
HETATM    2  N   UNL     1     -10.325   8.101  70.316  1.00  0.00    -0.205 NA 
HETATM    3  C   UNL     1      -9.977   7.932  68.895  1.00  0.00    -0.190 C  
HETATM    4  C   UNL     1     -10.655   8.933  67.944  1.00  0.00    -0.244 C  
HETATM    5  C   UNL     1     -10.420  10.376  68.372  1.00  0.00    -0.216 C  
HETATM    6  C   UNL     1     -10.057   9.490  70.728  1.00  0.00    -0.282 C  
HETATM    7  C   UNL     1     -10.725  10.569  69.853  1.00  0.00    -0.301 C  
ENDROOT
BRANCH   5   8
HETATM    8  C   UNL     1      -9.947  11.352  67.551  1.00  0.00    -0.201 A  
HETATM    9  C   UNL     1      -8.492  11.620  67.435  1.00  0.00    -0.150 A  
HETATM   10  C   UNL     1      -7.656  10.694  66.790  1.00  0.00    -0.120 A  
HETATM   11  C   UNL     1      -6.293  10.951  66.654  1.00  0.00    -0.113 A  
HETATM   12  C   UNL     1      -5.757  12.136  67.153  1.00  0.00    -0.131 A  
HETATM   13  C   UNL     1      -6.585  13.072  67.777  1.00  0.00    -0.146 A  
HETATM   14  C   UNL     1      -7.962  12.839  67.905  1.00  0.00    -0.158 A  
HETATM   15  C   UNL     1      -8.787  13.875  68.559  1.00  0.00    -0.137 A  
HETATM   16  C   UNL     1     -10.044  14.226  68.232  1.00  0.00    -0.238 A  
HETATM   17  C   UNL     1     -10.869  13.647  67.153  1.00  0.00    -0.292 A  
HETATM   18  C   UNL     1     -11.718  14.504  66.435  1.00  0.00    -0.372 A  
HETATM   19  C   UNL     1     -12.511  14.014  65.393  1.00  0.00    -0.520 A  
HETATM   20  C   UNL     1     -12.475  12.663  65.062  1.00  0.00    -0.556 A  
HETATM   21  C   UNL     1     -11.652  11.795  65.777  1.00  0.00    -0.194 A  
HETATM   22  C   UNL     1     -10.862  12.274  66.835  1.00  0.00    -0.290 A  
ENDBRANCH   5   8
TORSDOF 1
ENDMDL
MODEL       63
REMARK 921   NORMALIZED FREE ENERGY PREDICTED BY IDOCK:   -4.95 KCAL/MOL
REMARK 922        TOTAL FREE ENERGY PREDICTED BY IDOCK:   -6.08 KCAL/MOL
REMARK 923 INTER-LIGAND FREE ENERGY PREDICTED BY IDOCK:   -5.57 KCAL/MOL
REMARK 924 INTRA-LIGAND FREE ENERGY PREDICTED BY IDOCK:   -0.51 KCAL/MOL
REMARK 927      BINDING AFFINITY PREDICTED BY RF-SCORE:    0.00 PKD
ROOT
HETATM    1  C   UNL     1     -10.911   7.487  73.161  1.00  0.00    -0.395 C  
HETATM    2  N   UNL     1     -11.794   8.098  72.170  1.00  0.00    -0.336 NA 
HETATM    3  C   UNL     1     -11.194   9.297  71.561  1.00  0.00    -0.386 C  
HETATM    4  C   UNL     1     -10.016   9.017  70.614  1.00  0.00    -0.287 C  
HETATM    5  C   UNL     1     -10.380   8.008  69.532  1.00  0.00    -0.221 C  
HETATM    6  C   UNL     1     -12.177   7.147  71.112  1.00  0.00    -0.365 C  
HETATM    7  C   UNL     1     -11.050   6.776  70.129  1.00  0.00    -0.365 C  
ENDROOT
BRANCH   5   8
HETATM    8  C   UNL     1     -10.184   8.207  68.201  1.00  0.00    -0.253 A  
HETATM    9  C   UNL     1      -9.934   7.069  67.282  1.00  0.00    -0.235 A  
HETATM   10  C   UNL     1     -10.969   6.169  66.979  1.00  0.00    -0.414 A  
HETATM   11  C   UNL     1     -10.749   5.113  66.097  1.00  0.00    -0.247 A  
HETATM   12  C   UNL     1      -9.498   4.953  65.506  1.00  0.00    -0.155 A  
HETATM   13  C   UNL     1      -8.469   5.855  65.785  1.00  0.00    -0.148 A  
HETATM   14  C   UNL     1      -8.679   6.935  66.654  1.00  0.00    -0.129 A  
HETATM   15  C   UNL     1      -7.557   7.864  66.895  1.00  0.00    -0.099 A  
HETATM   16  C   UNL     1      -7.639   9.196  67.071  1.00  0.00    -0.091 A  
HETATM   17  C   UNL     1      -8.870  10.011  67.063  1.00  0.00    -0.147 A  
HETATM   18  C   UNL     1      -8.813  11.293  66.495  1.00  0.00    -0.180 A  
HETATM   19  C   UNL     1      -9.950  12.104  66.447  1.00  0.00    -0.243 A  
HETATM   20  C   UNL     1     -11.156  11.651  66.975  1.00  0.00    -0.359 A  
HETATM   21  C   UNL     1     -11.225  10.389  67.562  1.00  0.00    -0.254 A  
HETATM   22  C   UNL     1     -10.084   9.572  67.627  1.00  0.00    -0.254 A  
ENDBRANCH   5   8
TORSDOF 1
ENDMDL
MODEL       64
REMARK 921   NORMALIZED FREE ENERGY PREDICTED BY IDOCK:   -4.94 KCAL/MOL
REMARK 922        TOTAL FREE ENERGY PREDICTED BY IDOCK:   -6.08 KCAL/MOL
REMARK 923 INTER-LIGAND FREE ENERGY PREDICTED BY IDOCK:   -5.32 KCAL/MOL
REMARK 924 INTRA-LIGAND FREE ENERGY PREDICTED BY IDOCK:   -0.75 KCAL/MOL
REMARK 927      BINDING AFFINITY PREDICTED BY RF-SCORE:    0.00 PKD
ROOT
HETATM    1  C   UNL     1      -6.262  16.705  69.649  1.00  0.00    -0.226 C  
HETATM    2  N   UNL     1      -7.124  16.860  68.480  1.00  0.00    -0.187 NA 
HETATM    3  C   UNL     1      -6.672  16.033  67.347  1.00  0.00    -0.190 C  
HETATM    4  C   UNL     1      -6.880  14.521  67.534  1.00  0.00    -0.168 C  
HETATM    5  C   UNL     1      -8.323  14.182  67.887  1.00  0.00    -0.162 C  
HETATM    6  C   UNL     1      -8.531  16.552  68.786  1.00  0.00    -0.248 C  
HETATM    7  C   UNL     1      -8.834  15.059  69.024  1.00  0.00    -0.205 C  
ENDROOT
BRANCH   5   8
HETATM    8  C   UNL     1      -9.075  13.255  67.234  1.00  0.00    -0.221 A  
HETATM    9  C   UNL     1     -10.262  13.652  66.436  1.00  0.00    -0.292 A  
HETATM   10  C   UNL     1     -10.096  14.345  65.226  1.00  0.00    -0.387 A  
HETATM   11  C   UNL     1     -11.204  14.698  64.459  1.00  0.00    -0.290 A  
HETATM   12  C   UNL     1     -12.483  14.354  64.888  1.00  0.00    -0.368 A  
HETATM   13  C   UNL     1     -12.656  13.646  66.079  1.00  0.00    -0.441 A  
HETATM   14  C   UNL     1     -11.551  13.265  66.854  1.00  0.00    -0.408 A  
HETATM   15  C   UNL     1     -11.799  12.502  68.094  1.00  0.00    -0.371 A  
HETATM   16  C   UNL     1     -11.036  11.513  68.596  1.00  0.00    -0.291 A  
HETATM   17  C   UNL     1      -9.786  10.983  68.015  1.00  0.00    -0.183 A  
HETATM   18  C   UNL     1      -9.539   9.606  68.118  1.00  0.00    -0.159 A  
HETATM   19  C   UNL     1      -8.379   9.046  67.574  1.00  0.00    -0.116 A  
HETATM   20  C   UNL     1      -7.447   9.855  66.930  1.00  0.00    -0.092 A  
HETATM   21  C   UNL     1      -7.668  11.227  66.836  1.00  0.00    -0.152 A  
HETATM   22  C   UNL     1      -8.823  11.801  67.392  1.00  0.00    -0.164 A  
ENDBRANCH   5   8
TORSDOF 1
ENDMDL
MODEL       65
REMARK 921   NORMALIZED FREE ENERGY PREDICTED BY IDOCK:   -4.94 KCAL/MOL
REMARK 922        TOTAL FREE ENERGY PREDICTED BY IDOCK:   -6.07 KCAL/MOL
REMARK 923 INTER-LIGAND FREE ENERGY PREDICTED BY IDOCK:   -5.58 KCAL/MOL
REMARK 924 INTRA-LIGAND FREE ENERGY PREDICTED BY IDOCK:   -0.49 KCAL/MOL
REMARK 927      BINDING AFFINITY PREDICTED BY RF-SCORE:    0.00 PKD
ROOT
HETATM    1  C   UNL     1     -12.620   8.533  71.633  1.00  0.00    -0.333 C  
HETATM    2  N   UNL     1     -11.595   9.573  71.686  1.00  0.00    -0.393 NA 
HETATM    3  C   UNL     1     -10.360   9.168  70.994  1.00  0.00    -0.293 C  
HETATM    4  C   UNL     1     -10.475   9.098  69.462  1.00  0.00    -0.226 C  
HETATM    5  C   UNL     1     -11.005  10.398  68.869  1.00  0.00    -0.289 C  
HETATM    6  C   UNL     1     -12.075  10.851  71.131  1.00  0.00    -0.281 C  
HETATM    7  C   UNL     1     -12.256  10.869  69.600  1.00  0.00    -0.354 C  
ENDROOT
BRANCH   5   8
HETATM    8  C   UNL     1     -10.405  11.078  67.855  1.00  0.00    -0.213 A  
HETATM    9  C   UNL     1      -9.448  10.408  66.940  1.00  0.00    -0.196 A  
HETATM   10  C   UNL     1      -9.909   9.462  66.010  1.00  0.00    -0.366 A  
HETATM   11  C   UNL     1      -9.021   8.848  65.130  1.00  0.00    -0.189 A  
HETATM   12  C   UNL     1      -7.669   9.180  65.165  1.00  0.00    -0.104 A  
HETATM   13  C   UNL     1      -7.205  10.136  66.072  1.00  0.00    -0.118 A  
HETATM   14  C   UNL     1      -8.088  10.778  66.951  1.00  0.00    -0.132 A  
HETATM   15  C   UNL     1      -7.539  11.792  67.874  1.00  0.00    -0.121 A  
HETATM   16  C   UNL     1      -8.140  12.930  68.268  1.00  0.00    -0.151 A  
HETATM   17  C   UNL     1      -9.478  13.405  67.864  1.00  0.00    -0.216 A  
HETATM   18  C   UNL     1      -9.662  14.783  67.671  1.00  0.00    -0.213 A  
HETATM   19  C   UNL     1     -10.903  15.289  67.275  1.00  0.00    -0.318 A  
HETATM   20  C   UNL     1     -11.979  14.428  67.077  1.00  0.00    -0.424 A  
HETATM   21  C   UNL     1     -11.819  13.060  67.283  1.00  0.00    -0.419 A  
HETATM   22  C   UNL     1     -10.579  12.543  67.695  1.00  0.00    -0.234 A  
ENDBRANCH   5   8
TORSDOF 1
ENDMDL
MODEL       66
REMARK 921   NORMALIZED FREE ENERGY PREDICTED BY IDOCK:   -4.93 KCAL/MOL
REMARK 922        TOTAL FREE ENERGY PREDICTED BY IDOCK:   -6.06 KCAL/MOL
REMARK 923 INTER-LIGAND FREE ENERGY PREDICTED BY IDOCK:   -5.22 KCAL/MOL
REMARK 924 INTRA-LIGAND FREE ENERGY PREDICTED BY IDOCK:   -0.84 KCAL/MOL
REMARK 927      BINDING AFFINITY PREDICTED BY RF-SCORE:    0.00 PKD
ROOT
HETATM    1  C   UNL     1      -8.363   6.519  65.360  1.00  0.00    -0.140 C  
HETATM    2  N   UNL     1      -7.828   7.875  65.456  1.00  0.00    -0.105 NA 
HETATM    3  C   UNL     1      -8.875   8.896  65.278  1.00  0.00    -0.184 C  
HETATM    4  C   UNL     1      -9.871   9.005  66.444  1.00  0.00    -0.356 C  
HETATM    5  C   UNL     1      -9.167   9.206  67.780  1.00  0.00    -0.145 C  
HETATM    6  C   UNL     1      -7.128   8.104  66.732  1.00  0.00    -0.077 C  
HETATM    7  C   UNL     1      -8.043   8.194  67.969  1.00  0.00    -0.128 C  
ENDROOT
BRANCH   5   8
HETATM    8  C   UNL     1      -9.465  10.197  68.663  1.00  0.00    -0.164 A  
HETATM    9  C   UNL     1     -10.469   9.992  69.737  1.00  0.00    -0.291 A  
HETATM   10  C   UNL     1     -10.180   9.140  70.816  1.00  0.00    -0.325 A  
HETATM   11  C   UNL     1     -11.106   8.963  71.841  1.00  0.00    -0.442 A  
HETATM   12  C   UNL     1     -12.323   9.641  71.802  1.00  0.00    -0.474 A  
HETATM   13  C   UNL     1     -12.609  10.507  70.744  1.00  0.00    -0.474 A  
HETATM   14  C   UNL     1     -11.680  10.712  69.714  1.00  0.00    -0.385 A  
HETATM   15  C   UNL     1     -12.035  11.654  68.633  1.00  0.00    -0.311 A  
HETATM   16  C   UNL     1     -11.201  12.493  67.992  1.00  0.00    -0.316 A  
HETATM   17  C   UNL     1      -9.752  12.648  68.230  1.00  0.00    -0.216 A  
HETATM   18  C   UNL     1      -9.198  13.934  68.134  1.00  0.00    -0.202 A  
HETATM   19  C   UNL     1      -7.835  14.143  68.363  1.00  0.00    -0.143 A  
HETATM   20  C   UNL     1      -7.006  13.070  68.680  1.00  0.00    -0.102 A  
HETATM   21  C   UNL     1      -7.536  11.784  68.760  1.00  0.00    -0.104 A  
HETATM   22  C   UNL     1      -8.902  11.562  68.518  1.00  0.00    -0.139 A  
ENDBRANCH   5   8
TORSDOF 1
ENDMDL
MODEL       67
REMARK 921   NORMALIZED FREE ENERGY PREDICTED BY IDOCK:   -4.93 KCAL/MOL
REMARK 922        TOTAL FREE ENERGY PREDICTED BY IDOCK:   -6.06 KCAL/MOL
REMARK 923 INTER-LIGAND FREE ENERGY PREDICTED BY IDOCK:   -5.32 KCAL/MOL
REMARK 924 INTRA-LIGAND FREE ENERGY PREDICTED BY IDOCK:   -0.75 KCAL/MOL
REMARK 927      BINDING AFFINITY PREDICTED BY RF-SCORE:    0.00 PKD
ROOT
HETATM    1  C   UNL     1     -12.887  13.338  64.982  1.00  0.00    -0.289 C  
HETATM    2  N   UNL     1     -11.526  13.550  65.470  1.00  0.00    -0.301 NA 
HETATM    3  C   UNL     1     -11.397  13.233  66.903  1.00  0.00    -0.318 C  
HETATM    4  C   UNL     1     -11.485  11.736  67.240  1.00  0.00    -0.373 C  
HETATM    5  C   UNL     1     -10.495  10.908  66.430  1.00  0.00    -0.307 C  
HETATM    6  C   UNL     1     -10.537  12.773  64.702  1.00  0.00    -0.349 C  
HETATM    7  C   UNL     1     -10.571  11.252  64.947  1.00  0.00    -0.364 C  
ENDROOT
BRANCH   5   8
HETATM    8  C   UNL     1      -9.618  10.019  66.969  1.00  0.00    -0.212 A  
HETATM    9  C   UNL     1     -10.090   8.769  67.615  1.00  0.00    -0.273 A  
HETATM   10  C   UNL     1     -10.633   7.735  66.835  1.00  0.00    -0.347 A  
HETATM   11  C   UNL     1     -11.054   6.549  67.431  1.00  0.00    -0.411 A  
HETATM   12  C   UNL     1     -10.929   6.382  68.808  1.00  0.00    -0.404 A  
HETATM   13  C   UNL     1     -10.369   7.396  69.589  1.00  0.00    -0.226 A  
HETATM   14  C   UNL     1      -9.922   8.589  69.003  1.00  0.00    -0.197 A  
HETATM   15  C   UNL     1      -9.324   9.615  69.880  1.00  0.00    -0.256 A  
HETATM   16  C   UNL     1      -8.296  10.430  69.580  1.00  0.00    -0.126 A  
HETATM   17  C   UNL     1      -7.549  10.473  68.306  1.00  0.00    -0.096 A  
HETATM   18  C   UNL     1      -6.168  10.715  68.356  1.00  0.00    -0.050 A  
HETATM   19  C   UNL     1      -5.407  10.754  67.184  1.00  0.00    -0.044 A  
HETATM   20  C   UNL     1      -6.017  10.561  65.947  1.00  0.00    -0.121 A  
HETATM   21  C   UNL     1      -7.391  10.340  65.879  1.00  0.00    -0.131 A  
HETATM   22  C   UNL     1      -8.166  10.314  67.050  1.00  0.00    -0.122 A  
ENDBRANCH   5   8
TORSDOF 1
ENDMDL
MODEL       68
REMARK 921   NORMALIZED FREE ENERGY PREDICTED BY IDOCK:   -4.93 KCAL/MOL
REMARK 922        TOTAL FREE ENERGY PREDICTED BY IDOCK:   -6.06 KCAL/MOL
REMARK 923 INTER-LIGAND FREE ENERGY PREDICTED BY IDOCK:   -5.35 KCAL/MOL
REMARK 924 INTRA-LIGAND FREE ENERGY PREDICTED BY IDOCK:   -0.71 KCAL/MOL
REMARK 927      BINDING AFFINITY PREDICTED BY RF-SCORE:    0.00 PKD
ROOT
HETATM    1  C   UNL     1      -5.605   9.052  73.203  1.00  0.00    -0.081 C  
HETATM    2  N   UNL     1      -5.919   8.083  72.155  1.00  0.00    -0.040 NA 
HETATM    3  C   UNL     1      -7.044   7.210  72.529  1.00  0.00    -0.068 C  
HETATM    4  C   UNL     1      -8.415   7.905  72.557  1.00  0.00    -0.197 C  
HETATM    5  C   UNL     1      -8.720   8.619  71.246  1.00  0.00    -0.246 C  
HETATM    6  C   UNL     1      -6.208   8.737  70.867  1.00  0.00    -0.043 C  
HETATM    7  C   UNL     1      -7.550   9.493  70.808  1.00  0.00    -0.099 C  
ENDROOT
BRANCH   5   8
HETATM    8  C   UNL     1      -9.865   8.455  70.531  1.00  0.00    -0.204 A  
HETATM    9  C   UNL     1     -11.189   8.793  71.111  1.00  0.00    -0.339 A  
HETATM   10  C   UNL     1     -11.538  10.136  71.329  1.00  0.00    -0.387 A  
HETATM   11  C   UNL     1     -12.789  10.463  71.849  1.00  0.00    -0.519 A  
HETATM   12  C   UNL     1     -13.702   9.455  72.146  1.00  0.00    -0.490 A  
HETATM   13  C   UNL     1     -13.372   8.118  71.911  1.00  0.00    -0.350 A  
HETATM   14  C   UNL     1     -12.125   7.772  71.370  1.00  0.00    -0.335 A  
HETATM   15  C   UNL     1     -11.842   6.343  71.129  1.00  0.00    -0.325 A  
HETATM   16  C   UNL     1     -11.142   5.823  70.104  1.00  0.00    -0.323 A  
HETATM   17  C   UNL     1     -10.502   6.573  69.004  1.00  0.00    -0.252 A  
HETATM   18  C   UNL     1     -10.513   6.005  67.721  1.00  0.00    -0.300 A  
HETATM   19  C   UNL     1      -9.936   6.676  66.639  1.00  0.00    -0.203 A  
HETATM   20  C   UNL     1      -9.332   7.916  66.825  1.00  0.00    -0.232 A  
HETATM   21  C   UNL     1      -9.295   8.485  68.097  1.00  0.00    -0.145 A  
HETATM   22  C   UNL     1      -9.859   7.812  69.193  1.00  0.00    -0.173 A  
ENDBRANCH   5   8
TORSDOF 1
ENDMDL
MODEL       69
REMARK 921   NORMALIZED FREE ENERGY PREDICTED BY IDOCK:   -4.90 KCAL/MOL
REMARK 922        TOTAL FREE ENERGY PREDICTED BY IDOCK:   -6.03 KCAL/MOL
REMARK 923 INTER-LIGAND FREE ENERGY PREDICTED BY IDOCK:   -5.42 KCAL/MOL
REMARK 924 INTRA-LIGAND FREE ENERGY PREDICTED BY IDOCK:   -0.61 KCAL/MOL
REMARK 927      BINDING AFFINITY PREDICTED BY RF-SCORE:    0.00 PKD
ROOT
HETATM    1  C   UNL     1      -6.102   8.750  62.559  1.00  0.00    -0.095 C  
HETATM    2  N   UNL     1      -7.131   8.128  63.390  1.00  0.00    -0.084 NA 
HETATM    3  C   UNL     1      -6.981   8.481  64.812  1.00  0.00    -0.073 C  
HETATM    4  C   UNL     1      -7.324   9.941  65.151  1.00  0.00    -0.133 C  
HETATM    5  C   UNL     1      -8.713  10.331  64.659  1.00  0.00    -0.203 C  
HETATM    6  C   UNL     1      -8.490   8.473  62.937  1.00  0.00    -0.091 C  
HETATM    7  C   UNL     1      -8.914   9.931  63.202  1.00  0.00    -0.275 C  
ENDROOT
BRANCH   5   8
HETATM    8  C   UNL     1      -9.667  10.910  65.436  1.00  0.00    -0.287 A  
HETATM    9  C   UNL     1     -10.434  12.088  64.962  1.00  0.00    -0.327 A  
HETATM   10  C   UNL     1     -11.382  11.943  63.935  1.00  0.00    -0.509 A  
HETATM   11  C   UNL     1     -12.124  13.040  63.502  1.00  0.00    -0.617 A  
HETATM   12  C   UNL     1     -11.934  14.285  64.096  1.00  0.00    -0.401 A  
HETATM   13  C   UNL     1     -11.009  14.433  65.133  1.00  0.00    -0.380 A  
HETATM   14  C   UNL     1     -10.268  13.336  65.595  1.00  0.00    -0.295 A  
HETATM   15  C   UNL     1      -9.319  13.554  66.705  1.00  0.00    -0.262 A  
HETATM   16  C   UNL     1      -9.041  12.697  67.705  1.00  0.00    -0.192 A  
HETATM   17  C   UNL     1      -9.622  11.354  67.901  1.00  0.00    -0.180 A  
HETATM   18  C   UNL     1      -9.882  10.930  69.214  1.00  0.00    -0.113 A  
HETATM   19  C   UNL     1     -10.445   9.675  69.460  1.00  0.00    -0.240 A  
HETATM   20  C   UNL     1     -10.746   8.823  68.401  1.00  0.00    -0.112 A  
HETATM   21  C   UNL     1     -10.475   9.220  67.093  1.00  0.00    -0.319 A  
HETATM   22  C   UNL     1      -9.896  10.474  66.836  1.00  0.00    -0.235 A  
ENDBRANCH   5   8
TORSDOF 1
ENDMDL
MODEL       70
REMARK 921   NORMALIZED FREE ENERGY PREDICTED BY IDOCK:   -4.83 KCAL/MOL
REMARK 922        TOTAL FREE ENERGY PREDICTED BY IDOCK:   -5.96 KCAL/MOL
REMARK 923 INTER-LIGAND FREE ENERGY PREDICTED BY IDOCK:   -5.13 KCAL/MOL
REMARK 924 INTRA-LIGAND FREE ENERGY PREDICTED BY IDOCK:   -0.83 KCAL/MOL
REMARK 927      BINDING AFFINITY PREDICTED BY RF-SCORE:    0.00 PKD
ROOT
HETATM    1  C   UNL     1     -12.460   7.037  71.579  1.00  0.00    -0.386 C  
HETATM    2  N   UNL     1     -11.030   7.337  71.575  1.00  0.00    -0.232 NA 
HETATM    3  C   UNL     1     -10.377   6.896  70.331  1.00  0.00    -0.202 C  
HETATM    4  C   UNL     1     -10.745   7.721  69.086  1.00  0.00    -0.139 C  
HETATM    5  C   UNL     1     -10.513   9.211  69.298  1.00  0.00    -0.231 C  
HETATM    6  C   UNL     1     -10.766   8.770  71.790  1.00  0.00    -0.343 C  
HETATM    7  C   UNL     1     -11.135   9.685  70.606  1.00  0.00    -0.384 C  
ENDROOT
BRANCH   5   8
HETATM    8  C   UNL     1      -9.795  10.003  68.457  1.00  0.00    -0.168 A  
HETATM    9  C   UNL     1     -10.462  10.822  67.415  1.00  0.00    -0.268 A  
HETATM   10  C   UNL     1     -11.232  11.938  67.782  1.00  0.00    -0.330 A  
HETATM   11  C   UNL     1     -11.840  12.726  66.808  1.00  0.00    -0.452 A  
HETATM   12  C   UNL     1     -11.678  12.412  65.461  1.00  0.00    -0.459 A  
HETATM   13  C   UNL     1     -10.896  11.317  65.085  1.00  0.00    -0.268 A  
HETATM   14  C   UNL     1     -10.260  10.524  66.052  1.00  0.00    -0.310 A  
HETATM   15  C   UNL     1      -9.434   9.391  65.590  1.00  0.00    -0.328 A  
HETATM   16  C   UNL     1      -8.286   8.956  66.142  1.00  0.00    -0.125 A  
HETATM   17  C   UNL     1      -7.611   9.517  67.329  1.00  0.00    -0.091 A  
HETATM   18  C   UNL     1      -6.208   9.549  67.341  1.00  0.00    -0.060 A  
HETATM   19  C   UNL     1      -5.515  10.081  68.432  1.00  0.00    -0.039 A  
HETATM   20  C   UNL     1      -6.213  10.579  69.529  1.00  0.00    -0.054 A  
HETATM   21  C   UNL     1      -7.606  10.536  69.542  1.00  0.00    -0.148 A  
HETATM   22  C   UNL     1      -8.311   9.990  68.457  1.00  0.00    -0.113 A  
ENDBRANCH   5   8
TORSDOF 1
ENDMDL
MODEL       71
REMARK 921   NORMALIZED FREE ENERGY PREDICTED BY IDOCK:   -4.83 KCAL/MOL
REMARK 922        TOTAL FREE ENERGY PREDICTED BY IDOCK:   -5.95 KCAL/MOL
REMARK 923 INTER-LIGAND FREE ENERGY PREDICTED BY IDOCK:   -5.43 KCAL/MOL
REMARK 924 INTRA-LIGAND FREE ENERGY PREDICTED BY IDOCK:   -0.53 KCAL/MOL
REMARK 927      BINDING AFFINITY PREDICTED BY RF-SCORE:    0.00 PKD
ROOT
HETATM    1  C   UNL     1     -12.145  14.063  68.104  1.00  0.00    -0.272 C  
HETATM    2  N   UNL     1     -11.184  13.639  69.120  1.00  0.00    -0.263 NA 
HETATM    3  C   UNL     1     -11.790  12.731  70.109  1.00  0.00    -0.251 C  
HETATM    4  C   UNL     1     -12.126  11.329  69.573  1.00  0.00    -0.386 C  
HETATM    5  C   UNL     1     -10.921  10.663  68.920  1.00  0.00    -0.296 C  
HETATM    6  C   UNL     1      -9.998  13.000  68.524  1.00  0.00    -0.172 C  
HETATM    7  C   UNL     1     -10.243  11.600  67.927  1.00  0.00    -0.203 C  
ENDROOT
BRANCH   5   8
HETATM    8  C   UNL     1     -10.475   9.415  69.226  1.00  0.00    -0.230 A  
HETATM    9  C   UNL     1     -10.589   8.874  70.603  1.00  0.00    -0.277 A  
HETATM   10  C   UNL     1     -11.848   8.534  71.124  1.00  0.00    -0.322 A  
HETATM   11  C   UNL     1     -11.960   8.002  72.406  1.00  0.00    -0.405 A  
HETATM   12  C   UNL     1     -10.816   7.797  73.174  1.00  0.00    -0.401 A  
HETATM   13  C   UNL     1      -9.558   8.111  72.656  1.00  0.00    -0.352 A  
HETATM   14  C   UNL     1      -9.425   8.629  71.360  1.00  0.00    -0.306 A  
HETATM   15  C   UNL     1      -8.066   8.926  70.863  1.00  0.00    -0.196 A  
HETATM   16  C   UNL     1      -7.617   8.765  69.605  1.00  0.00    -0.076 A  
HETATM   17  C   UNL     1      -8.390   8.263  68.451  1.00  0.00    -0.132 A  
HETATM   18  C   UNL     1      -7.732   7.449  67.516  1.00  0.00    -0.111 A  
HETATM   19  C   UNL     1      -8.416   6.933  66.412  1.00  0.00    -0.130 A  
HETATM   20  C   UNL     1      -9.762   7.231  66.221  1.00  0.00    -0.068 A  
HETATM   21  C   UNL     1     -10.426   8.053  67.129  1.00  0.00    -0.408 A  
HETATM   22  C   UNL     1      -9.743   8.588  68.234  1.00  0.00    -0.171 A  
ENDBRANCH   5   8
TORSDOF 1
ENDMDL
MODEL       72
REMARK 921   NORMALIZED FREE ENERGY PREDICTED BY IDOCK:   -4.82 KCAL/MOL
REMARK 922        TOTAL FREE ENERGY PREDICTED BY IDOCK:   -5.95 KCAL/MOL
REMARK 923 INTER-LIGAND FREE ENERGY PREDICTED BY IDOCK:   -5.29 KCAL/MOL
REMARK 924 INTRA-LIGAND FREE ENERGY PREDICTED BY IDOCK:   -0.66 KCAL/MOL
REMARK 927      BINDING AFFINITY PREDICTED BY RF-SCORE:    0.00 PKD
ROOT
HETATM    1  C   UNL     1     -11.064   9.018  71.671  1.00  0.00    -0.363 C  
HETATM    2  N   UNL     1     -11.437   9.047  70.259  1.00  0.00    -0.185 NA 
HETATM    3  C   UNL     1     -12.253  10.227  69.926  1.00  0.00    -0.061 C  
HETATM    4  C   UNL     1     -11.488  11.561  69.945  1.00  0.00    -0.340 C  
HETATM    5  C   UNL     1     -10.245  11.520  69.065  1.00  0.00    -0.109 C  
HETATM    6  C   UNL     1     -10.259   8.996  69.376  1.00  0.00    -0.204 C  
HETATM    7  C   UNL     1      -9.407  10.280  69.353  1.00  0.00    -0.217 C  
ENDROOT
BRANCH   5   8
HETATM    8  C   UNL     1      -9.951  12.441  68.109  1.00  0.00    -0.215 A  
HETATM    9  C   UNL     1      -8.657  13.167  68.113  1.00  0.00    -0.181 A  
HETATM   10  C   UNL     1      -7.468  12.488  67.799  1.00  0.00    -0.130 A  
HETATM   11  C   UNL     1      -6.253  13.168  67.775  1.00  0.00    -0.156 A  
HETATM   12  C   UNL     1      -6.216  14.532  68.055  1.00  0.00    -0.162 A  
HETATM   13  C   UNL     1      -7.396  15.221  68.346  1.00  0.00    -0.114 A  
HETATM   14  C   UNL     1      -8.631  14.556  68.355  1.00  0.00    -0.172 A  
HETATM   15  C   UNL     1      -9.844  15.343  68.652  1.00  0.00    -0.208 A  
HETATM   16  C   UNL     1     -11.063  15.180  68.105  1.00  0.00    -0.306 A  
HETATM   17  C   UNL     1     -11.446  14.175  67.092  1.00  0.00    -0.373 A  
HETATM   18  C   UNL     1     -12.367  14.551  66.102  1.00  0.00    -0.229 A  
HETATM   19  C   UNL     1     -12.757  13.647  65.110  1.00  0.00    -0.443 A  
HETATM   20  C   UNL     1     -12.241  12.354  65.099  1.00  0.00    -0.449 A  
HETATM   21  C   UNL     1     -11.341  11.959  66.087  1.00  0.00    -0.383 A  
HETATM   22  C   UNL     1     -10.954  12.855  67.097  1.00  0.00    -0.290 A  
ENDBRANCH   5   8
TORSDOF 1
ENDMDL
MODEL       73
REMARK 921   NORMALIZED FREE ENERGY PREDICTED BY IDOCK:   -4.81 KCAL/MOL
REMARK 922        TOTAL FREE ENERGY PREDICTED BY IDOCK:   -5.93 KCAL/MOL
REMARK 923 INTER-LIGAND FREE ENERGY PREDICTED BY IDOCK:   -5.47 KCAL/MOL
REMARK 924 INTRA-LIGAND FREE ENERGY PREDICTED BY IDOCK:   -0.46 KCAL/MOL
REMARK 927      BINDING AFFINITY PREDICTED BY RF-SCORE:    0.00 PKD
ROOT
HETATM    1  C   UNL     1     -11.554  13.238  68.884  1.00  0.00    -0.314 C  
HETATM    2  N   UNL     1     -12.062  11.938  68.451  1.00  0.00    -0.433 NA 
HETATM    3  C   UNL     1     -11.086  11.210  67.624  1.00  0.00    -0.287 C  
HETATM    4  C   UNL     1      -9.860  10.685  68.390  1.00  0.00    -0.170 C  
HETATM    5  C   UNL     1     -10.258   9.841  69.595  1.00  0.00    -0.254 C  
HETATM    6  C   UNL     1     -12.469  11.097  69.590  1.00  0.00    -0.128 C  
HETATM    7  C   UNL     1     -11.308  10.550  70.443  1.00  0.00    -0.411 C  
ENDROOT
BRANCH   5   8
HETATM    8  C   UNL     1      -9.780   8.593  69.849  1.00  0.00    -0.175 A  
HETATM    9  C   UNL     1      -9.112   7.796  68.790  1.00  0.00    -0.140 A  
HETATM   10  C   UNL     1      -7.841   8.170  68.324  1.00  0.00    -0.122 A  
HETATM   11  C   UNL     1      -7.197   7.411  67.349  1.00  0.00    -0.093 A  
HETATM   12  C   UNL     1      -7.812   6.270  66.839  1.00  0.00    -0.104 A  
HETATM   13  C   UNL     1      -9.066   5.878  67.313  1.00  0.00    -0.111 A  
HETATM   14  C   UNL     1      -9.720   6.619  68.308  1.00  0.00    -0.132 A  
HETATM   15  C   UNL     1     -11.036   6.143  68.780  1.00  0.00    -0.421 A  
HETATM   16  C   UNL     1     -11.510   6.205  70.037  1.00  0.00    -0.369 A  
HETATM   17  C   UNL     1     -10.816   6.766  71.214  1.00  0.00    -0.266 A  
HETATM   18  C   UNL     1     -10.993   6.131  72.453  1.00  0.00    -0.299 A  
HETATM   19  C   UNL     1     -10.350   6.609  73.598  1.00  0.00    -0.343 A  
HETATM   20  C   UNL     1      -9.531   7.733  73.524  1.00  0.00    -0.346 A  
HETATM   21  C   UNL     1      -9.362   8.387  72.305  1.00  0.00    -0.356 A  
HETATM   22  C   UNL     1     -10.015   7.923  71.152  1.00  0.00    -0.198 A  
ENDBRANCH   5   8
TORSDOF 1
ENDMDL
MODEL       74
REMARK 921   NORMALIZED FREE ENERGY PREDICTED BY IDOCK:   -4.78 KCAL/MOL
REMARK 922        TOTAL FREE ENERGY PREDICTED BY IDOCK:   -5.90 KCAL/MOL
REMARK 923 INTER-LIGAND FREE ENERGY PREDICTED BY IDOCK:   -5.11 KCAL/MOL
REMARK 924 INTRA-LIGAND FREE ENERGY PREDICTED BY IDOCK:   -0.79 KCAL/MOL
REMARK 927      BINDING AFFINITY PREDICTED BY RF-SCORE:    0.00 PKD
ROOT
HETATM    1  C   UNL     1      -8.996   5.352  65.802  1.00  0.00    -0.158 C  
HETATM    2  N   UNL     1      -9.545   6.652  66.183  1.00  0.00    -0.038 NA 
HETATM    3  C   UNL     1     -10.845   6.525  66.862  1.00  0.00    -0.357 C  
HETATM    4  C   UNL     1     -10.774   5.931  68.279  1.00  0.00    -0.319 C  
HETATM    5  C   UNL     1      -9.791   6.684  69.166  1.00  0.00    -0.155 C  
HETATM    6  C   UNL     1      -8.615   7.416  67.033  1.00  0.00    -0.119 C  
HETATM    7  C   UNL     1      -8.450   6.875  68.466  1.00  0.00    -0.123 C  
ENDROOT
BRANCH   5   8
HETATM    8  C   UNL     1     -10.090   7.172  70.400  1.00  0.00    -0.199 A  
HETATM    9  C   UNL     1      -9.621   6.489  71.631  1.00  0.00    -0.167 A  
HETATM   10  C   UNL     1      -8.258   6.510  71.971  1.00  0.00    -0.107 A  
HETATM   11  C   UNL     1      -7.814   5.894  73.139  1.00  0.00    -0.102 A  
HETATM   12  C   UNL     1      -8.726   5.260  73.979  1.00  0.00    -0.117 A  
HETATM   13  C   UNL     1     -10.086   5.253  73.660  1.00  0.00    -0.213 A  
HETATM   14  C   UNL     1     -10.554   5.886  72.499  1.00  0.00    -0.256 A  
HETATM   15  C   UNL     1     -12.005   5.858  72.226  1.00  0.00    -0.211 A  
HETATM   16  C   UNL     1     -12.737   6.842  71.672  1.00  0.00    -0.360 A  
HETATM   17  C   UNL     1     -12.245   8.157  71.215  1.00  0.00    -0.302 A  
HETATM   18  C   UNL     1     -13.071   9.276  71.401  1.00  0.00    -0.387 A  
HETATM   19  C   UNL     1     -12.652  10.548  71.001  1.00  0.00    -0.499 A  
HETATM   20  C   UNL     1     -11.407  10.718  70.401  1.00  0.00    -0.342 A  
HETATM   21  C   UNL     1     -10.583   9.614  70.190  1.00  0.00    -0.320 A  
HETATM   22  C   UNL     1     -11.001   8.330  70.576  1.00  0.00    -0.253 A  
ENDBRANCH   5   8
TORSDOF 1
ENDMDL
MODEL       75
REMARK 921   NORMALIZED FREE ENERGY PREDICTED BY IDOCK:   -4.74 KCAL/MOL
REMARK 922        TOTAL FREE ENERGY PREDICTED BY IDOCK:   -5.86 KCAL/MOL
REMARK 923 INTER-LIGAND FREE ENERGY PREDICTED BY IDOCK:   -5.14 KCAL/MOL
REMARK 924 INTRA-LIGAND FREE ENERGY PREDICTED BY IDOCK:   -0.72 KCAL/MOL
REMARK 927      BINDING AFFINITY PREDICTED BY RF-SCORE:    0.00 PKD
ROOT
HETATM    1  C   UNL     1      -9.015   9.159  63.634  1.00  0.00     0.054 C  
HETATM    2  N   UNL     1      -8.582  10.461  64.136  1.00  0.00    -0.182 NA 
HETATM    3  C   UNL     1      -9.718  11.291  64.573  1.00  0.00    -0.253 C  
HETATM    4  C   UNL     1     -10.405  10.812  65.863  1.00  0.00    -0.302 C  
HETATM    5  C   UNL     1      -9.414  10.639  67.007  1.00  0.00    -0.187 C  
HETATM    6  C   UNL     1      -7.613  10.333  65.238  1.00  0.00    -0.143 C  
HETATM    7  C   UNL     1      -8.202   9.825  66.569  1.00  0.00    -0.120 C  
ENDROOT
BRANCH   5   8
HETATM    8  C   UNL     1      -9.566  11.187  68.242  1.00  0.00    -0.185 A  
HETATM    9  C   UNL     1      -9.743  10.335  69.445  1.00  0.00    -0.242 A  
HETATM   10  C   UNL     1      -8.668   9.574  69.932  1.00  0.00    -0.224 A  
HETATM   11  C   UNL     1      -8.819   8.792  71.075  1.00  0.00    -0.260 A  
HETATM   12  C   UNL     1     -10.040   8.771  71.744  1.00  0.00    -0.403 A  
HETATM   13  C   UNL     1     -11.108   9.541  71.279  1.00  0.00    -0.449 A  
HETATM   14  C   UNL     1     -10.968  10.349  70.142  1.00  0.00    -0.365 A  
HETATM   15  C   UNL     1     -12.129  11.154  69.711  1.00  0.00    -0.414 A  
HETATM   16  C   UNL     1     -12.098  12.389  69.179  1.00  0.00    -0.195 A  
HETATM   17  C   UNL     1     -10.895  13.203  68.910  1.00  0.00    -0.240 A  
HETATM   18  C   UNL     1     -10.973  14.589  69.113  1.00  0.00    -0.286 A  
HETATM   19  C   UNL     1      -9.862  15.408  68.888  1.00  0.00    -0.216 A  
HETATM   20  C   UNL     1      -8.663  14.854  68.447  1.00  0.00    -0.172 A  
HETATM   21  C   UNL     1      -8.575  13.482  68.221  1.00  0.00    -0.168 A  
HETATM   22  C   UNL     1      -9.689  12.654  68.431  1.00  0.00    -0.187 A  
ENDBRANCH   5   8
TORSDOF 1
ENDMDL
MODEL       76
REMARK 921   NORMALIZED FREE ENERGY PREDICTED BY IDOCK:   -4.68 KCAL/MOL
REMARK 922        TOTAL FREE ENERGY PREDICTED BY IDOCK:   -5.80 KCAL/MOL
REMARK 923 INTER-LIGAND FREE ENERGY PREDICTED BY IDOCK:   -4.95 KCAL/MOL
REMARK 924 INTRA-LIGAND FREE ENERGY PREDICTED BY IDOCK:   -0.84 KCAL/MOL
REMARK 927      BINDING AFFINITY PREDICTED BY RF-SCORE:    0.00 PKD
ROOT
HETATM    1  C   UNL     1      -9.495  12.932  66.757  1.00  0.00    -0.245 C  
HETATM    2  N   UNL     1      -9.477  11.608  66.139  1.00  0.00    -0.219 NA 
HETATM    3  C   UNL     1      -8.413  10.754  66.694  1.00  0.00    -0.142 C  
HETATM    4  C   UNL     1      -8.656  10.283  68.137  1.00  0.00    -0.119 C  
HETATM    5  C   UNL     1     -10.010   9.602  68.297  1.00  0.00    -0.178 C  
HETATM    6  C   UNL     1     -10.775  10.923  66.263  1.00  0.00    -0.176 C  
HETATM    7  C   UNL     1     -11.125  10.442  67.685  1.00  0.00    -0.361 C  
ENDROOT
BRANCH   5   8
HETATM    8  C   UNL     1     -10.191   8.379  68.862  1.00  0.00    -0.223 A  
HETATM    9  C   UNL     1     -10.470   8.235  70.312  1.00  0.00    -0.221 A  
HETATM   10  C   UNL     1     -11.709   8.642  70.834  1.00  0.00    -0.287 A  
HETATM   11  C   UNL     1     -11.987   8.486  72.191  1.00  0.00    -0.451 A  
HETATM   12  C   UNL     1     -11.036   7.917  73.033  1.00  0.00    -0.398 A  
HETATM   13  C   UNL     1      -9.809   7.489  72.519  1.00  0.00    -0.226 A  
HETATM   14  C   UNL     1      -9.520   7.620  71.153  1.00  0.00    -0.163 A  
HETATM   15  C   UNL     1      -8.213   7.133  70.667  1.00  0.00    -0.117 A  
HETATM   16  C   UNL     1      -7.965   6.538  69.486  1.00  0.00    -0.117 A  
HETATM   17  C   UNL     1      -8.947   6.250  68.422  1.00  0.00    -0.116 A  
HETATM   18  C   UNL     1      -8.805   5.057  67.695  1.00  0.00    -0.104 A  
HETATM   19  C   UNL     1      -9.713   4.724  66.685  1.00  0.00    -0.205 A  
HETATM   20  C   UNL     1     -10.766   5.582  66.381  1.00  0.00    -0.262 A  
HETATM   21  C   UNL     1     -10.909   6.779  67.079  1.00  0.00    -0.453 A  
HETATM   22  C   UNL     1      -9.995   7.129  68.086  1.00  0.00    -0.172 A  
ENDBRANCH   5   8
TORSDOF 1
ENDMDL
MODEL       77
REMARK 921   NORMALIZED FREE ENERGY PREDICTED BY IDOCK:   -4.66 KCAL/MOL
REMARK 922        TOTAL FREE ENERGY PREDICTED BY IDOCK:   -5.78 KCAL/MOL
REMARK 923 INTER-LIGAND FREE ENERGY PREDICTED BY IDOCK:   -5.34 KCAL/MOL
REMARK 924 INTRA-LIGAND FREE ENERGY PREDICTED BY IDOCK:   -0.43 KCAL/MOL
REMARK 927      BINDING AFFINITY PREDICTED BY RF-SCORE:    0.00 PKD
ROOT
HETATM    1  C   UNL     1     -12.252  13.160  66.310  1.00  0.00    -0.355 C  
HETATM    2  N   UNL     1     -10.942  13.020  66.941  1.00  0.00    -0.261 NA 
HETATM    3  C   UNL     1     -11.039  12.451  68.296  1.00  0.00    -0.243 C  
HETATM    4  C   UNL     1     -11.428  10.964  68.340  1.00  0.00    -0.374 C  
HETATM    5  C   UNL     1     -10.510  10.107  67.477  1.00  0.00    -0.304 C  
HETATM    6  C   UNL     1     -10.022  12.206  66.128  1.00  0.00    -0.233 C  
HETATM    7  C   UNL     1     -10.350  10.701  66.083  1.00  0.00    -0.291 C  
ENDROOT
BRANCH   5   8
HETATM    8  C   UNL     1      -9.872   8.988  67.913  1.00  0.00    -0.207 A  
HETATM    9  C   UNL     1      -9.067   8.152  66.988  1.00  0.00    -0.170 A  
HETATM   10  C   UNL     1      -7.845   8.634  66.488  1.00  0.00    -0.099 A  
HETATM   11  C   UNL     1      -7.071   7.845  65.640  1.00  0.00    -0.056 A  
HETATM   12  C   UNL     1      -7.505   6.569  65.292  1.00  0.00    -0.082 A  
HETATM   13  C   UNL     1      -8.707   6.073  65.801  1.00  0.00    -0.155 A  
HETATM   14  C   UNL     1      -9.490   6.845  66.672  1.00  0.00    -0.209 A  
HETATM   15  C   UNL     1     -10.741   6.258  67.191  1.00  0.00    -0.432 A  
HETATM   16  C   UNL     1     -11.260   6.428  68.421  1.00  0.00    -0.297 A  
HETATM   17  C   UNL     1     -10.689   7.241  69.513  1.00  0.00    -0.244 A  
HETATM   18  C   UNL     1     -10.815   6.767  70.828  1.00  0.00    -0.291 A  
HETATM   19  C   UNL     1     -10.282   7.488  71.901  1.00  0.00    -0.221 A  
HETATM   20  C   UNL     1      -9.625   8.694  71.676  1.00  0.00    -0.344 A  
HETATM   21  C   UNL     1      -9.509   9.189  70.379  1.00  0.00    -0.269 A  
HETATM   22  C   UNL     1     -10.054   8.480  69.296  1.00  0.00    -0.203 A  
ENDBRANCH   5   8
TORSDOF 1
ENDMDL
MODEL       78
REMARK 921   NORMALIZED FREE ENERGY PREDICTED BY IDOCK:   -4.64 KCAL/MOL
REMARK 922        TOTAL FREE ENERGY PREDICTED BY IDOCK:   -5.75 KCAL/MOL
REMARK 923 INTER-LIGAND FREE ENERGY PREDICTED BY IDOCK:   -5.30 KCAL/MOL
REMARK 924 INTRA-LIGAND FREE ENERGY PREDICTED BY IDOCK:   -0.46 KCAL/MOL
REMARK 927      BINDING AFFINITY PREDICTED BY RF-SCORE:    0.00 PKD
ROOT
HETATM    1  C   UNL     1     -10.559   4.656  65.604  1.00  0.00    -0.203 C  
HETATM    2  N   UNL     1      -9.467   5.133  66.449  1.00  0.00    -0.144 NA 
HETATM    3  C   UNL     1      -9.090   6.522  66.134  1.00  0.00    -0.124 C  
HETATM    4  C   UNL     1     -10.126   7.579  66.552  1.00  0.00    -0.194 C  
HETATM    5  C   UNL     1     -10.501   7.460  68.024  1.00  0.00    -0.253 C  
HETATM    6  C   UNL     1      -9.789   5.023  67.882  1.00  0.00    -0.151 C  
HETATM    7  C   UNL     1     -10.846   6.021  68.391  1.00  0.00    -0.361 C  
ENDROOT
BRANCH   5   8
HETATM    8  C   UNL     1     -10.475   8.493  68.908  1.00  0.00    -0.207 A  
HETATM    9  C   UNL     1     -10.332   9.896  68.446  1.00  0.00    -0.226 A  
HETATM   10  C   UNL     1     -11.389  10.525  67.768  1.00  0.00    -0.267 A  
HETATM   11  C   UNL     1     -11.273  11.850  67.354  1.00  0.00    -0.366 A  
HETATM   12  C   UNL     1     -10.105  12.560  67.622  1.00  0.00    -0.217 A  
HETATM   13  C   UNL     1      -9.057  11.950  68.315  1.00  0.00    -0.183 A  
HETATM   14  C   UNL     1      -9.165  10.623  68.757  1.00  0.00    -0.182 A  
HETATM   15  C   UNL     1      -8.029  10.041  69.500  1.00  0.00    -0.161 A  
HETATM   16  C   UNL     1      -8.100   9.177  70.529  1.00  0.00    -0.182 A  
HETATM   17  C   UNL     1      -9.330   8.624  71.132  1.00  0.00    -0.274 A  
HETATM   18  C   UNL     1      -9.355   8.427  72.522  1.00  0.00    -0.346 A  
HETATM   19  C   UNL     1     -10.497   7.920  73.150  1.00  0.00    -0.348 A  
HETATM   20  C   UNL     1     -11.622   7.594  72.398  1.00  0.00    -0.386 A  
HETATM   21  C   UNL     1     -11.606   7.765  71.015  1.00  0.00    -0.301 A  
HETATM   22  C   UNL     1     -10.460   8.260  70.374  1.00  0.00    -0.223 A  
ENDBRANCH   5   8
TORSDOF 1
ENDMDL
MODEL       79
REMARK 921   NORMALIZED FREE ENERGY PREDICTED BY IDOCK:   -4.61 KCAL/MOL
REMARK 922        TOTAL FREE ENERGY PREDICTED BY IDOCK:   -5.72 KCAL/MOL
REMARK 923 INTER-LIGAND FREE ENERGY PREDICTED BY IDOCK:   -4.92 KCAL/MOL
REMARK 924 INTRA-LIGAND FREE ENERGY PREDICTED BY IDOCK:   -0.80 KCAL/MOL
REMARK 927      BINDING AFFINITY PREDICTED BY RF-SCORE:    0.00 PKD
ROOT
HETATM    1  C   UNL     1     -12.498  12.927  63.864  1.00  0.00    -0.333 C  
HETATM    2  N   UNL     1     -11.102  13.154  64.231  1.00  0.00    -0.379 NA 
HETATM    3  C   UNL     1     -10.893  13.073  65.686  1.00  0.00    -0.273 C  
HETATM    4  C   UNL     1     -11.012  11.657  66.275  1.00  0.00    -0.338 C  
HETATM    5  C   UNL     1     -10.106  10.663  65.560  1.00  0.00    -0.343 C  
HETATM    6  C   UNL     1     -10.193  12.217  63.549  1.00  0.00    -0.424 C  
HETATM    7  C   UNL     1     -10.265  10.760  64.047  1.00  0.00    -0.390 C  
ENDROOT
BRANCH   5   8
HETATM    8  C   UNL     1      -9.229   9.836  66.189  1.00  0.00    -0.221 A  
HETATM    9  C   UNL     1      -7.906  10.326  66.650  1.00  0.00    -0.116 A  
HETATM   10  C   UNL     1      -7.824  11.211  67.737  1.00  0.00    -0.114 A  
HETATM   11  C   UNL     1      -6.584  11.655  68.192  1.00  0.00    -0.061 A  
HETATM   12  C   UNL     1      -5.419  11.212  67.573  1.00  0.00    -0.043 A  
HETATM   13  C   UNL     1      -5.489  10.314  66.505  1.00  0.00    -0.048 A  
HETATM   14  C   UNL     1      -6.727   9.841  66.047  1.00  0.00    -0.087 A  
HETATM   15  C   UNL     1      -6.735   8.880  64.926  1.00  0.00    -0.069 A  
HETATM   16  C   UNL     1      -7.577   7.843  64.761  1.00  0.00    -0.110 A  
HETATM   17  C   UNL     1      -8.676   7.449  65.665  1.00  0.00    -0.099 A  
HETATM   18  C   UNL     1      -8.928   6.080  65.843  1.00  0.00    -0.144 A  
HETATM   19  C   UNL     1      -9.946   5.647  66.698  1.00  0.00    -0.211 A  
HETATM   20  C   UNL     1     -10.731   6.574  67.377  1.00  0.00    -0.412 A  
HETATM   21  C   UNL     1     -10.507   7.938  67.196  1.00  0.00    -0.414 A  
HETATM   22  C   UNL     1      -9.496   8.383  66.328  1.00  0.00    -0.292 A  
ENDBRANCH   5   8
TORSDOF 1
ENDMDL
MODEL       80
REMARK 921   NORMALIZED FREE ENERGY PREDICTED BY IDOCK:   -4.58 KCAL/MOL
REMARK 922        TOTAL FREE ENERGY PREDICTED BY IDOCK:   -5.68 KCAL/MOL
REMARK 923 INTER-LIGAND FREE ENERGY PREDICTED BY IDOCK:   -5.09 KCAL/MOL
REMARK 924 INTRA-LIGAND FREE ENERGY PREDICTED BY IDOCK:   -0.59 KCAL/MOL
REMARK 927      BINDING AFFINITY PREDICTED BY RF-SCORE:    0.00 PKD
ROOT
HETATM    1  C   UNL     1      -6.536  18.985  66.177  1.00  0.00    -0.215 C  
HETATM    2  N   UNL     1      -6.872  18.555  67.532  1.00  0.00    -0.202 NA 
HETATM    3  C   UNL     1      -8.328  18.503  67.751  1.00  0.00    -0.259 C  
HETATM    4  C   UNL     1      -9.048  17.365  67.010  1.00  0.00    -0.251 C  
HETATM    5  C   UNL     1      -8.426  16.006  67.306  1.00  0.00    -0.206 C  
HETATM    6  C   UNL     1      -6.277  17.248  67.860  1.00  0.00    -0.148 C  
HETATM    7  C   UNL     1      -6.911  16.044  67.138  1.00  0.00    -0.242 C  
ENDROOT
BRANCH   5   8
HETATM    8  C   UNL     1      -9.125  14.916  67.723  1.00  0.00    -0.185 A  
HETATM    9  C   UNL     1      -8.878  13.575  67.139  1.00  0.00    -0.231 A  
HETATM   10  C   UNL     1      -7.682  12.894  67.421  1.00  0.00    -0.160 A  
HETATM   11  C   UNL     1      -7.454  11.623  66.898  1.00  0.00    -0.131 A  
HETATM   12  C   UNL     1      -8.420  11.020  66.097  1.00  0.00    -0.168 A  
HETATM   13  C   UNL     1      -9.621  11.680  65.828  1.00  0.00    -0.255 A  
HETATM   14  C   UNL     1      -9.876  12.951  66.363  1.00  0.00    -0.268 A  
HETATM   15  C   UNL     1     -11.172  13.589  66.057  1.00  0.00    -0.305 A  
HETATM   16  C   UNL     1     -11.904  14.360  66.882  1.00  0.00    -0.433 A  
HETATM   17  C   UNL     1     -11.564  14.735  68.269  1.00  0.00    -0.348 A  
HETATM   18  C   UNL     1     -12.605  14.823  69.206  1.00  0.00     0.094 A  
HETATM   19  C   UNL     1     -12.341  15.160  70.537  1.00  0.00    -0.408 A  
HETATM   20  C   UNL     1     -11.037  15.424  70.947  1.00  0.00    -0.374 A  
HETATM   21  C   UNL     1      -9.994  15.362  70.025  1.00  0.00    -0.166 A  
HETATM   22  C   UNL     1     -10.251  15.037  68.682  1.00  0.00    -0.231 A  
ENDBRANCH   5   8
TORSDOF 1
ENDMDL
MODEL       81
REMARK 921   NORMALIZED FREE ENERGY PREDICTED BY IDOCK:   -4.50 KCAL/MOL
REMARK 922        TOTAL FREE ENERGY PREDICTED BY IDOCK:   -5.61 KCAL/MOL
REMARK 923 INTER-LIGAND FREE ENERGY PREDICTED BY IDOCK:   -4.76 KCAL/MOL
REMARK 924 INTRA-LIGAND FREE ENERGY PREDICTED BY IDOCK:   -0.84 KCAL/MOL
REMARK 927      BINDING AFFINITY PREDICTED BY RF-SCORE:    0.00 PKD
ROOT
HETATM    1  C   UNL     1     -11.525  13.867  69.190  1.00  0.00    -0.299 C  
HETATM    2  N   UNL     1     -10.925  13.872  67.858  1.00  0.00    -0.245 NA 
HETATM    3  C   UNL     1      -9.520  13.431  67.883  1.00  0.00    -0.216 C  
HETATM    4  C   UNL     1      -9.322  11.934  68.171  1.00  0.00    -0.191 C  
HETATM    5  C   UNL     1     -10.128  11.058  67.220  1.00  0.00    -0.222 C  
HETATM    6  C   UNL     1     -11.685  13.044  66.906  1.00  0.00    -0.383 C  
HETATM    7  C   UNL     1     -11.577  11.524  67.135  1.00  0.00    -0.249 C  
ENDROOT
BRANCH   5   8
HETATM    8  C   UNL     1      -9.609  10.029  66.498  1.00  0.00    -0.237 A  
HETATM    9  C   UNL     1      -9.578   8.648  67.041  1.00  0.00    -0.240 A  
HETATM   10  C   UNL     1     -10.772   7.922  67.184  1.00  0.00    -0.306 A  
HETATM   11  C   UNL     1     -10.748   6.616  67.668  1.00  0.00    -0.373 A  
HETATM   12  C   UNL     1      -9.534   6.022  68.004  1.00  0.00    -0.113 A  
HETATM   13  C   UNL     1      -8.340   6.729  67.843  1.00  0.00    -0.120 A  
HETATM   14  C   UNL     1      -8.343   8.037  67.338  1.00  0.00    -0.123 A  
HETATM   15  C   UNL     1      -7.046   8.725  67.176  1.00  0.00    -0.075 A  
HETATM   16  C   UNL     1      -6.705   9.574  66.190  1.00  0.00    -0.082 A  
HETATM   17  C   UNL     1      -7.556  10.003  65.062  1.00  0.00    -0.139 A  
HETATM   18  C   UNL     1      -6.952  10.193  63.810  1.00  0.00    -0.105 A  
HETATM   19  C   UNL     1      -7.710  10.584  62.703  1.00  0.00    -0.146 A  
HETATM   20  C   UNL     1      -9.079  10.801  62.834  1.00  0.00    -0.308 A  
HETATM   21  C   UNL     1      -9.691  10.637  64.074  1.00  0.00    -0.373 A  
HETATM   22  C   UNL     1      -8.935  10.258  65.196  1.00  0.00    -0.220 A  
ENDBRANCH   5   8
TORSDOF 1
ENDMDL
MODEL       82
REMARK 921   NORMALIZED FREE ENERGY PREDICTED BY IDOCK:   -4.41 KCAL/MOL
REMARK 922        TOTAL FREE ENERGY PREDICTED BY IDOCK:   -5.51 KCAL/MOL
REMARK 923 INTER-LIGAND FREE ENERGY PREDICTED BY IDOCK:   -4.66 KCAL/MOL
REMARK 924 INTRA-LIGAND FREE ENERGY PREDICTED BY IDOCK:   -0.84 KCAL/MOL
REMARK 927      BINDING AFFINITY PREDICTED BY RF-SCORE:    0.00 PKD
ROOT
HETATM    1  C   UNL     1     -10.746   6.563  69.898  1.00  0.00    -0.257 C  
HETATM    2  N   UNL     1     -10.086   7.804  70.297  1.00  0.00    -0.194 NA 
HETATM    3  C   UNL     1      -8.768   7.959  69.657  1.00  0.00    -0.134 C  
HETATM    4  C   UNL     1      -8.818   8.252  68.148  1.00  0.00    -0.139 C  
HETATM    5  C   UNL     1      -9.701   9.452  67.827  1.00  0.00    -0.182 C  
HETATM    6  C   UNL     1     -10.915   8.987  70.013  1.00  0.00    -0.214 C  
HETATM    7  C   UNL     1     -11.054   9.342  68.520  1.00  0.00     0.020 C  
ENDROOT
BRANCH   5   8
HETATM    8  C   UNL     1      -9.310  10.510  67.068  1.00  0.00    -0.176 A  
HETATM    9  C   UNL     1      -8.738  11.732  67.688  1.00  0.00    -0.159 A  
HETATM   10  C   UNL     1      -7.458  11.694  68.265  1.00  0.00    -0.097 A  
HETATM   11  C   UNL     1      -6.904  12.843  68.825  1.00  0.00    -0.099 A  
HETATM   12  C   UNL     1      -7.619  14.038  68.806  1.00  0.00    -0.113 A  
HETATM   13  C   UNL     1      -8.883  14.090  68.215  1.00  0.00    -0.184 A  
HETATM   14  C   UNL     1      -9.448  12.948  67.628  1.00  0.00    -0.197 A  
HETATM   15  C   UNL     1     -10.780  13.072  67.004  1.00  0.00    -0.270 A  
HETATM   16  C   UNL     1     -11.208  12.446  65.892  1.00  0.00    -0.373 A  
HETATM   17  C   UNL     1     -10.437  11.500  65.061  1.00  0.00    -0.344 A  
HETATM   18  C   UNL     1     -10.621  11.536  63.670  1.00  0.00    -0.491 A  
HETATM   19  C   UNL     1      -9.908  10.674  62.833  1.00  0.00    -0.271 A  
HETATM   20  C   UNL     1      -9.010   9.757  63.373  1.00  0.00    -0.271 A  
HETATM   21  C   UNL     1      -8.830   9.694  64.754  1.00  0.00    -0.242 A  
HETATM   22  C   UNL     1      -9.553  10.547  65.605  1.00  0.00    -0.278 A  
ENDBRANCH   5   8
TORSDOF 1
ENDMDL
MODEL       83
REMARK 921   NORMALIZED FREE ENERGY PREDICTED BY IDOCK:   -4.41 KCAL/MOL
REMARK 922        TOTAL FREE ENERGY PREDICTED BY IDOCK:   -5.51 KCAL/MOL
REMARK 923 INTER-LIGAND FREE ENERGY PREDICTED BY IDOCK:   -4.91 KCAL/MOL
REMARK 924 INTRA-LIGAND FREE ENERGY PREDICTED BY IDOCK:   -0.59 KCAL/MOL
REMARK 927      BINDING AFFINITY PREDICTED BY RF-SCORE:    0.00 PKD
ROOT
HETATM    1  C   UNL     1     -13.217  11.788  71.950  1.00  0.00    -0.362 C  
HETATM    2  N   UNL     1     -13.372  10.653  71.042  1.00  0.00    -0.172 NA 
HETATM    3  C   UNL     1     -12.483  10.756  69.872  1.00  0.00    -0.209 C  
HETATM    4  C   UNL     1     -10.991  10.546  70.179  1.00  0.00    -0.338 C  
HETATM    5  C   UNL     1     -10.737   9.237  70.916  1.00  0.00    -0.371 C  
HETATM    6  C   UNL     1     -13.146   9.367  71.723  1.00  0.00    -0.409 C  
HETATM    7  C   UNL     1     -11.680   9.080  72.104  1.00  0.00    -0.366 C  
ENDROOT
BRANCH   5   8
HETATM    8  C   UNL     1      -9.827   8.304  70.530  1.00  0.00    -0.197 A  
HETATM    9  C   UNL     1      -9.731   7.862  69.116  1.00  0.00    -0.162 A  
HETATM   10  C   UNL     1      -9.226   8.735  68.139  1.00  0.00    -0.145 A  
HETATM   11  C   UNL     1      -9.109   8.318  66.814  1.00  0.00    -0.190 A  
HETATM   12  C   UNL     1      -9.487   7.026  66.458  1.00  0.00    -0.199 A  
HETATM   13  C   UNL     1      -9.969   6.143  67.427  1.00  0.00    -0.166 A  
HETATM   14  C   UNL     1     -10.075   6.539  68.769  1.00  0.00    -0.178 A  
HETATM   15  C   UNL     1     -10.576   5.555  69.749  1.00  0.00    -0.388 A  
HETATM   16  C   UNL     1     -10.167   5.410  71.023  1.00  0.00    -0.296 A  
HETATM   17  C   UNL     1      -9.134   6.207  71.713  1.00  0.00    -0.145 A  
HETATM   18  C   UNL     1      -8.293   5.554  72.627  1.00  0.00    -0.114 A  
HETATM   19  C   UNL     1      -7.287   6.254  73.299  1.00  0.00    -0.087 A  
HETATM   20  C   UNL     1      -7.116   7.618  73.076  1.00  0.00    -0.085 A  
HETATM   21  C   UNL     1      -7.955   8.286  72.187  1.00  0.00    -0.186 A  
HETATM   22  C   UNL     1      -8.977   7.594  71.517  1.00  0.00    -0.148 A  
ENDBRANCH   5   8
TORSDOF 1
ENDMDL
MODEL       84
REMARK 921   NORMALIZED FREE ENERGY PREDICTED BY IDOCK:   -4.40 KCAL/MOL
REMARK 922        TOTAL FREE ENERGY PREDICTED BY IDOCK:   -5.50 KCAL/MOL
REMARK 923 INTER-LIGAND FREE ENERGY PREDICTED BY IDOCK:   -4.93 KCAL/MOL
REMARK 924 INTRA-LIGAND FREE ENERGY PREDICTED BY IDOCK:   -0.58 KCAL/MOL
REMARK 927      BINDING AFFINITY PREDICTED BY RF-SCORE:    0.00 PKD
ROOT
HETATM    1  C   UNL     1     -11.644   7.644  70.874  1.00  0.00    -0.280 C  
HETATM    2  N   UNL     1     -10.283   7.951  70.442  1.00  0.00    -0.195 NA 
HETATM    3  C   UNL     1     -10.020   7.486  69.070  1.00  0.00    -0.175 C  
HETATM    4  C   UNL     1     -10.747   8.279  67.972  1.00  0.00    -0.111 C  
HETATM    5  C   UNL     1     -10.481   9.775  68.077  1.00  0.00    -0.271 C  
HETATM    6  C   UNL     1      -9.984   9.391  70.541  1.00  0.00    -0.267 C  
HETATM    7  C   UNL     1     -10.696  10.276  69.500  1.00  0.00    -0.280 C  
ENDROOT
BRANCH   5   8
HETATM    8  C   UNL     1     -10.052  10.552  67.046  1.00  0.00    -0.259 A  
HETATM    9  C   UNL     1      -8.984  10.087  66.126  1.00  0.00    -0.174 A  
HETATM   10  C   UNL     1      -9.243   9.050  65.215  1.00  0.00    -0.205 A  
HETATM   11  C   UNL     1      -8.254   8.625  64.330  1.00  0.00    -0.160 A  
HETATM   12  C   UNL     1      -7.004   9.238  64.342  1.00  0.00    -0.093 A  
HETATM   13  C   UNL     1      -6.744  10.285  65.229  1.00  0.00    -0.126 A  
HETATM   14  C   UNL     1      -7.734  10.738  66.113  1.00  0.00    -0.149 A  
HETATM   15  C   UNL     1      -7.404  11.861  67.014  1.00  0.00    -0.118 A  
HETATM   16  C   UNL     1      -8.229  12.850  67.401  1.00  0.00    -0.187 A  
HETATM   17  C   UNL     1      -9.642  13.023  67.011  1.00  0.00    -0.236 A  
HETATM   18  C   UNL     1     -10.118  14.327  66.802  1.00  0.00    -0.264 A  
HETATM   19  C   UNL     1     -11.443  14.550  66.417  1.00  0.00    -0.362 A  
HETATM   20  C   UNL     1     -12.313  13.477  66.246  1.00  0.00    -0.440 A  
HETATM   21  C   UNL     1     -11.862  12.177  66.468  1.00  0.00    -0.322 A  
HETATM   22  C   UNL     1     -10.536  11.943  66.869  1.00  0.00    -0.253 A  
ENDBRANCH   5   8
TORSDOF 1
ENDMDL
MODEL       85
REMARK 921   NORMALIZED FREE ENERGY PREDICTED BY IDOCK:   -4.40 KCAL/MOL
REMARK 922        TOTAL FREE ENERGY PREDICTED BY IDOCK:   -5.50 KCAL/MOL
REMARK 923 INTER-LIGAND FREE ENERGY PREDICTED BY IDOCK:   -5.05 KCAL/MOL
REMARK 924 INTRA-LIGAND FREE ENERGY PREDICTED BY IDOCK:   -0.45 KCAL/MOL
REMARK 927      BINDING AFFINITY PREDICTED BY RF-SCORE:    0.00 PKD
ROOT
HETATM    1  C   UNL     1     -14.390  14.440  71.818  1.00  0.00    -0.501 C  
HETATM    2  N   UNL     1     -12.933  14.472  71.917  1.00  0.00    -0.324 NA 
HETATM    3  C   UNL     1     -12.325  13.185  71.538  1.00  0.00     0.054 C  
HETATM    4  C   UNL     1     -12.402  12.855  70.039  1.00  0.00    -0.199 C  
HETATM    5  C   UNL     1     -11.835  13.976  69.177  1.00  0.00    -0.391 C  
HETATM    6  C   UNL     1     -12.348  15.553  71.105  1.00  0.00    -0.411 C  
HETATM    7  C   UNL     1     -12.409  15.329  69.581  1.00  0.00    -0.245 C  
ENDROOT
BRANCH   5   8
HETATM    8  C   UNL     1     -10.895  13.799  68.210  1.00  0.00    -0.266 A  
HETATM    9  C   UNL     1     -10.462  12.441  67.798  1.00  0.00    -0.231 A  
HETATM   10  C   UNL     1     -11.336  11.612  67.076  1.00  0.00    -0.373 A  
HETATM   11  C   UNL     1     -10.928  10.345  66.664  1.00  0.00    -0.067 A  
HETATM   12  C   UNL     1      -9.642   9.901  66.961  1.00  0.00    -0.218 A  
HETATM   13  C   UNL     1      -8.758  10.727  67.659  1.00  0.00    -0.126 A  
HETATM   14  C   UNL     1      -9.145  12.012  68.064  1.00  0.00    -0.188 A  
HETATM   15  C   UNL     1      -8.159  12.843  68.784  1.00  0.00     0.087 A  
HETATM   16  C   UNL     1      -8.001  14.175  68.678  1.00  0.00    -0.132 A  
HETATM   17  C   UNL     1      -8.783  15.090  67.822  1.00  0.00    -0.167 A  
HETATM   18  C   UNL     1      -8.115  16.166  67.218  1.00  0.00    -0.202 A  
HETATM   19  C   UNL     1      -8.800  17.056  66.386  1.00  0.00    -0.313 A  
HETATM   20  C   UNL     1     -10.163  16.891  66.156  1.00  0.00    -0.352 A  
HETATM   21  C   UNL     1     -10.846  15.840  66.765  1.00  0.00    -0.254 A  
HETATM   22  C   UNL     1     -10.169  14.948  67.614  1.00  0.00    -0.236 A  
ENDBRANCH   5   8
TORSDOF 1
ENDMDL
MODEL       86
REMARK 921   NORMALIZED FREE ENERGY PREDICTED BY IDOCK:   -4.33 KCAL/MOL
REMARK 922        TOTAL FREE ENERGY PREDICTED BY IDOCK:   -5.43 KCAL/MOL
REMARK 923 INTER-LIGAND FREE ENERGY PREDICTED BY IDOCK:   -4.63 KCAL/MOL
REMARK 924 INTRA-LIGAND FREE ENERGY PREDICTED BY IDOCK:   -0.80 KCAL/MOL
REMARK 927      BINDING AFFINITY PREDICTED BY RF-SCORE:    0.00 PKD
ROOT
HETATM    1  C   UNL     1      -8.963   5.632  65.942  1.00  0.00    -0.155 C  
HETATM    2  N   UNL     1      -8.246   5.265  67.162  1.00  0.00    -0.108 NA 
HETATM    3  C   UNL     1      -7.951   6.438  68.003  1.00  0.00    -0.109 C  
HETATM    4  C   UNL     1      -9.178   7.062  68.688  1.00  0.00    -0.131 C  
HETATM    5  C   UNL     1      -9.973   6.034  69.484  1.00  0.00    -0.225 C  
HETATM    6  C   UNL     1      -8.980   4.262  67.953  1.00  0.00    -0.122 C  
HETATM    7  C   UNL     1     -10.249   4.786  68.653  1.00  0.00    -0.060 C  
ENDROOT
BRANCH   5   8
HETATM    8  C   UNL     1     -10.339   6.187  70.784  1.00  0.00    -0.266 A  
HETATM    9  C   UNL     1     -11.461   7.080  71.167  1.00  0.00    -0.333 A  
HETATM   10  C   UNL     1     -12.783   6.721  70.855  1.00  0.00    -0.127 A  
HETATM   11  C   UNL     1     -13.844   7.540  71.234  1.00  0.00    -0.359 A  
HETATM   12  C   UNL     1     -13.594   8.718  71.934  1.00  0.00    -0.467 A  
HETATM   13  C   UNL     1     -12.285   9.072  72.268  1.00  0.00    -0.387 A  
HETATM   14  C   UNL     1     -11.207   8.249  71.912  1.00  0.00    -0.365 A  
HETATM   15  C   UNL     1      -9.848   8.669  72.310  1.00  0.00    -0.360 A  
HETATM   16  C   UNL     1      -8.840   7.868  72.699  1.00  0.00    -0.235 A  
HETATM   17  C   UNL     1      -8.877   6.395  72.809  1.00  0.00    -0.124 A  
HETATM   18  C   UNL     1      -8.176   5.791  73.864  1.00  0.00    -0.109 A  
HETATM   19  C   UNL     1      -8.187   4.403  74.026  1.00  0.00    -0.096 A  
HETATM   20  C   UNL     1      -8.889   3.599  73.131  1.00  0.00    -0.097 A  
HETATM   21  C   UNL     1      -9.574   4.182  72.067  1.00  0.00    -0.213 A  
HETATM   22  C   UNL     1      -9.557   5.575  71.887  1.00  0.00    -0.185 A  
ENDBRANCH   5   8
TORSDOF 1
ENDMDL
MODEL       87
REMARK 921   NORMALIZED FREE ENERGY PREDICTED BY IDOCK:   -4.32 KCAL/MOL
REMARK 922        TOTAL FREE ENERGY PREDICTED BY IDOCK:   -5.42 KCAL/MOL
REMARK 923 INTER-LIGAND FREE ENERGY PREDICTED BY IDOCK:   -4.58 KCAL/MOL
REMARK 924 INTRA-LIGAND FREE ENERGY PREDICTED BY IDOCK:   -0.83 KCAL/MOL
REMARK 927      BINDING AFFINITY PREDICTED BY RF-SCORE:    0.00 PKD
ROOT
HETATM    1  C   UNL     1      -9.225   9.512  64.764  1.00  0.00    -0.205 C  
HETATM    2  N   UNL     1     -10.170  10.053  65.738  1.00  0.00    -0.242 NA 
HETATM    3  C   UNL     1      -9.565  10.199  67.073  1.00  0.00    -0.171 C  
HETATM    4  C   UNL     1      -8.519  11.321  67.185  1.00  0.00    -0.149 C  
HETATM    5  C   UNL     1      -9.066  12.661  66.709  1.00  0.00    -0.214 C  
HETATM    6  C   UNL     1     -10.730  11.345  65.306  1.00  0.00    -0.265 C  
HETATM    7  C   UNL     1      -9.744  12.529  65.350  1.00  0.00    -0.102 C  
ENDROOT
BRANCH   5   8
HETATM    8  C   UNL     1      -9.006  13.813  67.429  1.00  0.00    -0.224 A  
HETATM    9  C   UNL     1     -10.172  14.291  68.213  1.00  0.00    -0.244 A  
HETATM   10  C   UNL     1     -10.568  13.606  69.373  1.00  0.00     0.099 A  
HETATM   11  C   UNL     1     -11.646  14.064  70.129  1.00  0.00    -0.273 A  
HETATM   12  C   UNL     1     -12.329  15.212  69.737  1.00  0.00    -0.278 A  
HETATM   13  C   UNL     1     -11.928  15.912  68.597  1.00  0.00    -0.106 A  
HETATM   14  C   UNL     1     -10.834  15.477  67.836  1.00  0.00    -0.307 A  
HETATM   15  C   UNL     1     -10.449  16.270  66.652  1.00  0.00    -0.290 A  
HETATM   16  C   UNL     1      -9.199  16.497  66.207  1.00  0.00    -0.345 A  
HETATM   17  C   UNL     1      -7.946  15.996  66.807  1.00  0.00    -0.302 A  
HETATM   18  C   UNL     1      -6.822  16.835  66.791  1.00  0.00    -0.265 A  
HETATM   19  C   UNL     1      -5.613  16.420  67.357  1.00  0.00    -0.176 A  
HETATM   20  C   UNL     1      -5.508  15.159  67.936  1.00  0.00    -0.125 A  
HETATM   21  C   UNL     1      -6.609  14.305  67.943  1.00  0.00    -0.175 A  
HETATM   22  C   UNL     1      -7.824  14.708  67.364  1.00  0.00    -0.225 A  
ENDBRANCH   5   8
TORSDOF 1
ENDMDL
MODEL       88
REMARK 921   NORMALIZED FREE ENERGY PREDICTED BY IDOCK:   -4.30 KCAL/MOL
REMARK 922        TOTAL FREE ENERGY PREDICTED BY IDOCK:   -5.39 KCAL/MOL
REMARK 923 INTER-LIGAND FREE ENERGY PREDICTED BY IDOCK:   -4.90 KCAL/MOL
REMARK 924 INTRA-LIGAND FREE ENERGY PREDICTED BY IDOCK:   -0.49 KCAL/MOL
REMARK 927      BINDING AFFINITY PREDICTED BY RF-SCORE:    0.00 PKD
ROOT
HETATM    1  C   UNL     1      -9.615   1.849  74.334  1.00  0.00    -0.074 C  
HETATM    2  N   UNL     1      -9.247   3.259  74.444  1.00  0.00    -0.088 NA 
HETATM    3  C   UNL     1      -8.330   3.676  73.370  1.00  0.00    -0.083 C  
HETATM    4  C   UNL     1      -8.971   3.760  71.975  1.00  0.00    -0.147 C  
HETATM    5  C   UNL     1     -10.217   4.637  71.970  1.00  0.00    -0.258 C  
HETATM    6  C   UNL     1     -10.428   4.139  74.455  1.00  0.00    -0.235 C  
HETATM    7  C   UNL     1     -11.162   4.260  73.105  1.00  0.00    -0.275 C  
ENDROOT
BRANCH   5   8
HETATM    8  C   UNL     1     -10.430   5.660  71.100  1.00  0.00    -0.306 A  
HETATM    9  C   UNL     1      -9.699   5.739  69.811  1.00  0.00    -0.210 A  
HETATM   10  C   UNL     1      -9.988   4.827  68.782  1.00  0.00    -0.182 A  
HETATM   11  C   UNL     1      -9.325   4.910  67.560  1.00  0.00    -0.148 A  
HETATM   12  C   UNL     1      -8.376   5.909  67.352  1.00  0.00    -0.105 A  
HETATM   13  C   UNL     1      -8.099   6.834  68.362  1.00  0.00    -0.119 A  
HETATM   14  C   UNL     1      -8.772   6.777  69.591  1.00  0.00    -0.137 A  
HETATM   15  C   UNL     1      -8.446   7.794  70.611  1.00  0.00    -0.126 A  
HETATM   16  C   UNL     1      -9.303   8.366  71.477  1.00  0.00    -0.263 A  
HETATM   17  C   UNL     1     -10.750   8.096  71.594  1.00  0.00    -0.299 A  
HETATM   18  C   UNL     1     -11.603   9.170  71.892  1.00  0.00    -0.430 A  
HETATM   19  C   UNL     1     -12.983   8.976  72.001  1.00  0.00    -0.470 A  
HETATM   20  C   UNL     1     -13.527   7.707  71.825  1.00  0.00    -0.379 A  
HETATM   21  C   UNL     1     -12.692   6.626  71.549  1.00  0.00    -0.248 A  
HETATM   22  C   UNL     1     -11.303   6.808  71.452  1.00  0.00    -0.322 A  
ENDBRANCH   5   8
TORSDOF 1
ENDMDL
MODEL       89
REMARK 921   NORMALIZED FREE ENERGY PREDICTED BY IDOCK:   -4.29 KCAL/MOL
REMARK 922        TOTAL FREE ENERGY PREDICTED BY IDOCK:   -5.39 KCAL/MOL
REMARK 923 INTER-LIGAND FREE ENERGY PREDICTED BY IDOCK:   -4.55 KCAL/MOL
REMARK 924 INTRA-LIGAND FREE ENERGY PREDICTED BY IDOCK:   -0.84 KCAL/MOL
REMARK 927      BINDING AFFINITY PREDICTED BY RF-SCORE:    0.00 PKD
ROOT
HETATM    1  C   UNL     1      -9.789   4.333  64.834  1.00  0.00    -0.175 C  
HETATM    2  N   UNL     1      -9.004   4.760  65.990  1.00  0.00    -0.122 NA 
HETATM    3  C   UNL     1      -7.948   5.717  65.617  1.00  0.00    -0.116 C  
HETATM    4  C   UNL     1      -8.458   7.111  65.213  1.00  0.00    -0.060 C  
HETATM    5  C   UNL     1      -9.364   7.719  66.277  1.00  0.00    -0.210 C  
HETATM    6  C   UNL     1      -9.848   5.344  67.046  1.00  0.00    -0.162 C  
HETATM    7  C   UNL     1     -10.436   6.730  66.719  1.00  0.00    -0.298 C  
ENDROOT
BRANCH   5   8
HETATM    8  C   UNL     1      -9.201   8.962  66.803  1.00  0.00    -0.201 A  
HETATM    9  C   UNL     1      -8.340   9.187  67.992  1.00  0.00    -0.120 A  
HETATM   10  C   UNL     1      -6.945   9.068  67.882  1.00  0.00    -0.078 A  
HETATM   11  C   UNL     1      -6.129   9.303  68.986  1.00  0.00    -0.043 A  
HETATM   12  C   UNL     1      -6.697   9.666  70.204  1.00  0.00    -0.089 A  
HETATM   13  C   UNL     1      -8.083   9.807  70.317  1.00  0.00    -0.181 A  
HETATM   14  C   UNL     1      -8.918   9.594  69.211  1.00  0.00    -0.173 A  
HETATM   15  C   UNL     1     -10.372   9.777  69.390  1.00  0.00    -0.232 A  
HETATM   16  C   UNL     1     -11.236  10.283  68.491  1.00  0.00    -0.271 A  
HETATM   17  C   UNL     1     -10.913  10.761  67.131  1.00  0.00    -0.324 A  
HETATM   18  C   UNL     1     -11.602  11.882  66.642  1.00  0.00    -0.337 A  
HETATM   19  C   UNL     1     -11.328  12.387  65.367  1.00  0.00    -0.379 A  
HETATM   20  C   UNL     1     -10.372  11.775  64.562  1.00  0.00    -0.340 A  
HETATM   21  C   UNL     1      -9.693  10.649  65.025  1.00  0.00    -0.336 A  
HETATM   22  C   UNL     1      -9.971  10.125  66.299  1.00  0.00    -0.304 A  
ENDBRANCH   5   8
TORSDOF 1
ENDMDL
MODEL       90
REMARK 921   NORMALIZED FREE ENERGY PREDICTED BY IDOCK:   -4.18 KCAL/MOL
REMARK 922        TOTAL FREE ENERGY PREDICTED BY IDOCK:   -5.26 KCAL/MOL
REMARK 923 INTER-LIGAND FREE ENERGY PREDICTED BY IDOCK:   -4.80 KCAL/MOL
REMARK 924 INTRA-LIGAND FREE ENERGY PREDICTED BY IDOCK:   -0.46 KCAL/MOL
REMARK 927      BINDING AFFINITY PREDICTED BY RF-SCORE:    0.00 PKD
ROOT
HETATM    1  C   UNL     1     -11.862  14.586  67.864  1.00  0.00    -0.336 C  
HETATM    2  N   UNL     1     -11.068  14.128  69.002  1.00  0.00    -0.256 NA 
HETATM    3  C   UNL     1     -11.665  12.951  69.655  1.00  0.00    -0.299 C  
HETATM    4  C   UNL     1     -11.583  11.652  68.836  1.00  0.00    -0.377 C  
HETATM    5  C   UNL     1     -10.157  11.341  68.400  1.00  0.00    -0.202 C  
HETATM    6  C   UNL     1      -9.677  13.828  68.621  1.00  0.00    -0.140 C  
HETATM    7  C   UNL     1      -9.496  12.559  67.766  1.00  0.00    -0.197 C  
ENDROOT
BRANCH   5   8
HETATM    8  C   UNL     1      -9.536  10.148  68.602  1.00  0.00    -0.165 A  
HETATM    9  C   UNL     1      -8.330   9.767  67.825  1.00  0.00    -0.114 A  
HETATM   10  C   UNL     1      -7.110  10.422  68.056  1.00  0.00    -0.082 A  
HETATM   11  C   UNL     1      -5.967  10.053  67.349  1.00  0.00    -0.054 A  
HETATM   12  C   UNL     1      -6.033   9.023  66.414  1.00  0.00    -0.059 A  
HETATM   13  C   UNL     1      -7.237   8.352  66.194  1.00  0.00    -0.077 A  
HETATM   14  C   UNL     1      -8.392   8.696  66.911  1.00  0.00    -0.108 A  
HETATM   15  C   UNL     1      -9.630   7.937  66.645  1.00  0.00    -0.293 A  
HETATM   16  C   UNL     1     -10.568   7.588  67.544  1.00  0.00    -0.331 A  
HETATM   17  C   UNL     1     -10.561   7.894  68.989  1.00  0.00    -0.177 A  
HETATM   18  C   UNL     1     -11.061   6.927  69.874  1.00  0.00    -0.333 A  
HETATM   19  C   UNL     1     -11.066   7.156  71.253  1.00  0.00    -0.275 A  
HETATM   20  C   UNL     1     -10.583   8.356  71.765  1.00  0.00    -0.352 A  
HETATM   21  C   UNL     1     -10.102   9.336  70.898  1.00  0.00    -0.373 A  
HETATM   22  C   UNL     1     -10.105   9.121  69.510  1.00  0.00    -0.202 A  
ENDBRANCH   5   8
TORSDOF 1
ENDMDL
MODEL       91
REMARK 921   NORMALIZED FREE ENERGY PREDICTED BY IDOCK:   -4.17 KCAL/MOL
REMARK 922        TOTAL FREE ENERGY PREDICTED BY IDOCK:   -5.26 KCAL/MOL
REMARK 923 INTER-LIGAND FREE ENERGY PREDICTED BY IDOCK:   -4.76 KCAL/MOL
REMARK 924 INTRA-LIGAND FREE ENERGY PREDICTED BY IDOCK:   -0.50 KCAL/MOL
REMARK 927      BINDING AFFINITY PREDICTED BY RF-SCORE:    0.00 PKD
ROOT
HETATM    1  C   UNL     1     -11.420  12.437  69.303  1.00  0.00    -0.288 C  
HETATM    2  N   UNL     1     -12.147  11.252  68.855  1.00  0.00    -0.502 NA 
HETATM    3  C   UNL     1     -11.386  10.482  67.856  1.00  0.00    -0.222 C  
HETATM    4  C   UNL     1     -10.157   9.746  68.414  1.00  0.00    -0.189 C  
HETATM    5  C   UNL     1     -10.512   8.858  69.601  1.00  0.00    -0.218 C  
HETATM    6  C   UNL     1     -12.519  10.374  69.978  1.00  0.00    -0.119 C  
HETATM    7  C   UNL     1     -11.344   9.617  70.628  1.00  0.00    -0.379 C  
ENDROOT
BRANCH   5   8
HETATM    8  C   UNL     1     -10.177   7.544  69.702  1.00  0.00    -0.205 A  
HETATM    9  C   UNL     1      -9.989   6.899  71.026  1.00  0.00    -0.199 A  
HETATM   10  C   UNL     1     -11.096   6.664  71.858  1.00  0.00    -0.289 A  
HETATM   11  C   UNL     1     -10.930   6.036  73.090  1.00  0.00    -0.269 A  
HETATM   12  C   UNL     1      -9.662   5.630  73.497  1.00  0.00    -0.156 A  
HETATM   13  C   UNL     1      -8.558   5.839  72.666  1.00  0.00    -0.120 A  
HETATM   14  C   UNL     1      -8.709   6.452  71.414  1.00  0.00    -0.131 A  
HETATM   15  C   UNL     1      -7.507   6.630  70.575  1.00  0.00    -0.087 A  
HETATM   16  C   UNL     1      -7.440   6.531  69.235  1.00  0.00    -0.095 A  
HETATM   17  C   UNL     1      -8.556   6.228  68.317  1.00  0.00    -0.117 A  
HETATM   18  C   UNL     1      -8.293   5.430  67.193  1.00  0.00    -0.107 A  
HETATM   19  C   UNL     1      -9.313   5.099  66.297  1.00  0.00    -0.155 A  
HETATM   20  C   UNL     1     -10.607   5.569  66.505  1.00  0.00    -0.343 A  
HETATM   21  C   UNL     1     -10.882   6.379  67.605  1.00  0.00    -0.425 A  
HETATM   22  C   UNL     1      -9.860   6.729  68.503  1.00  0.00    -0.141 A  
ENDBRANCH   5   8
TORSDOF 1
ENDMDL
MODEL       92
REMARK 921   NORMALIZED FREE ENERGY PREDICTED BY IDOCK:   -4.14 KCAL/MOL
REMARK 922        TOTAL FREE ENERGY PREDICTED BY IDOCK:   -5.22 KCAL/MOL
REMARK 923 INTER-LIGAND FREE ENERGY PREDICTED BY IDOCK:   -4.51 KCAL/MOL
REMARK 924 INTRA-LIGAND FREE ENERGY PREDICTED BY IDOCK:   -0.71 KCAL/MOL
REMARK 927      BINDING AFFINITY PREDICTED BY RF-SCORE:    0.00 PKD
ROOT
HETATM    1  C   UNL     1      -9.127   4.154  67.731  1.00  0.00    -0.136 C  
HETATM    2  N   UNL     1      -8.181   5.260  67.600  1.00  0.00    -0.100 NA 
HETATM    3  C   UNL     1      -8.820   6.472  67.058  1.00  0.00    -0.116 C  
HETATM    4  C   UNL     1      -9.792   7.171  68.022  1.00  0.00    -0.158 C  
HETATM    5  C   UNL     1      -9.143   7.479  69.365  1.00  0.00    -0.142 C  
HETATM    6  C   UNL     1      -7.524   5.579  68.879  1.00  0.00    -0.082 C  
HETATM    7  C   UNL     1      -8.431   6.254  69.927  1.00  0.00    -0.130 C  
ENDROOT
BRANCH   5   8
HETATM    8  C   UNL     1      -9.151   8.702  69.959  1.00  0.00    -0.157 A  
HETATM    9  C   UNL     1     -10.423   9.352  70.364  1.00  0.00    -0.311 A  
HETATM   10  C   UNL     1     -11.160   8.841  71.445  1.00  0.00    -0.361 A  
HETATM   11  C   UNL     1     -12.341   9.461  71.848  1.00  0.00    -0.450 A  
HETATM   12  C   UNL     1     -12.790  10.598  71.181  1.00  0.00    -0.518 A  
HETATM   13  C   UNL     1     -12.051  11.126  70.119  1.00  0.00    -0.443 A  
HETATM   14  C   UNL     1     -10.850  10.527  69.713  1.00  0.00    -0.335 A  
HETATM   15  C   UNL     1     -10.107  11.143  68.595  1.00  0.00    -0.208 A  
HETATM   16  C   UNL     1      -8.770  11.226  68.468  1.00  0.00    -0.156 A  
HETATM   17  C   UNL     1      -7.761  10.715  69.418  1.00  0.00    -0.132 A  
HETATM   18  C   UNL     1      -6.591  11.466  69.609  1.00  0.00    -0.128 A  
HETATM   19  C   UNL     1      -5.607  11.039  70.506  1.00  0.00    -0.125 A  
HETATM   20  C   UNL     1      -5.774   9.853  71.215  1.00  0.00    -0.054 A  
HETATM   21  C   UNL     1      -6.921   9.085  71.022  1.00  0.00    -0.097 A  
HETATM   22  C   UNL     1      -7.908   9.498  70.112  1.00  0.00    -0.168 A  
ENDBRANCH   5   8
TORSDOF 1
ENDMDL
MODEL       93
REMARK 921   NORMALIZED FREE ENERGY PREDICTED BY IDOCK:   -4.11 KCAL/MOL
REMARK 922        TOTAL FREE ENERGY PREDICTED BY IDOCK:   -5.20 KCAL/MOL
REMARK 923 INTER-LIGAND FREE ENERGY PREDICTED BY IDOCK:   -4.42 KCAL/MOL
REMARK 924 INTRA-LIGAND FREE ENERGY PREDICTED BY IDOCK:   -0.78 KCAL/MOL
REMARK 927      BINDING AFFINITY PREDICTED BY RF-SCORE:    0.00 PKD
ROOT
HETATM    1  C   UNL     1     -11.454   9.330  71.655  1.00  0.00    -0.398 C  
HETATM    2  N   UNL     1     -11.960   9.440  70.289  1.00  0.00    -0.036 NA 
HETATM    3  C   UNL     1     -12.862  10.592  70.125  1.00  0.00    -0.084 C  
HETATM    4  C   UNL     1     -12.168  11.964  70.177  1.00  0.00    -0.319 C  
HETATM    5  C   UNL     1     -11.014  12.058  69.187  1.00  0.00    -0.231 C  
HETATM    6  C   UNL     1     -10.871   9.521  69.300  1.00  0.00    -0.191 C  
HETATM    7  C   UNL     1     -10.091  10.850  69.299  1.00  0.00    -0.164 C  
ENDROOT
BRANCH   5   8
HETATM    8  C   UNL     1     -10.860  13.061  68.282  1.00  0.00    -0.267 A  
HETATM    9  C   UNL     1     -11.062  12.825  66.830  1.00  0.00    -0.308 A  
HETATM   10  C   UNL     1     -12.353  12.594  66.329  1.00  0.00    -0.031 A  
HETATM   11  C   UNL     1     -12.554  12.397  64.964  1.00  0.00    -0.305 A  
HETATM   12  C   UNL     1     -11.470  12.439  64.090  1.00  0.00    -0.448 A  
HETATM   13  C   UNL     1     -10.186  12.691  64.578  1.00  0.00    -0.331 A  
HETATM   14  C   UNL     1      -9.968  12.911  65.946  1.00  0.00    -0.273 A  
HETATM   15  C   UNL     1      -8.590  13.189  66.396  1.00  0.00     0.289 A  
HETATM   16  C   UNL     1      -8.219  14.032  67.377  1.00  0.00    -0.203 A  
HETATM   17  C   UNL     1      -9.113  14.856  68.215  1.00  0.00    -0.179 A  
HETATM   18  C   UNL     1      -8.681  16.140  68.582  1.00  0.00    -0.214 A  
HETATM   19  C   UNL     1      -9.491  16.970  69.362  1.00  0.00     0.109 A  
HETATM   20  C   UNL     1     -10.738  16.526  69.795  1.00  0.00    -0.298 A  
HETATM   21  C   UNL     1     -11.173  15.246  69.456  1.00  0.00    -0.289 A  
HETATM   22  C   UNL     1     -10.361  14.399  68.685  1.00  0.00    -0.245 A  
ENDBRANCH   5   8
TORSDOF 1
ENDMDL
MODEL       94
REMARK 921   NORMALIZED FREE ENERGY PREDICTED BY IDOCK:   -4.08 KCAL/MOL
REMARK 922        TOTAL FREE ENERGY PREDICTED BY IDOCK:   -5.16 KCAL/MOL
REMARK 923 INTER-LIGAND FREE ENERGY PREDICTED BY IDOCK:   -4.37 KCAL/MOL
REMARK 924 INTRA-LIGAND FREE ENERGY PREDICTED BY IDOCK:   -0.78 KCAL/MOL
REMARK 927      BINDING AFFINITY PREDICTED BY RF-SCORE:    0.00 PKD
ROOT
HETATM    1  C   UNL     1      -9.659   2.978  70.095  1.00  0.00    -0.084 C  
HETATM    2  N   UNL     1      -8.642   3.965  69.740  1.00  0.00    -0.063 NA 
HETATM    3  C   UNL     1      -9.147   4.959  68.778  1.00  0.00    -0.112 C  
HETATM    4  C   UNL     1     -10.173   5.948  69.355  1.00  0.00    -0.284 C  
HETATM    5  C   UNL     1      -9.652   6.648  70.604  1.00  0.00    -0.177 C  
HETATM    6  C   UNL     1      -8.104   4.655  70.926  1.00  0.00    -0.082 C  
HETATM    7  C   UNL     1      -9.075   5.646  71.598  1.00  0.00    -0.150 C  
ENDROOT
BRANCH   5   8
HETATM    8  C   UNL     1      -9.650   7.996  70.783  1.00  0.00    -0.174 A  
HETATM    9  C   UNL     1     -10.907   8.736  71.058  1.00  0.00    -0.321 A  
HETATM   10  C   UNL     1     -11.553   8.589  72.297  1.00  0.00    -0.444 A  
HETATM   11  C   UNL     1     -12.719   9.300  72.572  1.00  0.00    -0.310 A  
HETATM   12  C   UNL     1     -13.243  10.170  71.618  1.00  0.00    -0.518 A  
HETATM   13  C   UNL     1     -12.594  10.339  70.392  1.00  0.00    -0.277 A  
HETATM   14  C   UNL     1     -11.409   9.646  70.106  1.00  0.00    -0.275 A  
HETATM   15  C   UNL     1     -10.762   9.882  68.800  1.00  0.00    -0.247 A  
HETATM   16  C   UNL     1      -9.440   9.924  68.554  1.00  0.00    -0.149 A  
HETATM   17  C   UNL     1      -8.354   9.741  69.538  1.00  0.00    -0.165 A  
HETATM   18  C   UNL     1      -7.193  10.517  69.397  1.00  0.00    -0.117 A  
HETATM   19  C   UNL     1      -6.139  10.396  70.306  1.00  0.00    -0.107 A  
HETATM   20  C   UNL     1      -6.225   9.492  71.361  1.00  0.00    -0.007 A  
HETATM   21  C   UNL     1      -7.362   8.699  71.504  1.00  0.00    -0.118 A  
HETATM   22  C   UNL     1      -8.421   8.803  70.587  1.00  0.00    -0.193 A  
ENDBRANCH   5   8
TORSDOF 1
ENDMDL
MODEL       95
REMARK 921   NORMALIZED FREE ENERGY PREDICTED BY IDOCK:   -4.06 KCAL/MOL
REMARK 922        TOTAL FREE ENERGY PREDICTED BY IDOCK:   -5.14 KCAL/MOL
REMARK 923 INTER-LIGAND FREE ENERGY PREDICTED BY IDOCK:   -4.33 KCAL/MOL
REMARK 924 INTRA-LIGAND FREE ENERGY PREDICTED BY IDOCK:   -0.81 KCAL/MOL
REMARK 927      BINDING AFFINITY PREDICTED BY RF-SCORE:    0.00 PKD
ROOT
HETATM    1  C   UNL     1      -5.133  10.960  69.188  1.00  0.00    -0.041 C  
HETATM    2  N   UNL     1      -5.814  11.034  67.897  1.00  0.00    -0.046 NA 
HETATM    3  C   UNL     1      -7.144  10.402  67.937  1.00  0.00    -0.083 C  
HETATM    4  C   UNL     1      -8.197  11.175  68.747  1.00  0.00    -0.135 C  
HETATM    5  C   UNL     1      -8.319  12.624  68.291  1.00  0.00    -0.165 C  
HETATM    6  C   UNL     1      -5.940  12.420  67.417  1.00  0.00    -0.154 C  
HETATM    7  C   UNL     1      -6.951  13.288  68.191  1.00  0.00    -0.114 C  
ENDROOT
BRANCH   5   8
HETATM    8  C   UNL     1      -9.492  13.228  67.961  1.00  0.00    -0.219 A  
HETATM    9  C   UNL     1     -10.185  14.133  68.912  1.00  0.00    -0.181 A  
HETATM   10  C   UNL     1      -9.638  15.393  69.207  1.00  0.00    -0.268 A  
HETATM   11  C   UNL     1     -10.295  16.259  70.079  1.00  0.00    -0.095 A  
HETATM   12  C   UNL     1     -11.505  15.879  70.654  1.00  0.00    -0.426 A  
HETATM   13  C   UNL     1     -12.067  14.637  70.348  1.00  0.00    -0.383 A  
HETATM   14  C   UNL     1     -11.429  13.761  69.458  1.00  0.00    -0.327 A  
HETATM   15  C   UNL     1     -12.083  12.470  69.162  1.00  0.00    -0.187 A  
HETATM   16  C   UNL     1     -12.094  11.827  67.980  1.00  0.00    -0.003 A  
HETATM   17  C   UNL     1     -11.453  12.274  66.727  1.00  0.00    -0.421 A  
HETATM   18  C   UNL     1     -12.115  12.020  65.516  1.00  0.00    -0.067 A  
HETATM   19  C   UNL     1     -11.563  12.433  64.300  1.00  0.00    -0.436 A  
HETATM   20  C   UNL     1     -10.338  13.094  64.277  1.00  0.00    -0.361 A  
HETATM   21  C   UNL     1      -9.658  13.336  65.469  1.00  0.00     0.036 A  
HETATM   22  C   UNL     1     -10.198  12.913  66.694  1.00  0.00    -0.251 A  
ENDBRANCH   5   8
TORSDOF 1
ENDMDL
MODEL       96
REMARK 921   NORMALIZED FREE ENERGY PREDICTED BY IDOCK:   -4.04 KCAL/MOL
REMARK 922        TOTAL FREE ENERGY PREDICTED BY IDOCK:   -5.12 KCAL/MOL
REMARK 923 INTER-LIGAND FREE ENERGY PREDICTED BY IDOCK:   -4.59 KCAL/MOL
REMARK 924 INTRA-LIGAND FREE ENERGY PREDICTED BY IDOCK:   -0.53 KCAL/MOL
REMARK 927      BINDING AFFINITY PREDICTED BY RF-SCORE:    0.00 PKD
ROOT
HETATM    1  C   UNL     1      -6.675  18.831  65.508  1.00  0.00    -0.250 C  
HETATM    2  N   UNL     1      -7.219  18.856  66.864  1.00  0.00    -0.212 NA 
HETATM    3  C   UNL     1      -8.602  18.353  66.914  1.00  0.00    -0.271 C  
HETATM    4  C   UNL     1      -8.744  16.839  66.684  1.00  0.00    -0.281 C  
HETATM    5  C   UNL     1      -7.860  16.033  67.627  1.00  0.00    -0.161 C  
HETATM    6  C   UNL     1      -6.383  18.095  67.808  1.00  0.00    -0.180 C  
HETATM    7  C   UNL     1      -6.431  16.565  67.634  1.00  0.00    -0.170 C  
ENDROOT
BRANCH   5   8
HETATM    8  C   UNL     1      -8.301  15.008  68.404  1.00  0.00    -0.154 A  
HETATM    9  C   UNL     1      -7.427  13.851  68.721  1.00  0.00    -0.114 A  
HETATM   10  C   UNL     1      -6.333  14.013  69.586  1.00  0.00    -0.130 A  
HETATM   11  C   UNL     1      -5.523  12.926  69.909  1.00  0.00    -0.102 A  
HETATM   12  C   UNL     1      -5.804  11.670  69.378  1.00  0.00    -0.071 A  
HETATM   13  C   UNL     1      -6.904  11.495  68.534  1.00  0.00    -0.074 A  
HETATM   14  C   UNL     1      -7.741  12.573  68.215  1.00  0.00    -0.141 A  
HETATM   15  C   UNL     1      -8.897  12.320  67.332  1.00  0.00    -0.185 A  
HETATM   16  C   UNL     1     -10.113  12.892  67.415  1.00  0.00    -0.223 A  
HETATM   17  C   UNL     1     -10.547  13.898  68.405  1.00  0.00    -0.262 A  
HETATM   18  C   UNL     1     -11.865  13.831  68.883  1.00  0.00    -0.396 A  
HETATM   19  C   UNL     1     -12.328  14.747  69.832  1.00  0.00    -0.328 A  
HETATM   20  C   UNL     1     -11.486  15.748  70.307  1.00  0.00    -0.369 A  
HETATM   21  C   UNL     1     -10.180  15.842  69.827  1.00  0.00    -0.291 A  
HETATM   22  C   UNL     1      -9.711  14.934  68.864  1.00  0.00    -0.223 A  
ENDBRANCH   5   8
TORSDOF 1
ENDMDL
MODEL       97
REMARK 921   NORMALIZED FREE ENERGY PREDICTED BY IDOCK:   -4.04 KCAL/MOL
REMARK 922        TOTAL FREE ENERGY PREDICTED BY IDOCK:   -5.11 KCAL/MOL
REMARK 923 INTER-LIGAND FREE ENERGY PREDICTED BY IDOCK:   -4.59 KCAL/MOL
REMARK 924 INTRA-LIGAND FREE ENERGY PREDICTED BY IDOCK:   -0.53 KCAL/MOL
REMARK 927      BINDING AFFINITY PREDICTED BY RF-SCORE:    0.00 PKD
ROOT
HETATM    1  C   UNL     1     -11.762  14.950  66.684  1.00  0.00    -0.217 C  
HETATM    2  N   UNL     1     -10.904  14.576  67.806  1.00  0.00    -0.259 NA 
HETATM    3  C   UNL     1     -11.552  13.597  68.695  1.00  0.00    -0.329 C  
HETATM    4  C   UNL     1     -11.703  12.188  68.098  1.00  0.00    -0.402 C  
HETATM    5  C   UNL     1     -10.377  11.636  67.592  1.00  0.00    -0.210 C  
HETATM    6  C   UNL     1      -9.605  14.048  67.354  1.00  0.00    -0.227 C  
HETATM    7  C   UNL     1      -9.659  12.650  66.708  1.00  0.00    -0.241 C  
ENDROOT
BRANCH   5   8
HETATM    8  C   UNL     1      -9.873  10.419  67.930  1.00  0.00    -0.176 A  
HETATM    9  C   UNL     1     -10.111   9.835  69.274  1.00  0.00    -0.207 A  
HETATM   10  C   UNL     1     -11.394   9.384  69.627  1.00  0.00    -0.023 A  
HETATM   11  C   UNL     1     -11.620   8.811  70.876  1.00  0.00    -0.320 A  
HETATM   12  C   UNL     1     -10.567   8.676  71.778  1.00  0.00    -0.395 A  
HETATM   13  C   UNL     1      -9.284   9.102  71.427  1.00  0.00    -0.208 A  
HETATM   14  C   UNL     1      -9.034   9.663  70.166  1.00  0.00    -0.273 A  
HETATM   15  C   UNL     1      -7.653  10.077  69.849  1.00  0.00    -0.177 A  
HETATM   16  C   UNL     1      -7.041   9.986  68.654  1.00  0.00    -0.078 A  
HETATM   17  C   UNL     1      -7.621   9.455  67.405  1.00  0.00    -0.095 A  
HETATM   18  C   UNL     1      -6.789   8.720  66.547  1.00  0.00    -0.072 A  
HETATM   19  C   UNL     1      -7.287   8.181  65.357  1.00  0.00    -0.069 A  
HETATM   20  C   UNL     1      -8.619   8.377  65.004  1.00  0.00    -0.133 A  
HETATM   21  C   UNL     1      -9.454   9.121  65.835  1.00  0.00    -0.326 A  
HETATM   22  C   UNL     1      -8.959   9.679  67.025  1.00  0.00    -0.150 A  
ENDBRANCH   5   8
TORSDOF 1
ENDMDL
MODEL       98
REMARK 921   NORMALIZED FREE ENERGY PREDICTED BY IDOCK:   -4.03 KCAL/MOL
REMARK 922        TOTAL FREE ENERGY PREDICTED BY IDOCK:   -5.10 KCAL/MOL
REMARK 923 INTER-LIGAND FREE ENERGY PREDICTED BY IDOCK:   -4.63 KCAL/MOL
REMARK 924 INTRA-LIGAND FREE ENERGY PREDICTED BY IDOCK:   -0.47 KCAL/MOL
REMARK 927      BINDING AFFINITY PREDICTED BY RF-SCORE:    0.00 PKD
ROOT
HETATM    1  C   UNL     1     -13.634   9.179  72.395  1.00  0.00    -0.483 C  
HETATM    2  N   UNL     1     -12.673   8.769  71.373  1.00  0.00    -0.306 NA 
HETATM    3  C   UNL     1     -11.285   9.053  71.773  1.00  0.00    -0.378 C  
HETATM    4  C   UNL     1     -10.747   8.161  72.904  1.00  0.00    -0.317 C  
HETATM    5  C   UNL     1     -10.907   6.679  72.588  1.00  0.00    -0.279 C  
HETATM    6  C   UNL     1     -12.806   7.342  71.032  1.00  0.00    -0.208 C  
HETATM    7  C   UNL     1     -12.323   6.364  72.121  1.00  0.00    -0.231 C  
ENDROOT
BRANCH   5   8
HETATM    8  C   UNL     1      -9.901   5.767  72.659  1.00  0.00    -0.183 A  
HETATM    9  C   UNL     1      -8.478   6.187  72.614  1.00  0.00    -0.121 A  
HETATM   10  C   UNL     1      -7.912   6.871  73.702  1.00  0.00    -0.114 A  
HETATM   11  C   UNL     1      -6.570   7.245  73.678  1.00  0.00    -0.065 A  
HETATM   12  C   UNL     1      -5.782   6.932  72.573  1.00  0.00    -0.038 A  
HETATM   13  C   UNL     1      -6.331   6.232  71.496  1.00  0.00    -0.045 A  
HETATM   14  C   UNL     1      -7.675   5.830  71.512  1.00  0.00    -0.107 A  
HETATM   15  C   UNL     1      -8.191   5.078  70.351  1.00  0.00    -0.096 A  
HETATM   16  C   UNL     1      -9.087   4.075  70.377  1.00  0.00    -0.183 A  
HETATM   17  C   UNL     1      -9.749   3.515  71.572  1.00  0.00    -0.237 A  
HETATM   18  C   UNL     1      -9.988   2.132  71.611  1.00  0.00    -0.182 A  
HETATM   19  C   UNL     1     -10.598   1.544  72.723  1.00  0.00    -0.231 A  
HETATM   20  C   UNL     1     -10.986   2.330  73.805  1.00  0.00    -0.286 A  
HETATM   21  C   UNL     1     -10.774   3.707  73.774  1.00  0.00    -0.306 A  
HETATM   22  C   UNL     1     -10.175   4.309  72.656  1.00  0.00    -0.232 A  
ENDBRANCH   5   8
TORSDOF 1
ENDMDL
MODEL       99
REMARK 921   NORMALIZED FREE ENERGY PREDICTED BY IDOCK:   -4.03 KCAL/MOL
REMARK 922        TOTAL FREE ENERGY PREDICTED BY IDOCK:   -5.10 KCAL/MOL
REMARK 923 INTER-LIGAND FREE ENERGY PREDICTED BY IDOCK:   -4.56 KCAL/MOL
REMARK 924 INTRA-LIGAND FREE ENERGY PREDICTED BY IDOCK:   -0.54 KCAL/MOL
REMARK 927      BINDING AFFINITY PREDICTED BY RF-SCORE:    0.00 PKD
ROOT
HETATM    1  C   UNL     1     -12.571  12.985  64.582  1.00  0.00    -0.362 C  
HETATM    2  N   UNL     1     -11.153  13.238  64.827  1.00  0.00    -0.326 NA 
HETATM    3  C   UNL     1     -10.804  13.099  66.251  1.00  0.00    -0.279 C  
HETATM    4  C   UNL     1     -10.830  11.655  66.780  1.00  0.00    -0.322 C  
HETATM    5  C   UNL     1      -9.969  10.722  65.938  1.00  0.00    -0.304 C  
HETATM    6  C   UNL     1     -10.288  12.362  64.019  1.00  0.00    -0.409 C  
HETATM    7  C   UNL     1     -10.273  10.883  64.452  1.00  0.00    -0.423 C  
ENDROOT
BRANCH   5   8
HETATM    8  C   UNL     1      -9.015   9.895  66.442  1.00  0.00    -0.169 A  
HETATM    9  C   UNL     1      -8.753   8.565  65.837  1.00  0.00    -0.203 A  
HETATM   10  C   UNL     1      -8.142   8.474  64.576  1.00  0.00    -0.158 A  
HETATM   11  C   UNL     1      -7.869   7.229  64.013  1.00  0.00    -0.114 A  
HETATM   12  C   UNL     1      -8.195   6.068  64.709  1.00  0.00    -0.123 A  
HETATM   13  C   UNL     1      -8.783   6.149  65.974  1.00  0.00    -0.157 A  
HETATM   14  C   UNL     1      -9.046   7.393  66.563  1.00  0.00    -0.195 A  
HETATM   15  C   UNL     1      -9.652   7.413  67.910  1.00  0.00    -0.157 A  
HETATM   16  C   UNL     1      -9.394   8.292  68.895  1.00  0.00    -0.147 A  
HETATM   17  C   UNL     1      -8.453   9.428  68.838  1.00  0.00    -0.122 A  
HETATM   18  C   UNL     1      -7.721   9.741  69.994  1.00  0.00    -0.179 A  
HETATM   19  C   UNL     1      -6.804  10.797  69.994  1.00  0.00    -0.126 A  
HETATM   20  C   UNL     1      -6.615  11.560  68.846  1.00  0.00    -0.073 A  
HETATM   21  C   UNL     1      -7.349  11.276  67.696  1.00  0.00    -0.100 A  
HETATM   22  C   UNL     1      -8.282  10.226  67.689  1.00  0.00    -0.114 A  
ENDBRANCH   5   8
TORSDOF 1
ENDMDL
MODEL      100
REMARK 921   NORMALIZED FREE ENERGY PREDICTED BY IDOCK:   -4.01 KCAL/MOL
REMARK 922        TOTAL FREE ENERGY PREDICTED BY IDOCK:   -5.09 KCAL/MOL
REMARK 923 INTER-LIGAND FREE ENERGY PREDICTED BY IDOCK:   -4.33 KCAL/MOL
REMARK 924 INTRA-LIGAND FREE ENERGY PREDICTED BY IDOCK:   -0.76 KCAL/MOL
REMARK 927      BINDING AFFINITY PREDICTED BY RF-SCORE:    0.00 PKD
ROOT
HETATM    1  C   UNL     1      -6.815  10.215  66.792  1.00  0.00    -0.086 C  
HETATM    2  N   UNL     1      -6.381   9.140  67.681  1.00  0.00    -0.059 NA 
HETATM    3  C   UNL     1      -6.188   9.611  69.063  1.00  0.00    -0.041 C  
HETATM    4  C   UNL     1      -7.486   9.959  69.811  1.00  0.00    -0.140 C  
HETATM    5  C   UNL     1      -8.486   8.809  69.785  1.00  0.00    -0.129 C  
HETATM    6  C   UNL     1      -7.319   8.004  67.673  1.00  0.00    -0.093 C  
HETATM    7  C   UNL     1      -8.667   8.268  68.371  1.00  0.00    -0.133 C  
ENDROOT
BRANCH   5   8
HETATM    8  C   UNL     1      -9.094   8.297  70.887  1.00  0.00    -0.176 A  
HETATM    9  C   UNL     1      -8.347   7.458  71.858  1.00  0.00    -0.115 A  
HETATM   10  C   UNL     1      -7.373   8.040  72.686  1.00  0.00    -0.130 A  
HETATM   11  C   UNL     1      -6.686   7.265  73.617  1.00  0.00    -0.065 A  
HETATM   12  C   UNL     1      -6.971   5.907  73.735  1.00  0.00    -0.081 A  
HETATM   13  C   UNL     1      -7.954   5.324  72.931  1.00  0.00    -0.102 A  
HETATM   14  C   UNL     1      -8.669   6.094  72.002  1.00  0.00    -0.135 A  
HETATM   15  C   UNL     1      -9.708   5.423  71.194  1.00  0.00    -0.229 A  
HETATM   16  C   UNL     1     -10.884   5.946  70.803  1.00  0.00    -0.352 A  
HETATM   17  C   UNL     1     -11.385   7.305  71.094  1.00  0.00    -0.294 A  
HETATM   18  C   UNL     1     -12.758   7.466  71.340  1.00  0.00    -0.408 A  
HETATM   19  C   UNL     1     -13.287   8.726  71.635  1.00  0.00    -0.402 A  
HETATM   20  C   UNL     1     -12.455   9.841  71.679  1.00  0.00    -0.500 A  
HETATM   21  C   UNL     1     -11.093   9.702  71.418  1.00  0.00    -0.397 A  
HETATM   22  C   UNL     1     -10.555   8.442  71.106  1.00  0.00    -0.266 A  
ENDBRANCH   5   8
TORSDOF 1
ENDMDL
MODEL      101
REMARK 921   NORMALIZED FREE ENERGY PREDICTED BY IDOCK:   -3.99 KCAL/MOL
REMARK 922        TOTAL FREE ENERGY PREDICTED BY IDOCK:   -5.07 KCAL/MOL
REMARK 923 INTER-LIGAND FREE ENERGY PREDICTED BY IDOCK:   -4.23 KCAL/MOL
REMARK 924 INTRA-LIGAND FREE ENERGY PREDICTED BY IDOCK:   -0.84 KCAL/MOL
REMARK 927      BINDING AFFINITY PREDICTED BY RF-SCORE:    0.00 PKD
ROOT
HETATM    1  C   UNL     1      -7.251   8.538  71.746  1.00  0.00    -0.095 C  
HETATM    2  N   UNL     1      -7.531   8.228  70.346  1.00  0.00    -0.065 NA 
HETATM    3  C   UNL     1      -8.914   8.566  69.971  1.00  0.00    -0.142 C  
HETATM    4  C   UNL     1      -9.207  10.074  69.890  1.00  0.00    -0.195 C  
HETATM    5  C   UNL     1      -8.225  10.799  68.978  1.00  0.00    -0.139 C  
HETATM    6  C   UNL     1      -6.592   8.903  69.433  1.00  0.00    -0.045 C  
HETATM    7  C   UNL     1      -6.785  10.427  69.311  1.00  0.00    -0.067 C  
ENDROOT
BRANCH   5   8
HETATM    8  C   UNL     1      -8.590  11.626  67.962  1.00  0.00    -0.152 A  
HETATM    9  C   UNL     1      -8.871  13.063  68.204  1.00  0.00    -0.194 A  
HETATM   10  C   UNL     1      -7.821  13.941  68.521  1.00  0.00    -0.139 A  
HETATM   11  C   UNL     1      -8.073  15.296  68.724  1.00  0.00    -0.165 A  
HETATM   12  C   UNL     1      -9.372  15.786  68.604  1.00  0.00    -0.206 A  
HETATM   13  C   UNL     1     -10.418  14.923  68.268  1.00  0.00    -0.239 A  
HETATM   14  C   UNL     1     -10.179  13.560  68.040  1.00  0.00    -0.243 A  
HETATM   15  C   UNL     1     -11.324  12.704  67.671  1.00  0.00    -0.362 A  
HETATM   16  C   UNL     1     -11.311  11.671  66.810  1.00  0.00    -0.354 A  
HETATM   17  C   UNL     1     -10.146  11.170  66.053  1.00  0.00    -0.292 A  
HETATM   18  C   UNL     1     -10.355  10.708  64.744  1.00  0.00    -0.353 A  
HETATM   19  C   UNL     1      -9.288  10.236  63.975  1.00  0.00    -0.337 A  
HETATM   20  C   UNL     1      -8.001  10.209  64.505  1.00  0.00    -0.147 A  
HETATM   21  C   UNL     1      -7.779  10.646  65.809  1.00  0.00    -0.130 A  
HETATM   22  C   UNL     1      -8.847  11.109  66.595  1.00  0.00    -0.168 A  
ENDBRANCH   5   8
TORSDOF 1
ENDMDL
MODEL      102
REMARK 921   NORMALIZED FREE ENERGY PREDICTED BY IDOCK:   -3.98 KCAL/MOL
REMARK 922        TOTAL FREE ENERGY PREDICTED BY IDOCK:   -5.05 KCAL/MOL
REMARK 923 INTER-LIGAND FREE ENERGY PREDICTED BY IDOCK:   -4.26 KCAL/MOL
REMARK 924 INTRA-LIGAND FREE ENERGY PREDICTED BY IDOCK:   -0.79 KCAL/MOL
REMARK 927      BINDING AFFINITY PREDICTED BY RF-SCORE:    0.00 PKD
ROOT
HETATM    1  C   UNL     1      -9.565  11.976  66.084  1.00  0.00    -0.239 C  
HETATM    2  N   UNL     1     -10.671  11.495  66.909  1.00  0.00    -0.250 NA 
HETATM    3  C   UNL     1     -10.935  10.062  66.699  1.00  0.00     0.116 C  
HETATM    4  C   UNL     1      -9.858   9.121  67.263  1.00  0.00    -0.244 C  
HETATM    5  C   UNL     1      -9.579   9.390  68.737  1.00  0.00    -0.156 C  
HETATM    6  C   UNL     1     -10.442  11.750  68.342  1.00  0.00    -0.215 C  
HETATM    7  C   UNL     1      -9.352  10.876  68.993  1.00  0.00    -0.144 C  
ENDROOT
BRANCH   5   8
HETATM    8  C   UNL     1      -9.588   8.436  69.706  1.00  0.00    -0.170 A  
HETATM    9  C   UNL     1      -8.468   7.471  69.845  1.00  0.00    -0.138 A  
HETATM   10  C   UNL     1      -7.217   7.908  70.309  1.00  0.00    -0.057 A  
HETATM   11  C   UNL     1      -6.169   7.004  70.467  1.00  0.00    -0.031 A  
HETATM   12  C   UNL     1      -6.365   5.657  70.171  1.00  0.00    -0.031 A  
HETATM   13  C   UNL     1      -7.613   5.210  69.730  1.00  0.00    -0.061 A  
HETATM   14  C   UNL     1      -8.684   6.103  69.585  1.00  0.00    -0.135 A  
HETATM   15  C   UNL     1      -9.983   5.566  69.131  1.00  0.00    -0.256 A  
HETATM   16  C   UNL     1     -11.203   5.967  69.531  1.00  0.00    -0.416 A  
HETATM   17  C   UNL     1     -11.503   7.034  70.507  1.00  0.00    -0.363 A  
HETATM   18  C   UNL     1     -12.592   6.853  71.374  1.00  0.00    -0.400 A  
HETATM   19  C   UNL     1     -12.915   7.822  72.328  1.00  0.00    -0.069 A  
HETATM   20  C   UNL     1     -12.162   8.990  72.421  1.00  0.00    -0.322 A  
HETATM   21  C   UNL     1     -11.090   9.195  71.555  1.00  0.00    -0.436 A  
HETATM   22  C   UNL     1     -10.767   8.233  70.584  1.00  0.00    -0.240 A  
ENDBRANCH   5   8
TORSDOF 1
ENDMDL
MODEL      103
REMARK 921   NORMALIZED FREE ENERGY PREDICTED BY IDOCK:   -3.96 KCAL/MOL
REMARK 922        TOTAL FREE ENERGY PREDICTED BY IDOCK:   -5.04 KCAL/MOL
REMARK 923 INTER-LIGAND FREE ENERGY PREDICTED BY IDOCK:   -4.44 KCAL/MOL
REMARK 924 INTRA-LIGAND FREE ENERGY PREDICTED BY IDOCK:   -0.59 KCAL/MOL
REMARK 927      BINDING AFFINITY PREDICTED BY RF-SCORE:    0.00 PKD
ROOT
HETATM    1  C   UNL     1     -12.462  14.427  72.196  1.00  0.00    -0.257 C  
HETATM    2  N   UNL     1     -13.064  14.301  70.870  1.00  0.00    -0.336 NA 
HETATM    3  C   UNL     1     -12.858  15.508  70.052  1.00  0.00    -0.008 C  
HETATM    4  C   UNL     1     -11.411  15.725  69.580  1.00  0.00    -0.328 C  
HETATM    5  C   UNL     1     -10.856  14.503  68.858  1.00  0.00    -0.262 C  
HETATM    6  C   UNL     1     -12.560  13.121  70.145  1.00  0.00    -0.009 C  
HETATM    7  C   UNL     1     -11.101  13.230  69.660  1.00  0.00    -0.001 C  
ENDROOT
BRANCH   5   8
HETATM    8  C   UNL     1     -10.270  14.538  67.631  1.00  0.00    -0.225 A  
HETATM    9  C   UNL     1     -10.538  13.484  66.621  1.00  0.00    -0.280 A  
HETATM   10  C   UNL     1     -11.795  13.410  65.999  1.00  0.00    -0.423 A  
HETATM   11  C   UNL     1     -12.047  12.441  65.031  1.00  0.00    -0.468 A  
HETATM   12  C   UNL     1     -11.044  11.545  64.670  1.00  0.00    -0.317 A  
HETATM   13  C   UNL     1      -9.784  11.625  65.267  1.00  0.00    -0.255 A  
HETATM   14  C   UNL     1      -9.507  12.607  66.229  1.00  0.00    -0.207 A  
HETATM   15  C   UNL     1      -8.150  12.651  66.811  1.00  0.00     0.073 A  
HETATM   16  C   UNL     1      -7.460  13.752  67.159  1.00  0.00     0.094 A  
HETATM   17  C   UNL     1      -7.915  15.152  67.038  1.00  0.00    -0.223 A  
HETATM   18  C   UNL     1      -6.970  16.127  66.683  1.00  0.00     0.035 A  
HETATM   19  C   UNL     1      -7.345  17.466  66.540  1.00  0.00    -0.312 A  
HETATM   20  C   UNL     1      -8.665  17.850  66.759  1.00  0.00    -0.269 A  
HETATM   21  C   UNL     1      -9.612  16.897  67.131  1.00  0.00    -0.245 A  
HETATM   22  C   UNL     1      -9.241  15.552  67.292  1.00  0.00    -0.219 A  
ENDBRANCH   5   8
TORSDOF 1
ENDMDL
MODEL      104
REMARK 921   NORMALIZED FREE ENERGY PREDICTED BY IDOCK:   -3.96 KCAL/MOL
REMARK 922        TOTAL FREE ENERGY PREDICTED BY IDOCK:   -5.03 KCAL/MOL
REMARK 923 INTER-LIGAND FREE ENERGY PREDICTED BY IDOCK:   -4.29 KCAL/MOL
REMARK 924 INTRA-LIGAND FREE ENERGY PREDICTED BY IDOCK:   -0.74 KCAL/MOL
REMARK 927      BINDING AFFINITY PREDICTED BY RF-SCORE:    0.00 PKD
ROOT
HETATM    1  C   UNL     1      -6.658   7.911  64.607  1.00  0.00    -0.052 C  
HETATM    2  N   UNL     1      -7.973   7.891  65.244  1.00  0.00    -0.118 NA 
HETATM    3  C   UNL     1      -7.881   8.047  66.705  1.00  0.00    -0.103 C  
HETATM    4  C   UNL     1      -7.467   9.451  67.176  1.00  0.00    -0.091 C  
HETATM    5  C   UNL     1      -8.360  10.537  66.589  1.00  0.00    -0.131 C  
HETATM    6  C   UNL     1      -8.870   8.922  64.692  1.00  0.00    -0.055 C  
HETATM    7  C   UNL     1      -8.514  10.370  65.082  1.00  0.00    -0.177 C  
ENDROOT
BRANCH   5   8
HETATM    8  C   UNL     1      -8.984  11.497  67.324  1.00  0.00    -0.162 A  
HETATM    9  C   UNL     1     -10.106  11.161  68.235  1.00  0.00    -0.196 A  
HETATM   10  C   UNL     1      -9.861  10.441  69.415  1.00  0.00    -0.235 A  
HETATM   11  C   UNL     1     -10.906  10.143  70.288  1.00  0.00    -0.370 A  
HETATM   12  C   UNL     1     -12.198  10.570  69.994  1.00  0.00    -0.323 A  
HETATM   13  C   UNL     1     -12.447  11.306  68.834  1.00  0.00     0.286 A  
HETATM   14  C   UNL     1     -11.405  11.632  67.954  1.00  0.00    -0.369 A  
HETATM   15  C   UNL     1     -11.729  12.427  66.752  1.00  0.00    -0.430 A  
HETATM   16  C   UNL     1     -10.962  13.375  66.185  1.00  0.00    -0.285 A  
HETATM   17  C   UNL     1      -9.629  13.820  66.640  1.00  0.00    -0.295 A  
HETATM   18  C   UNL     1      -9.309  15.181  66.525  1.00  0.00    -0.308 A  
HETATM   19  C   UNL     1      -8.068  15.662  66.952  1.00  0.00    -0.290 A  
HETATM   20  C   UNL     1      -7.127  14.789  67.491  1.00  0.00    -0.209 A  
HETATM   21  C   UNL     1      -7.421  13.431  67.595  1.00  0.00    -0.182 A  
HETATM   22  C   UNL     1      -8.660  12.936  67.154  1.00  0.00    -0.198 A  
ENDBRANCH   5   8
TORSDOF 1
ENDMDL
MODEL      105
REMARK 921   NORMALIZED FREE ENERGY PREDICTED BY IDOCK:   -3.88 KCAL/MOL
REMARK 922        TOTAL FREE ENERGY PREDICTED BY IDOCK:   -4.95 KCAL/MOL
REMARK 923 INTER-LIGAND FREE ENERGY PREDICTED BY IDOCK:   -4.18 KCAL/MOL
REMARK 924 INTRA-LIGAND FREE ENERGY PREDICTED BY IDOCK:   -0.77 KCAL/MOL
REMARK 927      BINDING AFFINITY PREDICTED BY RF-SCORE:    0.00 PKD
ROOT
HETATM    1  C   UNL     1     -10.926   4.918  73.659  1.00  0.00    -0.318 C  
HETATM    2  N   UNL     1     -10.787   6.304  73.219  1.00  0.00    -0.260 NA 
HETATM    3  C   UNL     1      -9.381   6.666  72.970  1.00  0.00    -0.135 C  
HETATM    4  C   UNL     1      -8.761   6.011  71.724  1.00  0.00    -0.138 C  
HETATM    5  C   UNL     1      -9.594   6.259  70.473  1.00  0.00    -0.183 C  
HETATM    6  C   UNL     1     -11.589   6.585  72.016  1.00  0.00    -0.311 C  
HETATM    7  C   UNL     1     -11.065   5.941  70.718  1.00  0.00    -0.324 C  
ENDROOT
BRANCH   5   8
HETATM    8  C   UNL     1      -9.099   6.754  69.307  1.00  0.00    -0.139 A  
HETATM    9  C   UNL     1      -9.465   8.111  68.831  1.00  0.00    -0.151 A  
HETATM   10  C   UNL     1      -8.978   9.246  69.500  1.00  0.00    -0.154 A  
HETATM   11  C   UNL     1      -9.296  10.523  69.043  1.00  0.00    -0.205 A  
HETATM   12  C   UNL     1     -10.094  10.677  67.912  1.00  0.00    -0.194 A  
HETATM   13  C   UNL     1     -10.564   9.554  67.227  1.00  0.00    -0.317 A  
HETATM   14  C   UNL     1     -10.237   8.261  67.661  1.00  0.00    -0.294 A  
HETATM   15  C   UNL     1     -10.751   7.114  66.885  1.00  0.00    -0.363 A  
HETATM   16  C   UNL     1     -10.114   5.953  66.650  1.00  0.00    -0.229 A  
HETATM   17  C   UNL     1      -8.766   5.576  67.121  1.00  0.00    -0.107 A  
HETATM   18  C   UNL     1      -7.953   4.815  66.267  1.00  0.00    -0.103 A  
HETATM   19  C   UNL     1      -6.663   4.441  66.654  1.00  0.00    -0.051 A  
HETATM   20  C   UNL     1      -6.173   4.812  67.903  1.00  0.00    -0.035 A  
HETATM   21  C   UNL     1      -6.974   5.550  68.772  1.00  0.00    -0.060 A  
HETATM   22  C   UNL     1      -8.277   5.918  68.397  1.00  0.00    -0.109 A  
ENDBRANCH   5   8
TORSDOF 1
ENDMDL
MODEL      106
REMARK 921   NORMALIZED FREE ENERGY PREDICTED BY IDOCK:   -3.87 KCAL/MOL
REMARK 922        TOTAL FREE ENERGY PREDICTED BY IDOCK:   -4.93 KCAL/MOL
REMARK 923 INTER-LIGAND FREE ENERGY PREDICTED BY IDOCK:   -4.13 KCAL/MOL
REMARK 924 INTRA-LIGAND FREE ENERGY PREDICTED BY IDOCK:   -0.81 KCAL/MOL
REMARK 927      BINDING AFFINITY PREDICTED BY RF-SCORE:    0.00 PKD
ROOT
HETATM    1  C   UNL     1     -11.034   4.247  72.849  1.00  0.00    -0.112 C  
HETATM    2  N   UNL     1      -9.727   4.491  72.244  1.00  0.00    -0.156 NA 
HETATM    3  C   UNL     1      -9.818   4.676  70.786  1.00  0.00    -0.214 C  
HETATM    4  C   UNL     1     -10.475   5.995  70.347  1.00  0.00    -0.307 C  
HETATM    5  C   UNL     1      -9.810   7.207  70.987  1.00  0.00    -0.181 C  
HETATM    6  C   UNL     1      -9.046   5.650  72.848  1.00  0.00    -0.125 C  
HETATM    7  C   UNL     1      -9.656   7.020  72.492  1.00  0.00    -0.166 C  
ENDROOT
BRANCH   5   8
HETATM    8  C   UNL     1      -9.361   8.289  70.298  1.00  0.00    -0.159 A  
HETATM    9  C   UNL     1     -10.297   9.332  69.809  1.00  0.00    -0.232 A  
HETATM   10  C   UNL     1     -10.926  10.195  70.720  1.00  0.00    -0.313 A  
HETATM   11  C   UNL     1     -11.786  11.193  70.267  1.00  0.00    -0.455 A  
HETATM   12  C   UNL     1     -12.017  11.342  68.902  1.00  0.00    -0.371 A  
HETATM   13  C   UNL     1     -11.378  10.503  67.986  1.00  0.00    -0.319 A  
HETATM   14  C   UNL     1     -10.494   9.506  68.424  1.00  0.00    -0.261 A  
HETATM   15  C   UNL     1      -9.836   8.662  67.406  1.00  0.00    -0.249 A  
HETATM   16  C   UNL     1      -8.580   8.183  67.449  1.00  0.00    -0.125 A  
HETATM   17  C   UNL     1      -7.592   8.395  68.526  1.00  0.00    -0.096 A  
HETATM   18  C   UNL     1      -6.244   8.552  68.168  1.00  0.00    -0.051 A  
HETATM   19  C   UNL     1      -5.267   8.770  69.144  1.00  0.00    -0.036 A  
HETATM   20  C   UNL     1      -5.621   8.823  70.489  1.00  0.00    -0.027 A  
HETATM   21  C   UNL     1      -6.952   8.649  70.863  1.00  0.00    -0.064 A  
HETATM   22  C   UNL     1      -7.939   8.415  69.892  1.00  0.00    -0.107 A  
ENDBRANCH   5   8
TORSDOF 1
ENDMDL
MODEL      107
REMARK 921   NORMALIZED FREE ENERGY PREDICTED BY IDOCK:   -3.86 KCAL/MOL
REMARK 922        TOTAL FREE ENERGY PREDICTED BY IDOCK:   -4.93 KCAL/MOL
REMARK 923 INTER-LIGAND FREE ENERGY PREDICTED BY IDOCK:   -4.43 KCAL/MOL
REMARK 924 INTRA-LIGAND FREE ENERGY PREDICTED BY IDOCK:   -0.50 KCAL/MOL
REMARK 927      BINDING AFFINITY PREDICTED BY RF-SCORE:    0.00 PKD
ROOT
HETATM    1  C   UNL     1     -14.003   8.408  71.715  1.00  0.00    -0.420 C  
HETATM    2  N   UNL     1     -12.639   8.258  72.215  1.00  0.00    -0.330 NA 
HETATM    3  C   UNL     1     -12.036   6.980  71.800  1.00  0.00    -0.326 C  
HETATM    4  C   UNL     1     -11.697   6.887  70.303  1.00  0.00    -0.344 C  
HETATM    5  C   UNL     1     -10.829   8.050  69.840  1.00  0.00    -0.217 C  
HETATM    6  C   UNL     1     -11.771   9.372  71.797  1.00  0.00    -0.374 C  
HETATM    7  C   UNL     1     -11.403   9.385  70.301  1.00  0.00    -0.261 C  
ENDROOT
BRANCH   5   8
HETATM    8  C   UNL     1      -9.663   7.911  69.153  1.00  0.00    -0.162 A  
HETATM    9  C   UNL     1      -8.638   8.984  69.154  1.00  0.00    -0.133 A  
HETATM   10  C   UNL     1      -7.901   9.252  70.319  1.00  0.00    -0.148 A  
HETATM   11  C   UNL     1      -6.918  10.240  70.320  1.00  0.00    -0.136 A  
HETATM   12  C   UNL     1      -6.660  10.962  69.157  1.00  0.00    -0.069 A  
HETATM   13  C   UNL     1      -7.373  10.687  67.988  1.00  0.00    -0.088 A  
HETATM   14  C   UNL     1      -8.351   9.683  67.964  1.00  0.00    -0.117 A  
HETATM   15  C   UNL     1      -9.058   9.429  66.692  1.00  0.00    -0.181 A  
HETATM   16  C   UNL     1      -9.464   8.235  66.222  1.00  0.00    -0.271 A  
HETATM   17  C   UNL     1      -9.292   6.925  66.880  1.00  0.00    -0.177 A  
HETATM   18  C   UNL     1      -9.022   5.808  66.074  1.00  0.00    -0.157 A  
HETATM   19  C   UNL     1      -8.836   4.545  66.642  1.00  0.00    -0.112 A  
HETATM   20  C   UNL     1      -8.927   4.378  68.021  1.00  0.00    -0.142 A  
HETATM   21  C   UNL     1      -9.214   5.472  68.835  1.00  0.00    -0.141 A  
HETATM   22  C   UNL     1      -9.416   6.743  68.272  1.00  0.00    -0.125 A  
ENDBRANCH   5   8
TORSDOF 1
ENDMDL
MODEL      108
REMARK 921   NORMALIZED FREE ENERGY PREDICTED BY IDOCK:   -3.83 KCAL/MOL
REMARK 922        TOTAL FREE ENERGY PREDICTED BY IDOCK:   -4.90 KCAL/MOL
REMARK 923 INTER-LIGAND FREE ENERGY PREDICTED BY IDOCK:   -4.32 KCAL/MOL
REMARK 924 INTRA-LIGAND FREE ENERGY PREDICTED BY IDOCK:   -0.58 KCAL/MOL
REMARK 927      BINDING AFFINITY PREDICTED BY RF-SCORE:    0.00 PKD
ROOT
HETATM    1  C   UNL     1     -10.207   8.405  66.732  1.00  0.00    -0.306 C  
HETATM    2  N   UNL     1      -9.609   7.104  67.025  1.00  0.00    -0.151 NA 
HETATM    3  C   UNL     1      -8.314   7.235  67.715  1.00  0.00    -0.118 C  
HETATM    4  C   UNL     1      -8.407   7.730  69.167  1.00  0.00    -0.134 C  
HETATM    5  C   UNL     1      -9.359   6.882  70.001  1.00  0.00    -0.158 C  
HETATM    6  C   UNL     1     -10.507   6.250  67.821  1.00  0.00    -0.232 C  
HETATM    7  C   UNL     1     -10.692   6.687  69.287  1.00  0.00    -0.307 C  
ENDROOT
BRANCH   5   8
HETATM    8  C   UNL     1      -9.041   6.324  71.199  1.00  0.00    -0.148 A  
HETATM    9  C   UNL     1      -9.523   4.971  71.570  1.00  0.00    -0.203 A  
HETATM   10  C   UNL     1      -9.004   3.837  70.923  1.00  0.00    -0.154 A  
HETATM   11  C   UNL     1      -9.432   2.562  71.284  1.00  0.00    -0.220 A  
HETATM   12  C   UNL     1     -10.376   2.408  72.297  1.00  0.00    -0.156 A  
HETATM   13  C   UNL     1     -10.882   3.528  72.960  1.00  0.00    -0.200 A  
HETATM   14  C   UNL     1     -10.446   4.818  72.624  1.00  0.00    -0.260 A  
HETATM   15  C   UNL     1     -11.006   5.960  73.374  1.00  0.00    -0.230 A  
HETATM   16  C   UNL     1     -10.356   7.081  73.736  1.00  0.00    -0.408 A  
HETATM   17  C   UNL     1      -8.943   7.409  73.455  1.00  0.00    -0.243 A  
HETATM   18  C   UNL     1      -8.216   8.100  74.437  1.00  0.00    -0.253 A  
HETATM   19  C   UNL     1      -6.872   8.425  74.233  1.00  0.00    -0.185 A  
HETATM   20  C   UNL     1      -6.240   8.075  73.043  1.00  0.00    -0.073 A  
HETATM   21  C   UNL     1      -6.953   7.406  72.050  1.00  0.00    -0.062 A  
HETATM   22  C   UNL     1      -8.308   7.088  72.240  1.00  0.00    -0.115 A  
ENDBRANCH   5   8
TORSDOF 1
ENDMDL
MODEL      109
REMARK 921   NORMALIZED FREE ENERGY PREDICTED BY IDOCK:   -3.83 KCAL/MOL
REMARK 922        TOTAL FREE ENERGY PREDICTED BY IDOCK:   -4.89 KCAL/MOL
REMARK 923 INTER-LIGAND FREE ENERGY PREDICTED BY IDOCK:   -4.39 KCAL/MOL
REMARK 924 INTRA-LIGAND FREE ENERGY PREDICTED BY IDOCK:   -0.50 KCAL/MOL
REMARK 927      BINDING AFFINITY PREDICTED BY RF-SCORE:    0.00 PKD
ROOT
HETATM    1  C   UNL     1     -11.866  14.527  64.140  1.00  0.00    -0.267 C  
HETATM    2  N   UNL     1     -12.122  13.874  65.421  1.00  0.00    -0.385 NA 
HETATM    3  C   UNL     1     -12.061  12.407  65.316  1.00  0.00    -0.391 C  
HETATM    4  C   UNL     1     -10.650  11.837  65.095  1.00  0.00    -0.332 C  
HETATM    5  C   UNL     1      -9.664  12.327  66.148  1.00  0.00    -0.256 C  
HETATM    6  C   UNL     1     -11.194  14.333  66.470  1.00  0.00    -0.332 C  
HETATM    7  C   UNL     1      -9.742  13.840  66.315  1.00  0.00    -0.297 C  
ENDROOT
BRANCH   5   8
HETATM    8  C   UNL     1      -8.860  11.513  66.884  1.00  0.00    -0.182 A  
HETATM    9  C   UNL     1      -7.571  12.000  67.434  1.00  0.00    -0.151 A  
HETATM   10  C   UNL     1      -7.562  12.931  68.486  1.00  0.00    -0.120 A  
HETATM   11  C   UNL     1      -6.356  13.373  69.025  1.00  0.00    -0.097 A  
HETATM   12  C   UNL     1      -5.152  12.883  68.526  1.00  0.00    -0.063 A  
HETATM   13  C   UNL     1      -5.152  11.940  67.495  1.00  0.00    -0.076 A  
HETATM   14  C   UNL     1      -6.356  11.469  66.954  1.00  0.00    -0.146 A  
HETATM   15  C   UNL     1      -6.290  10.460  65.878  1.00  0.00    -0.119 A  
HETATM   16  C   UNL     1      -7.136   9.432  65.687  1.00  0.00    -0.090 A  
HETATM   17  C   UNL     1      -8.315   9.096  66.511  1.00  0.00    -0.119 A  
HETATM   18  C   UNL     1      -8.611   7.741  66.725  1.00  0.00    -0.133 A  
HETATM   19  C   UNL     1      -9.706   7.364  67.508  1.00  0.00    -0.186 A  
HETATM   20  C   UNL     1     -10.526   8.334  68.077  1.00  0.00    -0.239 A  
HETATM   21  C   UNL     1     -10.258   9.684  67.858  1.00  0.00    -0.242 A  
HETATM   22  C   UNL     1      -9.169  10.072  67.062  1.00  0.00    -0.167 A  
ENDBRANCH   5   8
TORSDOF 1
ENDMDL
MODEL      110
REMARK 921   NORMALIZED FREE ENERGY PREDICTED BY IDOCK:   -3.80 KCAL/MOL
REMARK 922        TOTAL FREE ENERGY PREDICTED BY IDOCK:   -4.87 KCAL/MOL
REMARK 923 INTER-LIGAND FREE ENERGY PREDICTED BY IDOCK:   -4.32 KCAL/MOL
REMARK 924 INTRA-LIGAND FREE ENERGY PREDICTED BY IDOCK:   -0.55 KCAL/MOL
REMARK 927      BINDING AFFINITY PREDICTED BY RF-SCORE:    0.00 PKD
ROOT
HETATM    1  C   UNL     1     -13.909   8.365  71.849  1.00  0.00    -0.408 C  
HETATM    2  N   UNL     1     -12.522   8.081  72.213  1.00  0.00    -0.291 NA 
HETATM    3  C   UNL     1     -12.078   6.769  71.714  1.00  0.00    -0.350 C  
HETATM    4  C   UNL     1     -11.890   6.691  70.190  1.00  0.00    -0.347 C  
HETATM    5  C   UNL     1     -10.968   7.788  69.671  1.00  0.00    -0.128 C  
HETATM    6  C   UNL     1     -11.601   9.128  71.738  1.00  0.00    -0.387 C  
HETATM    7  C   UNL     1     -11.375   9.153  70.214  1.00  0.00    -0.217 C  
ENDROOT
BRANCH   5   8
HETATM    8  C   UNL     1      -9.889   7.569  68.873  1.00  0.00    -0.159 A  
HETATM    9  C   UNL     1      -9.012   6.388  69.073  1.00  0.00    -0.128 A  
HETATM   10  C   UNL     1      -9.483   5.102  68.762  1.00  0.00    -0.181 A  
HETATM   11  C   UNL     1      -8.657   3.991  68.922  1.00  0.00    -0.112 A  
HETATM   12  C   UNL     1      -7.354   4.157  69.385  1.00  0.00    -0.054 A  
HETATM   13  C   UNL     1      -6.870   5.435  69.676  1.00  0.00    -0.060 A  
HETATM   14  C   UNL     1      -7.681   6.566  69.502  1.00  0.00    -0.100 A  
HETATM   15  C   UNL     1      -7.106   7.891  69.810  1.00  0.00    -0.061 A  
HETATM   16  C   UNL     1      -7.343   9.042  69.155  1.00  0.00    -0.072 A  
HETATM   17  C   UNL     1      -8.231   9.226  67.990  1.00  0.00    -0.115 A  
HETATM   18  C   UNL     1      -7.837  10.132  66.993  1.00  0.00    -0.102 A  
HETATM   19  C   UNL     1      -8.631  10.336  65.860  1.00  0.00    -0.160 A  
HETATM   20  C   UNL     1      -9.833   9.649  65.714  1.00  0.00    -0.373 A  
HETATM   21  C   UNL     1     -10.248   8.761  66.705  1.00  0.00    -0.354 A  
HETATM   22  C   UNL     1      -9.465   8.559  67.853  1.00  0.00    -0.157 A  
ENDBRANCH   5   8
TORSDOF 1
ENDMDL
MODEL      111
REMARK 921   NORMALIZED FREE ENERGY PREDICTED BY IDOCK:   -3.80 KCAL/MOL
REMARK 922        TOTAL FREE ENERGY PREDICTED BY IDOCK:   -4.87 KCAL/MOL
REMARK 923 INTER-LIGAND FREE ENERGY PREDICTED BY IDOCK:   -4.06 KCAL/MOL
REMARK 924 INTRA-LIGAND FREE ENERGY PREDICTED BY IDOCK:   -0.80 KCAL/MOL
REMARK 927      BINDING AFFINITY PREDICTED BY RF-SCORE:    0.00 PKD
ROOT
HETATM    1  C   UNL     1     -11.838  14.713  68.849  1.00  0.00    -0.309 C  
HETATM    2  N   UNL     1     -11.426  14.125  67.577  1.00  0.00    -0.321 NA 
HETATM    3  C   UNL     1      -9.961  14.033  67.460  1.00  0.00    -0.236 C  
HETATM    4  C   UNL     1      -9.310  12.979  68.371  1.00  0.00    -0.149 C  
HETATM    5  C   UNL     1      -9.937  11.602  68.192  1.00  0.00    -0.198 C  
HETATM    6  C   UNL     1     -12.024  12.796  67.363  1.00  0.00    -0.272 C  
HETATM    7  C   UNL     1     -11.458  11.676  68.258  1.00  0.00    -0.369 C  
ENDROOT
BRANCH   5   8
HETATM    8  C   UNL     1      -9.233  10.465  67.949  1.00  0.00    -0.143 A  
HETATM    9  C   UNL     1      -8.753  10.134  66.584  1.00  0.00    -0.134 A  
HETATM   10  C   UNL     1      -7.714  10.881  66.004  1.00  0.00    -0.107 A  
HETATM   11  C   UNL     1      -7.241  10.560  64.734  1.00  0.00     0.047 A  
HETATM   12  C   UNL     1      -7.793   9.488  64.038  1.00  0.00    -0.130 A  
HETATM   13  C   UNL     1      -8.811   8.726  64.616  1.00  0.00    -0.054 A  
HETATM   14  C   UNL     1      -9.286   9.022  65.902  1.00  0.00    -0.306 A  
HETATM   15  C   UNL     1     -10.352   8.169  66.465  1.00  0.00    -0.162 A  
HETATM   16  C   UNL     1     -10.488   7.797  67.751  1.00  0.00    -0.277 A  
HETATM   17  C   UNL     1      -9.603   8.166  68.874  1.00  0.00    -0.153 A  
HETATM   18  C   UNL     1      -9.359   7.206  69.868  1.00  0.00    -0.150 A  
HETATM   19  C   UNL     1      -8.518   7.494  70.947  1.00  0.00    -0.125 A  
HETATM   20  C   UNL     1      -7.920   8.746  71.053  1.00  0.00    -0.170 A  
HETATM   21  C   UNL     1      -8.168   9.718  70.085  1.00  0.00    -0.202 A  
HETATM   22  C   UNL     1      -9.022   9.442  69.004  1.00  0.00    -0.141 A  
ENDBRANCH   5   8
TORSDOF 1
ENDMDL
MODEL      112
REMARK 921   NORMALIZED FREE ENERGY PREDICTED BY IDOCK:   -3.80 KCAL/MOL
REMARK 922        TOTAL FREE ENERGY PREDICTED BY IDOCK:   -4.87 KCAL/MOL
REMARK 923 INTER-LIGAND FREE ENERGY PREDICTED BY IDOCK:   -4.13 KCAL/MOL
REMARK 924 INTRA-LIGAND FREE ENERGY PREDICTED BY IDOCK:   -0.74 KCAL/MOL
REMARK 927      BINDING AFFINITY PREDICTED BY RF-SCORE:    0.00 PKD
ROOT
HETATM    1  C   UNL     1     -11.410  13.592  66.296  1.00  0.00    -0.309 C  
HETATM    2  N   UNL     1     -10.850  13.363  67.626  1.00  0.00    -0.256 NA 
HETATM    3  C   UNL     1     -11.615  12.357  68.382  1.00  0.00    -0.324 C  
HETATM    4  C   UNL     1     -11.465  10.916  67.866  1.00  0.00    -0.344 C  
HETATM    5  C   UNL     1     -10.005  10.494  67.763  1.00  0.00    -0.198 C  
HETATM    6  C   UNL     1      -9.433  12.964  67.567  1.00  0.00    -0.198 C  
HETATM    7  C   UNL     1      -9.178  11.543  67.028  1.00  0.00    -0.180 C  
ENDROOT
BRANCH   5   8
HETATM    8  C   UNL     1      -9.495   9.356  68.306  1.00  0.00    -0.147 A  
HETATM    9  C   UNL     1      -9.915   8.018  67.820  1.00  0.00    -0.224 A  
HETATM   10  C   UNL     1      -9.513   7.573  66.551  1.00  0.00    -0.237 A  
HETATM   11  C   UNL     1      -9.881   6.307  66.098  1.00  0.00     0.021 A  
HETATM   12  C   UNL     1     -10.645   5.475  66.913  1.00  0.00    -0.348 A  
HETATM   13  C   UNL     1     -11.031   5.901  68.186  1.00  0.00    -0.258 A  
HETATM   14  C   UNL     1     -10.652   7.163  68.665  1.00  0.00    -0.217 A  
HETATM   15  C   UNL     1     -11.077   7.548  70.026  1.00  0.00    -0.219 A  
HETATM   16  C   UNL     1     -10.372   8.274  70.913  1.00  0.00    -0.225 A  
HETATM   17  C   UNL     1      -9.024   8.843  70.712  1.00  0.00    -0.254 A  
HETATM   18  C   UNL     1      -8.143   8.860  71.804  1.00  0.00    -0.045 A  
HETATM   19  C   UNL     1      -6.849   9.374  71.670  1.00  0.00     0.192 A  
HETATM   20  C   UNL     1      -6.423   9.886  70.448  1.00  0.00    -0.115 A  
HETATM   21  C   UNL     1      -7.293   9.895  69.359  1.00  0.00    -0.091 A  
HETATM   22  C   UNL     1      -8.599   9.394  69.488  1.00  0.00    -0.158 A  
ENDBRANCH   5   8
TORSDOF 1
ENDMDL
MODEL      113
REMARK 921   NORMALIZED FREE ENERGY PREDICTED BY IDOCK:   -3.78 KCAL/MOL
REMARK 922        TOTAL FREE ENERGY PREDICTED BY IDOCK:   -4.85 KCAL/MOL
REMARK 923 INTER-LIGAND FREE ENERGY PREDICTED BY IDOCK:   -4.16 KCAL/MOL
REMARK 924 INTRA-LIGAND FREE ENERGY PREDICTED BY IDOCK:   -0.69 KCAL/MOL
REMARK 927      BINDING AFFINITY PREDICTED BY RF-SCORE:    0.00 PKD
ROOT
HETATM    1  C   UNL     1      -8.170   9.977  62.967  1.00  0.00    -0.156 C  
HETATM    2  N   UNL     1      -8.973   9.428  64.058  1.00  0.00    -0.186 NA 
HETATM    3  C   UNL     1      -8.136   8.925  65.161  1.00  0.00    -0.133 C  
HETATM    4  C   UNL     1      -7.430  10.018  65.981  1.00  0.00    -0.112 C  
HETATM    5  C   UNL     1      -8.408  11.064  66.501  1.00  0.00    -0.163 C  
HETATM    6  C   UNL     1      -9.940  10.409  64.580  1.00  0.00    -0.331 C  
HETATM    7  C   UNL     1      -9.322  11.566  65.389  1.00  0.00    -0.177 C  
ENDROOT
BRANCH   5   8
HETATM    8  C   UNL     1      -8.491  11.457  67.800  1.00  0.00    -0.128 A  
HETATM    9  C   UNL     1      -7.321  12.038  68.504  1.00  0.00    -0.111 A  
HETATM   10  C   UNL     1      -6.861  13.321  68.163  1.00  0.00    -0.114 A  
HETATM   11  C   UNL     1      -5.779  13.884  68.837  1.00  0.00    -0.082 A  
HETATM   12  C   UNL     1      -5.155  13.175  69.861  1.00  0.00    -0.085 A  
HETATM   13  C   UNL     1      -5.620  11.908  70.221  1.00  0.00    -0.145 A  
HETATM   14  C   UNL     1      -6.720  11.335  69.567  1.00  0.00    -0.128 A  
HETATM   15  C   UNL     1      -7.174  10.000  70.007  1.00  0.00    -0.158 A  
HETATM   16  C   UNL     1      -8.445   9.564  70.069  1.00  0.00    -0.210 A  
HETATM   17  C   UNL     1      -9.657  10.326  69.707  1.00  0.00    -0.146 A  
HETATM   18  C   UNL     1     -10.814  10.135  70.478  1.00  0.00    -0.340 A  
HETATM   19  C   UNL     1     -11.987  10.840  70.191  1.00  0.00    -0.432 A  
HETATM   20  C   UNL     1     -12.023  11.735  69.125  1.00  0.00    -0.356 A  
HETATM   21  C   UNL     1     -10.888  11.921  68.338  1.00  0.00    -0.263 A  
HETATM   22  C   UNL     1      -9.709  11.207  68.609  1.00  0.00    -0.202 A  
ENDBRANCH   5   8
TORSDOF 1
ENDMDL
MODEL      114
REMARK 921   NORMALIZED FREE ENERGY PREDICTED BY IDOCK:   -3.78 KCAL/MOL
REMARK 922        TOTAL FREE ENERGY PREDICTED BY IDOCK:   -4.84 KCAL/MOL
REMARK 923 INTER-LIGAND FREE ENERGY PREDICTED BY IDOCK:   -4.00 KCAL/MOL
REMARK 924 INTRA-LIGAND FREE ENERGY PREDICTED BY IDOCK:   -0.84 KCAL/MOL
REMARK 927      BINDING AFFINITY PREDICTED BY RF-SCORE:    0.00 PKD
ROOT
HETATM    1  C   UNL     1     -10.588  11.023  67.506  1.00  0.00    -0.227 C  
HETATM    2  N   UNL     1     -10.016  11.145  68.845  1.00  0.00    -0.197 NA 
HETATM    3  C   UNL     1     -10.817  10.431  69.855  1.00  0.00    -0.298 C  
HETATM    4  C   UNL     1     -10.748   8.898  69.762  1.00  0.00    -0.230 C  
HETATM    5  C   UNL     1      -9.312   8.388  69.776  1.00  0.00    -0.158 C  
HETATM    6  C   UNL     1      -8.622  10.672  68.895  1.00  0.00    -0.158 C  
HETATM    7  C   UNL     1      -8.448   9.145  68.775  1.00  0.00    -0.130 C  
ENDROOT
BRANCH   5   8
HETATM    8  C   UNL     1      -8.850   7.422  70.614  1.00  0.00    -0.150 A  
HETATM    9  C   UNL     1      -8.943   5.985  70.256  1.00  0.00    -0.152 A  
HETATM   10  C   UNL     1      -8.135   5.461  69.233  1.00  0.00    -0.093 A  
HETATM   11  C   UNL     1      -8.198   4.108  68.908  1.00  0.00    -0.078 A  
HETATM   12  C   UNL     1      -9.060   3.266  69.607  1.00  0.00    -0.204 A  
HETATM   13  C   UNL     1      -9.851   3.774  70.640  1.00  0.00    -0.159 A  
HETATM   14  C   UNL     1      -9.786   5.129  70.994  1.00  0.00    -0.261 A  
HETATM   15  C   UNL     1     -10.635   5.601  72.106  1.00  0.00    -0.274 A  
HETATM   16  C   UNL     1     -10.314   6.533  73.023  1.00  0.00    -0.239 A  
HETATM   17  C   UNL     1      -9.046   7.285  73.108  1.00  0.00    -0.193 A  
HETATM   18  C   UNL     1      -8.533   7.577  74.381  1.00  0.00    -0.255 A  
HETATM   19  C   UNL     1      -7.329   8.273  74.523  1.00  0.00    -0.255 A  
HETATM   20  C   UNL     1      -6.629   8.698  73.397  1.00  0.00    -0.039 A  
HETATM   21  C   UNL     1      -7.135   8.434  72.126  1.00  0.00    -0.108 A  
HETATM   22  C   UNL     1      -8.351   7.747  71.973  1.00  0.00    -0.142 A  
ENDBRANCH   5   8
TORSDOF 1
ENDMDL
MODEL      115
REMARK 921   NORMALIZED FREE ENERGY PREDICTED BY IDOCK:   -3.70 KCAL/MOL
REMARK 922        TOTAL FREE ENERGY PREDICTED BY IDOCK:   -4.76 KCAL/MOL
REMARK 923 INTER-LIGAND FREE ENERGY PREDICTED BY IDOCK:   -4.09 KCAL/MOL
REMARK 924 INTRA-LIGAND FREE ENERGY PREDICTED BY IDOCK:   -0.67 KCAL/MOL
REMARK 927      BINDING AFFINITY PREDICTED BY RF-SCORE:    0.00 PKD
ROOT
HETATM    1  C   UNL     1      -9.735   6.794  74.063  1.00  0.00    -0.279 C  
HETATM    2  N   UNL     1      -9.964   7.865  73.096  1.00  0.00    -0.297 NA 
HETATM    3  C   UNL     1      -8.714   8.306  72.454  1.00  0.00    -0.213 C  
HETATM    4  C   UNL     1      -8.106   7.293  71.470  1.00  0.00    -0.101 C  
HETATM    5  C   UNL     1      -9.109   6.851  70.412  1.00  0.00    -0.156 C  
HETATM    6  C   UNL     1     -10.940   7.478  72.063  1.00  0.00    -0.242 C  
HETATM    7  C   UNL     1     -10.433   6.437  71.046  1.00  0.00    -0.268 C  
ENDROOT
BRANCH   5   8
HETATM    8  C   UNL     1      -8.874   6.876  69.073  1.00  0.00    -0.130 A  
HETATM    9  C   UNL     1      -8.537   8.142  68.376  1.00  0.00    -0.130 A  
HETATM   10  C   UNL     1      -7.291   8.753  68.590  1.00  0.00    -0.080 A  
HETATM   11  C   UNL     1      -6.958   9.928  67.918  1.00  0.00    -0.081 A  
HETATM   12  C   UNL     1      -7.861  10.495  67.024  1.00  0.00    -0.114 A  
HETATM   13  C   UNL     1      -9.094   9.883  66.788  1.00  0.00    -0.164 A  
HETATM   14  C   UNL     1      -9.438   8.689  67.439  1.00  0.00    -0.187 A  
HETATM   15  C   UNL     1     -10.749   8.081  67.135  1.00  0.00    -0.285 A  
HETATM   16  C   UNL     1     -11.025   6.767  67.050  1.00  0.00    -0.439 A  
HETATM   17  C   UNL     1     -10.077   5.653  67.248  1.00  0.00    -0.210 A  
HETATM   18  C   UNL     1     -10.213   4.514  66.438  1.00  0.00    -0.249 A  
HETATM   19  C   UNL     1      -9.336   3.434  66.571  1.00  0.00    -0.173 A  
HETATM   20  C   UNL     1      -8.318   3.472  67.520  1.00  0.00    -0.095 A  
HETATM   21  C   UNL     1      -8.180   4.587  68.345  1.00  0.00    -0.086 A  
HETATM   22  C   UNL     1      -9.066   5.671  68.229  1.00  0.00    -0.112 A  
ENDBRANCH   5   8
TORSDOF 1
ENDMDL
MODEL      116
REMARK 921   NORMALIZED FREE ENERGY PREDICTED BY IDOCK:   -3.70 KCAL/MOL
REMARK 922        TOTAL FREE ENERGY PREDICTED BY IDOCK:   -4.76 KCAL/MOL
REMARK 923 INTER-LIGAND FREE ENERGY PREDICTED BY IDOCK:   -4.02 KCAL/MOL
REMARK 924 INTRA-LIGAND FREE ENERGY PREDICTED BY IDOCK:   -0.74 KCAL/MOL
REMARK 927      BINDING AFFINITY PREDICTED BY RF-SCORE:    0.00 PKD
ROOT
HETATM    1  C   UNL     1      -9.105   9.135  65.264  1.00  0.00    -0.195 C  
HETATM    2  N   UNL     1      -9.256   9.372  66.698  1.00  0.00    -0.147 NA 
HETATM    3  C   UNL     1     -10.523   8.829  67.217  1.00  0.00    -0.283 C  
HETATM    4  C   UNL     1     -10.588   7.294  67.273  1.00  0.00    -0.395 C  
HETATM    5  C   UNL     1      -9.412   6.700  68.038  1.00  0.00    -0.118 C  
HETATM    6  C   UNL     1      -8.130   8.822  67.471  1.00  0.00    -0.106 C  
HETATM    7  C   UNL     1      -8.089   7.284  67.556  1.00  0.00    -0.114 C  
ENDROOT
BRANCH   5   8
HETATM    8  C   UNL     1      -9.532   5.808  69.058  1.00  0.00    -0.152 A  
HETATM    9  C   UNL     1     -10.092   6.212  70.371  1.00  0.00    -0.237 A  
HETATM   10  C   UNL     1     -11.460   6.507  70.491  1.00  0.00    -0.448 A  
HETATM   11  C   UNL     1     -11.998   6.862  71.727  1.00  0.00    -0.372 A  
HETATM   12  C   UNL     1     -11.178   6.916  72.851  1.00  0.00    -0.254 A  
HETATM   13  C   UNL     1      -9.821   6.601  72.745  1.00  0.00    -0.182 A  
HETATM   14  C   UNL     1      -9.266   6.223  71.514  1.00  0.00    -0.149 A  
HETATM   15  C   UNL     1      -7.829   5.886  71.471  1.00  0.00    -0.112 A  
HETATM   16  C   UNL     1      -7.249   4.933  70.719  1.00  0.00    -0.059 A  
HETATM   17  C   UNL     1      -7.927   4.022  69.774  1.00  0.00    -0.057 A  
HETATM   18  C   UNL     1      -7.461   2.702  69.676  1.00  0.00    -0.044 A  
HETATM   19  C   UNL     1      -8.072   1.792  68.809  1.00  0.00    -0.062 A  
HETATM   20  C   UNL     1      -9.148   2.190  68.021  1.00  0.00    -0.220 A  
HETATM   21  C   UNL     1      -9.610   3.503  68.091  1.00  0.00    -0.164 A  
HETATM   22  C   UNL     1      -8.994   4.429  68.949  1.00  0.00    -0.153 A  
ENDBRANCH   5   8
TORSDOF 1
ENDMDL
MODEL      117
REMARK 921   NORMALIZED FREE ENERGY PREDICTED BY IDOCK:   -3.68 KCAL/MOL
REMARK 922        TOTAL FREE ENERGY PREDICTED BY IDOCK:   -4.74 KCAL/MOL
REMARK 923 INTER-LIGAND FREE ENERGY PREDICTED BY IDOCK:   -3.89 KCAL/MOL
REMARK 924 INTRA-LIGAND FREE ENERGY PREDICTED BY IDOCK:   -0.84 KCAL/MOL
REMARK 927      BINDING AFFINITY PREDICTED BY RF-SCORE:    0.00 PKD
ROOT
HETATM    1  C   UNL     1      -9.856  11.377  65.585  1.00  0.00    -0.235 C  
HETATM    2  N   UNL     1      -9.956  11.296  67.040  1.00  0.00    -0.195 NA 
HETATM    3  C   UNL     1     -10.913  10.262  67.471  1.00  0.00    -0.280 C  
HETATM    4  C   UNL     1     -10.446   8.816  67.235  1.00  0.00    -0.353 C  
HETATM    5  C   UNL     1      -9.077   8.551  67.848  1.00  0.00    -0.145 C  
HETATM    6  C   UNL     1      -8.648  11.051  67.671  1.00  0.00    -0.125 C  
HETATM    7  C   UNL     1      -8.078   9.635  67.460  1.00  0.00    -0.114 C  
ENDROOT
BRANCH   5   8
HETATM    8  C   UNL     1      -8.798   7.512  68.680  1.00  0.00    -0.127 A  
HETATM    9  C   UNL     1      -8.344   6.202  68.150  1.00  0.00    -0.114 A  
HETATM   10  C   UNL     1      -7.063   6.076  67.590  1.00  0.00    -0.074 A  
HETATM   11  C   UNL     1      -6.620   4.844  67.113  1.00  0.00    -0.050 A  
HETATM   12  C   UNL     1      -7.449   3.728  67.200  1.00  0.00    -0.072 A  
HETATM   13  C   UNL     1      -8.717   3.840  67.775  1.00  0.00    -0.122 A  
HETATM   14  C   UNL     1      -9.171   5.067  68.278  1.00  0.00    -0.147 A  
HETATM   15  C   UNL     1     -10.514   5.116  68.891  1.00  0.00    -0.131 A  
HETATM   16  C   UNL     1     -10.886   5.853  69.953  1.00  0.00    -0.439 A  
HETATM   17  C   UNL     1     -10.032   6.772  70.731  1.00  0.00    -0.201 A  
HETATM   18  C   UNL     1     -10.229   6.846  72.119  1.00  0.00    -0.213 A  
HETATM   19  C   UNL     1      -9.440   7.688  72.909  1.00  0.00    -0.262 A  
HETATM   20  C   UNL     1      -8.453   8.475  72.322  1.00  0.00    -0.216 A  
HETATM   21  C   UNL     1      -8.257   8.428  70.943  1.00  0.00    -0.130 A  
HETATM   22  C   UNL     1      -9.054   7.596  70.140  1.00  0.00    -0.150 A  
ENDBRANCH   5   8
TORSDOF 1
ENDMDL
MODEL      118
REMARK 921   NORMALIZED FREE ENERGY PREDICTED BY IDOCK:   -3.67 KCAL/MOL
REMARK 922        TOTAL FREE ENERGY PREDICTED BY IDOCK:   -4.73 KCAL/MOL
REMARK 923 INTER-LIGAND FREE ENERGY PREDICTED BY IDOCK:   -3.95 KCAL/MOL
REMARK 924 INTRA-LIGAND FREE ENERGY PREDICTED BY IDOCK:   -0.78 KCAL/MOL
REMARK 927      BINDING AFFINITY PREDICTED BY RF-SCORE:    0.00 PKD
ROOT
HETATM    1  C   UNL     1     -14.250   8.200  71.483  1.00  0.00    -0.409 C  
HETATM    2  N   UNL     1     -13.017   8.033  72.249  1.00  0.00    -0.209 NA 
HETATM    3  C   UNL     1     -12.207   6.907  71.754  1.00  0.00    -0.356 C  
HETATM    4  C   UNL     1     -11.546   7.145  70.386  1.00  0.00    -0.300 C  
HETATM    5  C   UNL     1     -10.727   8.429  70.363  1.00  0.00    -0.244 C  
HETATM    6  C   UNL     1     -12.203   9.260  72.259  1.00  0.00    -0.235 C  
HETATM    7  C   UNL     1     -11.525   9.603  70.919  1.00  0.00    -0.427 C  
ENDROOT
BRANCH   5   8
HETATM    8  C   UNL     1      -9.433   8.506  69.952  1.00  0.00    -0.163 A  
HETATM    9  C   UNL     1      -9.076   9.101  68.640  1.00  0.00    -0.136 A  
HETATM   10  C   UNL     1      -9.205  10.485  68.438  1.00  0.00    -0.154 A  
HETATM   11  C   UNL     1      -8.848  11.056  67.218  1.00  0.00    -0.135 A  
HETATM   12  C   UNL     1      -8.353  10.251  66.195  1.00  0.00    -0.140 A  
HETATM   13  C   UNL     1      -8.201   8.877  66.395  1.00  0.00    -0.115 A  
HETATM   14  C   UNL     1      -8.536   8.289  67.623  1.00  0.00    -0.130 A  
HETATM   15  C   UNL     1      -8.336   6.834  67.777  1.00  0.00    -0.119 A  
HETATM   16  C   UNL     1      -7.933   6.192  68.889  1.00  0.00    -0.101 A  
HETATM   17  C   UNL     1      -7.609   6.804  70.192  1.00  0.00    -0.099 A  
HETATM   18  C   UNL     1      -6.551   6.260  70.936  1.00  0.00    -0.053 A  
HETATM   19  C   UNL     1      -6.190   6.808  72.171  1.00  0.00    -0.042 A  
HETATM   20  C   UNL     1      -6.887   7.898  72.683  1.00  0.00    -0.083 A  
HETATM   21  C   UNL     1      -7.954   8.438  71.967  1.00  0.00    -0.184 A  
HETATM   22  C   UNL     1      -8.333   7.886  70.732  1.00  0.00    -0.115 A  
ENDBRANCH   5   8
TORSDOF 1
ENDMDL
MODEL      119
REMARK 921   NORMALIZED FREE ENERGY PREDICTED BY IDOCK:   -3.67 KCAL/MOL
REMARK 922        TOTAL FREE ENERGY PREDICTED BY IDOCK:   -4.72 KCAL/MOL
REMARK 923 INTER-LIGAND FREE ENERGY PREDICTED BY IDOCK:   -4.19 KCAL/MOL
REMARK 924 INTRA-LIGAND FREE ENERGY PREDICTED BY IDOCK:   -0.53 KCAL/MOL
REMARK 927      BINDING AFFINITY PREDICTED BY RF-SCORE:    0.00 PKD
ROOT
HETATM    1  C   UNL     1      -8.404   7.274  65.019  1.00  0.00    -0.048 C  
HETATM    2  N   UNL     1      -8.097   6.745  66.346  1.00  0.00    -0.106 NA 
HETATM    3  C   UNL     1      -7.053   7.530  67.026  1.00  0.00    -0.084 C  
HETATM    4  C   UNL     1      -7.496   8.930  67.482  1.00  0.00    -0.085 C  
HETATM    5  C   UNL     1      -8.755   8.880  68.339  1.00  0.00    -0.134 C  
HETATM    6  C   UNL     1      -9.295   6.671  67.201  1.00  0.00    -0.134 C  
HETATM    7  C   UNL     1      -9.837   8.031  67.682  1.00  0.00    -0.214 C  
ENDROOT
BRANCH   5   8
HETATM    8  C   UNL     1      -8.876   9.471  69.558  1.00  0.00    -0.185 A  
HETATM    9  C   UNL     1      -7.723   9.559  70.488  1.00  0.00    -0.177 A  
HETATM   10  C   UNL     1      -6.650  10.417  70.197  1.00  0.00    -0.146 A  
HETATM   11  C   UNL     1      -5.576  10.525  71.078  1.00  0.00    -0.072 A  
HETATM   12  C   UNL     1      -5.569   9.785  72.258  1.00  0.00     0.127 A  
HETATM   13  C   UNL     1      -6.643   8.946  72.565  1.00  0.00     0.063 A  
HETATM   14  C   UNL     1      -7.741   8.840  71.700  1.00  0.00    -0.117 A  
HETATM   15  C   UNL     1      -8.852   7.949  72.089  1.00  0.00    -0.196 A  
HETATM   16  C   UNL     1     -10.164   8.157  71.871  1.00  0.00    -0.289 A  
HETATM   17  C   UNL     1     -10.771   9.318  71.190  1.00  0.00    -0.403 A  
HETATM   18  C   UNL     1     -11.996   9.803  71.672  1.00  0.00    -0.454 A  
HETATM   19  C   UNL     1     -12.611  10.909  71.077  1.00  0.00    -0.517 A  
HETATM   20  C   UNL     1     -12.015  11.537  69.987  1.00  0.00    -0.435 A  
HETATM   21  C   UNL     1     -10.808  11.056  69.484  1.00  0.00    -0.267 A  
HETATM   22  C   UNL     1     -10.190   9.938  70.066  1.00  0.00    -0.319 A  
ENDBRANCH   5   8
TORSDOF 1
ENDMDL
MODEL      120
REMARK 921   NORMALIZED FREE ENERGY PREDICTED BY IDOCK:   -3.66 KCAL/MOL
REMARK 922        TOTAL FREE ENERGY PREDICTED BY IDOCK:   -4.72 KCAL/MOL
REMARK 923 INTER-LIGAND FREE ENERGY PREDICTED BY IDOCK:   -4.03 KCAL/MOL
REMARK 924 INTRA-LIGAND FREE ENERGY PREDICTED BY IDOCK:   -0.69 KCAL/MOL
REMARK 927      BINDING AFFINITY PREDICTED BY RF-SCORE:    0.00 PKD
ROOT
HETATM    1  C   UNL     1     -12.918   7.138  71.462  1.00  0.00    -0.383 C  
HETATM    2  N   UNL     1     -11.469   7.083  71.642  1.00  0.00    -0.255 NA 
HETATM    3  C   UNL     1     -10.811   6.289  70.590  1.00  0.00    -0.280 C  
HETATM    4  C   UNL     1     -10.801   6.947  69.200  1.00  0.00    -0.262 C  
HETATM    5  C   UNL     1     -10.215   8.352  69.238  1.00  0.00    -0.211 C  
HETATM    6  C   UNL     1     -10.867   8.426  71.695  1.00  0.00    -0.268 C  
HETATM    7  C   UNL     1     -10.842   9.182  70.352  1.00  0.00    -0.285 C  
ENDROOT
BRANCH   5   8
HETATM    8  C   UNL     1      -9.222   8.791  68.419  1.00  0.00    -0.137 A  
HETATM    9  C   UNL     1      -7.872   8.175  68.451  1.00  0.00    -0.118 A  
HETATM   10  C   UNL     1      -7.681   6.874  67.957  1.00  0.00    -0.113 A  
HETATM   11  C   UNL     1      -6.412   6.299  67.959  1.00  0.00    -0.052 A  
HETATM   12  C   UNL     1      -5.324   7.020  68.445  1.00  0.00    -0.017 A  
HETATM   13  C   UNL     1      -5.501   8.323  68.917  1.00  0.00    -0.035 A  
HETATM   14  C   UNL     1      -6.768   8.925  68.904  1.00  0.00    -0.053 A  
HETATM   15  C   UNL     1      -6.886  10.310  69.400  1.00  0.00    -0.076 A  
HETATM   16  C   UNL     1      -7.694  11.272  68.916  1.00  0.00    -0.125 A  
HETATM   17  C   UNL     1      -8.637  11.144  67.787  1.00  0.00    -0.131 A  
HETATM   18  C   UNL     1      -8.799  12.244  66.931  1.00  0.00    -0.207 A  
HETATM   19  C   UNL     1      -9.667  12.176  65.837  1.00  0.00    -0.253 A  
HETATM   20  C   UNL     1     -10.393  11.013  65.591  1.00  0.00    -0.311 A  
HETATM   21  C   UNL     1     -10.259   9.919  66.444  1.00  0.00    -0.292 A  
HETATM   22  C   UNL     1      -9.400   9.983  67.553  1.00  0.00    -0.162 A  
ENDBRANCH   5   8
TORSDOF 1
ENDMDL
MODEL      121
REMARK 921   NORMALIZED FREE ENERGY PREDICTED BY IDOCK:   -3.64 KCAL/MOL
REMARK 922        TOTAL FREE ENERGY PREDICTED BY IDOCK:   -4.69 KCAL/MOL
REMARK 923 INTER-LIGAND FREE ENERGY PREDICTED BY IDOCK:   -4.12 KCAL/MOL
REMARK 924 INTRA-LIGAND FREE ENERGY PREDICTED BY IDOCK:   -0.57 KCAL/MOL
REMARK 927      BINDING AFFINITY PREDICTED BY RF-SCORE:    0.00 PKD
ROOT
HETATM    1  C   UNL     1     -10.195   3.722  64.806  1.00  0.00    -0.150 C  
HETATM    2  N   UNL     1      -8.938   4.117  65.438  1.00  0.00    -0.126 NA 
HETATM    3  C   UNL     1      -8.845   5.576  65.619  1.00  0.00    -0.152 C  
HETATM    4  C   UNL     1      -9.783   6.150  66.694  1.00  0.00    -0.196 C  
HETATM    5  C   UNL     1      -9.616   5.445  68.034  1.00  0.00    -0.153 C  
HETATM    6  C   UNL     1      -8.736   3.445  66.733  1.00  0.00    -0.123 C  
HETATM    7  C   UNL     1      -9.657   3.930  67.869  1.00  0.00    -0.193 C  
ENDROOT
BRANCH   5   8
HETATM    8  C   UNL     1      -9.401   6.084  69.215  1.00  0.00    -0.146 A  
HETATM    9  C   UNL     1     -10.064   5.633  70.464  1.00  0.00    -0.280 A  
HETATM   10  C   UNL     1      -9.681   4.424  71.067  1.00  0.00    -0.260 A  
HETATM   11  C   UNL     1     -10.280   4.008  72.254  1.00  0.00    -0.227 A  
HETATM   12  C   UNL     1     -11.259   4.798  72.851  1.00  0.00    -0.286 A  
HETATM   13  C   UNL     1     -11.631   6.012  72.270  1.00  0.00    -0.359 A  
HETATM   14  C   UNL     1     -11.024   6.457  71.087  1.00  0.00    -0.327 A  
HETATM   15  C   UNL     1     -11.448   7.758  70.531  1.00  0.00    -0.219 A  
HETATM   16  C   UNL     1     -10.666   8.662  69.914  1.00  0.00    -0.227 A  
HETATM   17  C   UNL     1      -9.217   8.543  69.656  1.00  0.00    -0.157 A  
HETATM   18  C   UNL     1      -8.430   9.701  69.752  1.00  0.00    -0.200 A  
HETATM   19  C   UNL     1      -7.050   9.647  69.533  1.00  0.00    -0.072 A  
HETATM   20  C   UNL     1      -6.441   8.439  69.204  1.00  0.00    -0.043 A  
HETATM   21  C   UNL     1      -7.212   7.284  69.084  1.00  0.00    -0.085 A  
HETATM   22  C   UNL     1      -8.600   7.331  69.289  1.00  0.00    -0.137 A  
ENDBRANCH   5   8
TORSDOF 1
ENDMDL
MODEL      122
REMARK 921   NORMALIZED FREE ENERGY PREDICTED BY IDOCK:   -3.63 KCAL/MOL
REMARK 922        TOTAL FREE ENERGY PREDICTED BY IDOCK:   -4.69 KCAL/MOL
REMARK 923 INTER-LIGAND FREE ENERGY PREDICTED BY IDOCK:   -3.94 KCAL/MOL
REMARK 924 INTRA-LIGAND FREE ENERGY PREDICTED BY IDOCK:   -0.75 KCAL/MOL
REMARK 927      BINDING AFFINITY PREDICTED BY RF-SCORE:    0.00 PKD
ROOT
HETATM    1  C   UNL     1     -10.875  13.408  65.463  1.00  0.00    -0.289 C  
HETATM    2  N   UNL     1     -11.464  12.090  65.693  1.00  0.00    -0.339 NA 
HETATM    3  C   UNL     1     -10.771  11.035  64.934  1.00  0.00    -0.208 C  
HETATM    4  C   UNL     1      -9.360  10.700  65.444  1.00  0.00    -0.250 C  
HETATM    5  C   UNL     1      -9.353  10.365  66.930  1.00  0.00    -0.186 C  
HETATM    6  C   UNL     1     -11.486  11.737  67.123  1.00  0.00    -0.295 C  
HETATM    7  C   UNL     1     -10.109  11.416  67.736  1.00  0.00    -0.198 C  
ENDROOT
BRANCH   5   8
HETATM    8  C   UNL     1      -8.794   9.246  67.462  1.00  0.00    -0.123 A  
HETATM    9  C   UNL     1      -7.575   9.321  68.305  1.00  0.00    -0.083 A  
HETATM   10  C   UNL     1      -7.643   9.878  69.592  1.00  0.00    -0.136 A  
HETATM   11  C   UNL     1      -6.508   9.928  70.399  1.00  0.00    -0.115 A  
HETATM   12  C   UNL     1      -5.301   9.416  69.931  1.00  0.00    -0.032 A  
HETATM   13  C   UNL     1      -5.229   8.840  68.660  1.00  0.00    -0.034 A  
HETATM   14  C   UNL     1      -6.366   8.763  67.842  1.00  0.00    -0.056 A  
HETATM   15  C   UNL     1      -6.229   8.127  66.517  1.00  0.00    -0.050 A  
HETATM   16  C   UNL     1      -7.143   7.361  65.894  1.00  0.00    -0.065 A  
HETATM   17  C   UNL     1      -8.481   6.997  66.403  1.00  0.00    -0.130 A  
HETATM   18  C   UNL     1      -8.967   5.709  66.127  1.00  0.00    -0.153 A  
HETATM   19  C   UNL     1     -10.221   5.304  66.595  1.00  0.00    -0.291 A  
HETATM   20  C   UNL     1     -11.008   6.182  67.335  1.00  0.00    -0.409 A  
HETATM   21  C   UNL     1     -10.549   7.470  67.601  1.00  0.00    -0.303 A  
HETATM   22  C   UNL     1      -9.297   7.891  67.123  1.00  0.00    -0.190 A  
ENDBRANCH   5   8
TORSDOF 1
ENDMDL
MODEL      123
REMARK 921   NORMALIZED FREE ENERGY PREDICTED BY IDOCK:   -3.63 KCAL/MOL
REMARK 922        TOTAL FREE ENERGY PREDICTED BY IDOCK:   -4.68 KCAL/MOL
REMARK 923 INTER-LIGAND FREE ENERGY PREDICTED BY IDOCK:   -4.01 KCAL/MOL
REMARK 924 INTRA-LIGAND FREE ENERGY PREDICTED BY IDOCK:   -0.67 KCAL/MOL
REMARK 927      BINDING AFFINITY PREDICTED BY RF-SCORE:    0.00 PKD
ROOT
HETATM    1  C   UNL     1      -9.729  18.607  66.664  1.00  0.00    -0.341 C  
HETATM    2  N   UNL     1      -8.564  17.869  67.148  1.00  0.00    -0.230 NA 
HETATM    3  C   UNL     1      -8.797  17.281  68.478  1.00  0.00    -0.269 C  
HETATM    4  C   UNL     1      -9.785  16.103  68.496  1.00  0.00    -0.217 C  
HETATM    5  C   UNL     1      -9.394  15.014  67.504  1.00  0.00    -0.195 C  
HETATM    6  C   UNL     1      -8.149  16.814  66.208  1.00  0.00    -0.330 C  
HETATM    7  C   UNL     1      -9.098  15.602  66.129  1.00  0.00    -0.378 C  
ENDROOT
BRANCH   5   8
HETATM    8  C   UNL     1      -9.272  13.697  67.819  1.00  0.00    -0.214 A  
HETATM    9  C   UNL     1      -8.025  12.948  67.522  1.00  0.00    -0.178 A  
HETATM   10  C   UNL     1      -6.854  13.215  68.250  1.00  0.00    -0.103 A  
HETATM   11  C   UNL     1      -5.687  12.498  67.995  1.00  0.00    -0.082 A  
HETATM   12  C   UNL     1      -5.683  11.505  67.018  1.00  0.00    -0.119 A  
HETATM   13  C   UNL     1      -6.849  11.218  66.304  1.00  0.00    -0.001 A  
HETATM   14  C   UNL     1      -8.037  11.916  66.562  1.00  0.00     0.006 A  
HETATM   15  C   UNL     1      -9.240  11.554  65.786  1.00  0.00    -0.210 A  
HETATM   16  C   UNL     1     -10.509  11.532  66.234  1.00  0.00    -0.294 A  
HETATM   17  C   UNL     1     -10.969  11.868  67.596  1.00  0.00    -0.286 A  
HETATM   18  C   UNL     1     -12.026  11.124  68.141  1.00  0.00    -0.131 A  
HETATM   19  C   UNL     1     -12.494  11.388  69.432  1.00  0.00    -0.042 A  
HETATM   20  C   UNL     1     -11.920  12.404  70.190  1.00  0.00    -0.376 A  
HETATM   21  C   UNL     1     -10.883  13.166  69.656  1.00  0.00     0.241 A  
HETATM   22  C   UNL     1     -10.415  12.918  68.355  1.00  0.00    -0.260 A  
ENDBRANCH   5   8
TORSDOF 1
ENDMDL
MODEL      124
REMARK 921   NORMALIZED FREE ENERGY PREDICTED BY IDOCK:   -3.61 KCAL/MOL
REMARK 922        TOTAL FREE ENERGY PREDICTED BY IDOCK:   -4.66 KCAL/MOL
REMARK 923 INTER-LIGAND FREE ENERGY PREDICTED BY IDOCK:   -3.82 KCAL/MOL
REMARK 924 INTRA-LIGAND FREE ENERGY PREDICTED BY IDOCK:   -0.84 KCAL/MOL
REMARK 927      BINDING AFFINITY PREDICTED BY RF-SCORE:    0.00 PKD
ROOT
HETATM    1  C   UNL     1      -9.707   9.966  66.261  1.00  0.00    -0.222 C  
HETATM    2  N   UNL     1      -9.526   8.516  66.244  1.00  0.00    -0.224 NA 
HETATM    3  C   UNL     1      -8.173   8.122  66.671  1.00  0.00    -0.103 C  
HETATM    4  C   UNL     1      -7.886   8.328  68.168  1.00  0.00    -0.118 C  
HETATM    5  C   UNL     1      -8.930   7.651  69.048  1.00  0.00    -0.137 C  
HETATM    6  C   UNL     1     -10.527   7.825  67.076  1.00  0.00    -0.349 C  
HETATM    7  C   UNL     1     -10.343   8.001  68.596  1.00  0.00    -0.224 C  
ENDROOT
BRANCH   5   8
HETATM    8  C   UNL     1      -8.638   6.801  70.068  1.00  0.00    -0.141 A  
HETATM    9  C   UNL     1      -8.610   5.331  69.860  1.00  0.00    -0.106 A  
HETATM   10  C   UNL     1      -7.583   4.747  69.101  1.00  0.00    -0.056 A  
HETATM   11  C   UNL     1      -7.536   3.366  68.924  1.00  0.00    -0.049 A  
HETATM   12  C   UNL     1      -8.508   2.558  69.509  1.00  0.00    -0.097 A  
HETATM   13  C   UNL     1      -9.521   3.128  70.283  1.00  0.00    -0.224 A  
HETATM   14  C   UNL     1      -9.572   4.515  70.489  1.00  0.00    -0.274 A  
HETATM   15  C   UNL     1     -10.657   5.055  71.332  1.00  0.00    -0.161 A  
HETATM   16  C   UNL     1     -10.572   6.091  72.186  1.00  0.00    -0.256 A  
HETATM   17  C   UNL     1      -9.375   6.911  72.460  1.00  0.00    -0.154 A  
HETATM   18  C   UNL     1      -9.163   7.358  73.773  1.00  0.00    -0.305 A  
HETATM   19  C   UNL     1      -8.040   8.126  74.094  1.00  0.00    -0.312 A  
HETATM   20  C   UNL     1      -7.120   8.467  73.106  1.00  0.00    -0.110 A  
HETATM   21  C   UNL     1      -7.327   8.049  71.792  1.00  0.00    -0.084 A  
HETATM   22  C   UNL     1      -8.459   7.289  71.458  1.00  0.00    -0.113 A  
ENDBRANCH   5   8
TORSDOF 1
ENDMDL
MODEL      125
REMARK 921   NORMALIZED FREE ENERGY PREDICTED BY IDOCK:   -3.61 KCAL/MOL
REMARK 922        TOTAL FREE ENERGY PREDICTED BY IDOCK:   -4.66 KCAL/MOL
REMARK 923 INTER-LIGAND FREE ENERGY PREDICTED BY IDOCK:   -3.91 KCAL/MOL
REMARK 924 INTRA-LIGAND FREE ENERGY PREDICTED BY IDOCK:   -0.75 KCAL/MOL
REMARK 927      BINDING AFFINITY PREDICTED BY RF-SCORE:    0.00 PKD
ROOT
HETATM    1  C   UNL     1     -12.809  11.588  71.915  1.00  0.00    -0.266 C  
HETATM    2  N   UNL     1     -12.904  10.556  70.884  1.00  0.00    -0.385 NA 
HETATM    3  C   UNL     1     -12.559  11.076  69.550  1.00  0.00     0.066 C  
HETATM    4  C   UNL     1     -11.069  11.400  69.352  1.00  0.00    -0.301 C  
HETATM    5  C   UNL     1     -10.175  10.216  69.700  1.00  0.00    -0.272 C  
HETATM    6  C   UNL     1     -12.061   9.388  71.192  1.00  0.00    -0.328 C  
HETATM    7  C   UNL     1     -10.544   9.626  71.056  1.00  0.00    -0.362 C  
ENDROOT
BRANCH   5   8
HETATM    8  C   UNL     1      -9.211   9.717  68.881  1.00  0.00    -0.147 A  
HETATM    9  C   UNL     1      -7.994  10.502  68.558  1.00  0.00    -0.118 A  
HETATM   10  C   UNL     1      -7.018  10.724  69.544  1.00  0.00    -0.130 A  
HETATM   11  C   UNL     1      -5.861  11.438  69.242  1.00  0.00    -0.051 A  
HETATM   12  C   UNL     1      -5.665  11.927  67.953  1.00  0.00    -0.054 A  
HETATM   13  C   UNL     1      -6.619  11.692  66.960  1.00  0.00    -0.144 A  
HETATM   14  C   UNL     1      -7.781  10.959  67.242  1.00  0.00    -0.112 A  
HETATM   15  C   UNL     1      -8.743  10.730  66.146  1.00  0.00    -0.186 A  
HETATM   16  C   UNL     1      -9.478   9.621  65.939  1.00  0.00    -0.296 A  
HETATM   17  C   UNL     1      -9.480   8.399  66.768  1.00  0.00    -0.255 A  
HETATM   18  C   UNL     1      -9.610   7.160  66.121  1.00  0.00    -0.013 A  
HETATM   19  C   UNL     1      -9.604   5.969  66.852  1.00  0.00    -0.158 A  
HETATM   20  C   UNL     1      -9.479   5.999  68.238  1.00  0.00    -0.117 A  
HETATM   21  C   UNL     1      -9.369   7.222  68.898  1.00  0.00    -0.144 A  
HETATM   22  C   UNL     1      -9.388   8.425  68.173  1.00  0.00    -0.141 A  
ENDBRANCH   5   8
TORSDOF 1
ENDMDL
MODEL      126
REMARK 921   NORMALIZED FREE ENERGY PREDICTED BY IDOCK:   -3.60 KCAL/MOL
REMARK 922        TOTAL FREE ENERGY PREDICTED BY IDOCK:   -4.65 KCAL/MOL
REMARK 923 INTER-LIGAND FREE ENERGY PREDICTED BY IDOCK:   -3.88 KCAL/MOL
REMARK 924 INTRA-LIGAND FREE ENERGY PREDICTED BY IDOCK:   -0.77 KCAL/MOL
REMARK 927      BINDING AFFINITY PREDICTED BY RF-SCORE:    0.00 PKD
ROOT
HETATM    1  C   UNL     1      -8.514   8.220  63.491  1.00  0.00     0.065 C  
HETATM    2  N   UNL     1      -8.450   9.650  63.786  1.00  0.00    -0.172 NA 
HETATM    3  C   UNL     1      -9.702  10.147  64.381  1.00  0.00    -0.277 C  
HETATM    4  C   UNL     1      -9.962   9.672  65.820  1.00  0.00    -0.342 C  
HETATM    5  C   UNL     1      -8.788   9.973  66.743  1.00  0.00    -0.144 C  
HETATM    6  C   UNL     1      -7.318   9.981  64.667  1.00  0.00    -0.143 C  
HETATM    7  C   UNL     1      -7.471   9.513  66.128  1.00  0.00    -0.100 C  
ENDROOT
BRANCH   5   8
HETATM    8  C   UNL     1      -8.895  10.619  67.935  1.00  0.00    -0.131 A  
HETATM    9  C   UNL     1      -8.345  11.984  68.121  1.00  0.00    -0.165 A  
HETATM   10  C   UNL     1      -8.955  13.081  67.491  1.00  0.00    -0.193 A  
HETATM   11  C   UNL     1      -8.460  14.369  67.683  1.00  0.00    -0.191 A  
HETATM   12  C   UNL     1      -7.359  14.573  68.510  1.00  0.00    -0.120 A  
HETATM   13  C   UNL     1      -6.759  13.491  69.158  1.00  0.00    -0.103 A  
HETATM   14  C   UNL     1      -7.256  12.190  68.993  1.00  0.00    -0.037 A  
HETATM   15  C   UNL     1      -6.589  11.091  69.719  1.00  0.00    -0.143 A  
HETATM   16  C   UNL     1      -7.180  10.012  70.264  1.00  0.00    -0.155 A  
HETATM   17  C   UNL     1      -8.622   9.695  70.247  1.00  0.00    -0.234 A  
HETATM   18  C   UNL     1      -9.181   9.089  71.383  1.00  0.00    -0.293 A  
HETATM   19  C   UNL     1     -10.543   8.779  71.430  1.00  0.00    -0.349 A  
HETATM   20  C   UNL     1     -11.362   9.059  70.341  1.00  0.00    -0.242 A  
HETATM   21  C   UNL     1     -10.820   9.642  69.197  1.00  0.00    -0.212 A  
HETATM   22  C   UNL     1      -9.450   9.945  69.135  1.00  0.00    -0.201 A  
ENDBRANCH   5   8
TORSDOF 1
ENDMDL
MODEL      127
REMARK 921   NORMALIZED FREE ENERGY PREDICTED BY IDOCK:   -3.59 KCAL/MOL
REMARK 922        TOTAL FREE ENERGY PREDICTED BY IDOCK:   -4.65 KCAL/MOL
REMARK 923 INTER-LIGAND FREE ENERGY PREDICTED BY IDOCK:   -3.95 KCAL/MOL
REMARK 924 INTRA-LIGAND FREE ENERGY PREDICTED BY IDOCK:   -0.70 KCAL/MOL
REMARK 927      BINDING AFFINITY PREDICTED BY RF-SCORE:    0.00 PKD
ROOT
HETATM    1  C   UNL     1     -10.925   1.469  63.131  1.00  0.00    -0.204 C  
HETATM    2  N   UNL     1      -9.883   2.486  63.000  1.00  0.00    -0.094 NA 
HETATM    3  C   UNL     1     -10.418   3.849  63.158  1.00  0.00    -0.178 C  
HETATM    4  C   UNL     1     -10.850   4.207  64.589  1.00  0.00    -0.130 C  
HETATM    5  C   UNL     1      -9.737   3.962  65.600  1.00  0.00    -0.170 C  
HETATM    6  C   UNL     1      -8.782   2.274  63.955  1.00  0.00    -0.091 C  
HETATM    7  C   UNL     1      -9.129   2.575  65.426  1.00  0.00    -0.123 C  
ENDROOT
BRANCH   5   8
HETATM    8  C   UNL     1      -9.305   4.883  66.503  1.00  0.00    -0.142 A  
HETATM    9  C   UNL     1      -9.395   4.630  67.963  1.00  0.00    -0.173 A  
HETATM   10  C   UNL     1      -8.561   3.673  68.564  1.00  0.00    -0.118 A  
HETATM   11  C   UNL     1      -8.622   3.448  69.937  1.00  0.00    -0.109 A  
HETATM   12  C   UNL     1      -9.508   4.182  70.721  1.00  0.00    -0.242 A  
HETATM   13  C   UNL     1     -10.326   5.151  70.136  1.00  0.00    -0.340 A  
HETATM   14  C   UNL     1     -10.264   5.404  68.758  1.00  0.00    -0.252 A  
HETATM   15  C   UNL     1     -11.141   6.453  68.201  1.00  0.00    -0.358 A  
HETATM   16  C   UNL     1     -10.843   7.307  67.205  1.00  0.00    -0.378 A  
HETATM   17  C   UNL     1      -9.574   7.373  66.453  1.00  0.00    -0.181 A  
HETATM   18  C   UNL     1      -9.095   8.635  66.069  1.00  0.00    -0.255 A  
HETATM   19  C   UNL     1      -7.893   8.760  65.367  1.00  0.00    -0.100 A  
HETATM   20  C   UNL     1      -7.158   7.627  65.031  1.00  0.00    -0.063 A  
HETATM   21  C   UNL     1      -7.629   6.365  65.386  1.00  0.00    -0.089 A  
HETATM   22  C   UNL     1      -8.843   6.228  66.079  1.00  0.00    -0.159 A  
ENDBRANCH   5   8
TORSDOF 1
ENDMDL
MODEL      128
REMARK 921   NORMALIZED FREE ENERGY PREDICTED BY IDOCK:   -3.57 KCAL/MOL
REMARK 922        TOTAL FREE ENERGY PREDICTED BY IDOCK:   -4.63 KCAL/MOL
REMARK 923 INTER-LIGAND FREE ENERGY PREDICTED BY IDOCK:   -4.18 KCAL/MOL
REMARK 924 INTRA-LIGAND FREE ENERGY PREDICTED BY IDOCK:   -0.44 KCAL/MOL
REMARK 927      BINDING AFFINITY PREDICTED BY RF-SCORE:    0.00 PKD
ROOT
HETATM    1  C   UNL     1      -6.233   6.039  63.552  1.00  0.00    -0.025 C  
HETATM    2  N   UNL     1      -7.667   6.285  63.414  1.00  0.00    -0.094 NA 
HETATM    3  C   UNL     1      -8.437   5.699  64.523  1.00  0.00    -0.070 C  
HETATM    4  C   UNL     1      -8.256   6.408  65.876  1.00  0.00    -0.130 C  
HETATM    5  C   UNL     1      -8.532   7.903  65.779  1.00  0.00    -0.152 C  
HETATM    6  C   UNL     1      -7.972   7.722  63.305  1.00  0.00    -0.111 C  
HETATM    7  C   UNL     1      -7.786   8.528  64.606  1.00  0.00    -0.131 C  
ENDROOT
BRANCH   5   8
HETATM    8  C   UNL     1      -9.379   8.581  66.599  1.00  0.00    -0.243 A  
HETATM    9  C   UNL     1      -9.709  10.007  66.355  1.00  0.00    -0.266 A  
HETATM   10  C   UNL     1     -10.510  10.366  65.259  1.00  0.00    -0.178 A  
HETATM   11  C   UNL     1     -10.846  11.700  65.038  1.00  0.00    -0.346 A  
HETATM   12  C   UNL     1     -10.392  12.683  65.913  1.00  0.00    -0.295 A  
HETATM   13  C   UNL     1      -9.613  12.333  67.018  1.00  0.00    -0.208 A  
HETATM   14  C   UNL     1      -9.282  10.993  67.267  1.00  0.00    -0.156 A  
HETATM   15  C   UNL     1      -8.471  10.686  68.462  1.00  0.00    -0.136 A  
HETATM   16  C   UNL     1      -8.586   9.605  69.255  1.00  0.00    -0.153 A  
HETATM   17  C   UNL     1      -9.545   8.494  69.098  1.00  0.00    -0.167 A  
HETATM   18  C   UNL     1     -10.091   7.919  70.256  1.00  0.00    -0.196 A  
HETATM   19  C   UNL     1     -11.015   6.874  70.168  1.00  0.00    -0.322 A  
HETATM   20  C   UNL     1     -11.398   6.382  68.923  1.00  0.00    -0.292 A  
HETATM   21  C   UNL     1     -10.851   6.928  67.764  1.00  0.00    -0.312 A  
HETATM   22  C   UNL     1      -9.911   7.969  67.843  1.00  0.00    -0.204 A  
ENDBRANCH   5   8
TORSDOF 1
ENDMDL
MODEL      129
REMARK 921   NORMALIZED FREE ENERGY PREDICTED BY IDOCK:   -3.56 KCAL/MOL
REMARK 922        TOTAL FREE ENERGY PREDICTED BY IDOCK:   -4.61 KCAL/MOL
REMARK 923 INTER-LIGAND FREE ENERGY PREDICTED BY IDOCK:   -3.94 KCAL/MOL
REMARK 924 INTRA-LIGAND FREE ENERGY PREDICTED BY IDOCK:   -0.67 KCAL/MOL
REMARK 927      BINDING AFFINITY PREDICTED BY RF-SCORE:    0.00 PKD
ROOT
HETATM    1  C   UNL     1      -5.718  10.705  69.693  1.00  0.00    -0.042 C  
HETATM    2  N   UNL     1      -6.799  10.257  70.568  1.00  0.00    -0.310 NA 
HETATM    3  C   UNL     1      -8.052  10.031  69.828  1.00  0.00    -0.177 C  
HETATM    4  C   UNL     1      -8.038   8.802  68.904  1.00  0.00    -0.114 C  
HETATM    5  C   UNL     1      -7.633   7.534  69.645  1.00  0.00    -0.094 C  
HETATM    6  C   UNL     1      -6.438   9.037  71.312  1.00  0.00    -0.085 C  
HETATM    7  C   UNL     1      -6.365   7.754  70.462  1.00  0.00    -0.037 C  
ENDROOT
BRANCH   5   8
HETATM    8  C   UNL     1      -8.341   6.373  69.624  1.00  0.00    -0.126 A  
HETATM    9  C   UNL     1      -8.694   5.711  68.344  1.00  0.00    -0.109 A  
HETATM   10  C   UNL     1      -7.695   5.095  67.572  1.00  0.00    -0.092 A  
HETATM   11  C   UNL     1      -8.022   4.448  66.382  1.00  0.00    -0.099 A  
HETATM   12  C   UNL     1      -9.349   4.404  65.959  1.00  0.00    -0.160 A  
HETATM   13  C   UNL     1     -10.351   4.995  66.731  1.00  0.00    -0.290 A  
HETATM   14  C   UNL     1     -10.043   5.632  67.941  1.00  0.00    -0.207 A  
HETATM   15  C   UNL     1     -11.150   6.222  68.721  1.00  0.00    -0.424 A  
HETATM   16  C   UNL     1     -11.262   6.253  70.061  1.00  0.00    -0.480 A  
HETATM   17  C   UNL     1     -10.299   5.708  71.039  1.00  0.00    -0.297 A  
HETATM   18  C   UNL     1     -10.803   5.114  72.206  1.00  0.00    -0.241 A  
HETATM   19  C   UNL     1      -9.940   4.568  73.160  1.00  0.00    -0.184 A  
HETATM   20  C   UNL     1      -8.562   4.617  72.967  1.00  0.00    -0.113 A  
HETATM   21  C   UNL     1      -8.044   5.221  71.823  1.00  0.00    -0.117 A  
HETATM   22  C   UNL     1      -8.903   5.785  70.865  1.00  0.00    -0.145 A  
ENDBRANCH   5   8
TORSDOF 1
ENDMDL
MODEL      130
REMARK 921   NORMALIZED FREE ENERGY PREDICTED BY IDOCK:   -3.56 KCAL/MOL
REMARK 922        TOTAL FREE ENERGY PREDICTED BY IDOCK:   -4.61 KCAL/MOL
REMARK 923 INTER-LIGAND FREE ENERGY PREDICTED BY IDOCK:   -3.78 KCAL/MOL
REMARK 924 INTRA-LIGAND FREE ENERGY PREDICTED BY IDOCK:   -0.83 KCAL/MOL
REMARK 927      BINDING AFFINITY PREDICTED BY RF-SCORE:    0.00 PKD
ROOT
HETATM    1  C   UNL     1     -12.419   8.835  72.452  1.00  0.00    -0.352 C  
HETATM    2  N   UNL     1     -12.318   8.049  71.225  1.00  0.00    -0.297 NA 
HETATM    3  C   UNL     1     -11.098   8.367  70.463  1.00  0.00    -0.252 C  
HETATM    4  C   UNL     1      -9.792   7.876  71.107  1.00  0.00    -0.190 C  
HETATM    5  C   UNL     1      -9.836   6.386  71.424  1.00  0.00    -0.195 C  
HETATM    6  C   UNL     1     -12.369   6.601  71.491  1.00  0.00    -0.313 C  
HETATM    7  C   UNL     1     -11.114   6.018  72.169  1.00  0.00    -0.328 C  
ENDROOT
BRANCH   5   8
HETATM    8  C   UNL     1      -8.886   5.492  71.042  1.00  0.00    -0.148 A  
HETATM    9  C   UNL     1      -9.083   4.619  69.858  1.00  0.00    -0.161 A  
HETATM   10  C   UNL     1      -9.060   5.170  68.567  1.00  0.00    -0.133 A  
HETATM   11  C   UNL     1      -9.218   4.353  67.449  1.00  0.00    -0.162 A  
HETATM   12  C   UNL     1      -9.391   2.981  67.612  1.00  0.00    -0.242 A  
HETATM   13  C   UNL     1      -9.393   2.421  68.892  1.00  0.00    -0.217 A  
HETATM   14  C   UNL     1      -9.215   3.226  70.027  1.00  0.00    -0.221 A  
HETATM   15  C   UNL     1      -9.210   2.572  71.351  1.00  0.00    -0.185 A  
HETATM   16  C   UNL     1      -8.452   2.908  72.411  1.00  0.00    -0.078 A  
HETATM   17  C   UNL     1      -7.466   4.006  72.476  1.00  0.00    -0.068 A  
HETATM   18  C   UNL     1      -6.290   3.798  73.212  1.00  0.00    -0.024 A  
HETATM   19  C   UNL     1      -5.315   4.796  73.298  1.00  0.00    -0.009 A  
HETATM   20  C   UNL     1      -5.506   6.018  72.658  1.00  0.00    -0.031 A  
HETATM   21  C   UNL     1      -6.677   6.248  71.939  1.00  0.00    -0.064 A  
HETATM   22  C   UNL     1      -7.669   5.257  71.859  1.00  0.00    -0.110 A  
ENDBRANCH   5   8
TORSDOF 1
ENDMDL
MODEL      131
REMARK 921   NORMALIZED FREE ENERGY PREDICTED BY IDOCK:   -3.55 KCAL/MOL
REMARK 922        TOTAL FREE ENERGY PREDICTED BY IDOCK:   -4.60 KCAL/MOL
REMARK 923 INTER-LIGAND FREE ENERGY PREDICTED BY IDOCK:   -3.84 KCAL/MOL
REMARK 924 INTRA-LIGAND FREE ENERGY PREDICTED BY IDOCK:   -0.76 KCAL/MOL
REMARK 927      BINDING AFFINITY PREDICTED BY RF-SCORE:    0.00 PKD
ROOT
HETATM    1  C   UNL     1     -10.005   4.297  65.139  1.00  0.00    -0.204 C  
HETATM    2  N   UNL     1      -8.785   4.475  65.923  1.00  0.00    -0.118 NA 
HETATM    3  C   UNL     1      -8.327   5.874  65.924  1.00  0.00    -0.136 C  
HETATM    4  C   UNL     1      -9.211   6.838  66.733  1.00  0.00    -0.172 C  
HETATM    5  C   UNL     1      -9.422   6.356  68.163  1.00  0.00    -0.114 C  
HETATM    6  C   UNL     1      -8.948   4.007  67.311  1.00  0.00    -0.133 C  
HETATM    7  C   UNL     1      -9.848   4.893  68.194  1.00  0.00    -0.198 C  
ENDROOT
BRANCH   5   8
HETATM    8  C   UNL     1      -9.205   7.117  69.269  1.00  0.00    -0.140 A  
HETATM    9  C   UNL     1      -8.107   6.800  70.216  1.00  0.00    -0.120 A  
HETATM   10  C   UNL     1      -6.770   7.001  69.835  1.00  0.00    -0.049 A  
HETATM   11  C   UNL     1      -5.735   6.731  70.728  1.00  0.00    -0.027 A  
HETATM   12  C   UNL     1      -6.027   6.267  72.008  1.00  0.00    -0.037 A  
HETATM   13  C   UNL     1      -7.355   6.085  72.403  1.00  0.00    -0.090 A  
HETATM   14  C   UNL     1      -8.409   6.371  71.524  1.00  0.00    -0.125 A  
HETATM   15  C   UNL     1      -9.791   6.175  72.007  1.00  0.00    -0.174 A  
HETATM   16  C   UNL     1     -10.862   6.934  71.709  1.00  0.00    -0.253 A  
HETATM   17  C   UNL     1     -10.883   8.123  70.833  1.00  0.00    -0.254 A  
HETATM   18  C   UNL     1     -11.721   9.192  71.187  1.00  0.00    -0.380 A  
HETATM   19  C   UNL     1     -11.772  10.349  70.404  1.00  0.00    -0.419 A  
HETATM   20  C   UNL     1     -10.996  10.448  69.252  1.00  0.00    -0.287 A  
HETATM   21  C   UNL     1     -10.175   9.387  68.875  1.00  0.00    -0.215 A  
HETATM   22  C   UNL     1     -10.127   8.216  69.648  1.00  0.00    -0.199 A  
ENDBRANCH   5   8
TORSDOF 1
ENDMDL
MODEL      132
REMARK 921   NORMALIZED FREE ENERGY PREDICTED BY IDOCK:   -3.55 KCAL/MOL
REMARK 922        TOTAL FREE ENERGY PREDICTED BY IDOCK:   -4.60 KCAL/MOL
REMARK 923 INTER-LIGAND FREE ENERGY PREDICTED BY IDOCK:   -4.16 KCAL/MOL
REMARK 924 INTRA-LIGAND FREE ENERGY PREDICTED BY IDOCK:   -0.44 KCAL/MOL
REMARK 927      BINDING AFFINITY PREDICTED BY RF-SCORE:    0.00 PKD
ROOT
HETATM    1  C   UNL     1      -6.350   2.990  69.916  1.00  0.00    -0.028 C  
HETATM    2  N   UNL     1      -7.698   3.065  69.357  1.00  0.00    -0.047 NA 
HETATM    3  C   UNL     1      -8.682   3.537  70.346  1.00  0.00    -0.074 C  
HETATM    4  C   UNL     1      -8.552   5.022  70.722  1.00  0.00    -0.132 C  
HETATM    5  C   UNL     1      -8.570   5.926  69.496  1.00  0.00    -0.117 C  
HETATM    6  C   UNL     1      -7.752   3.922  68.160  1.00  0.00    -0.066 C  
HETATM    7  C   UNL     1      -7.597   5.431  68.432  1.00  0.00    -0.080 C  
ENDROOT
BRANCH   5   8
HETATM    8  C   UNL     1      -9.389   7.001  69.347  1.00  0.00    -0.146 A  
HETATM    9  C   UNL     1      -9.217   7.948  68.217  1.00  0.00    -0.137 A  
HETATM   10  C   UNL     1      -9.534   7.547  66.909  1.00  0.00    -0.219 A  
HETATM   11  C   UNL     1      -9.400   8.438  65.847  1.00  0.00    -0.205 A  
HETATM   12  C   UNL     1      -8.957   9.738  66.083  1.00  0.00    -0.181 A  
HETATM   13  C   UNL     1      -8.661  10.152  67.384  1.00  0.00    -0.125 A  
HETATM   14  C   UNL     1      -8.810   9.274  68.468  1.00  0.00    -0.129 A  
HETATM   15  C   UNL     1      -8.497   9.777  69.820  1.00  0.00    -0.206 A  
HETATM   16  C   UNL     1      -9.136   9.463  70.962  1.00  0.00    -0.147 A  
HETATM   17  C   UNL     1     -10.283   8.544  71.106  1.00  0.00    -0.272 A  
HETATM   18  C   UNL     1     -11.277   8.868  72.042  1.00  0.00    -0.422 A  
HETATM   19  C   UNL     1     -12.393   8.043  72.212  1.00  0.00    -0.336 A  
HETATM   20  C   UNL     1     -12.526   6.881  71.458  1.00  0.00    -0.420 A  
HETATM   21  C   UNL     1     -11.537   6.535  70.538  1.00  0.00    -0.455 A  
HETATM   22  C   UNL     1     -10.406   7.349  70.370  1.00  0.00    -0.215 A  
ENDBRANCH   5   8
TORSDOF 1
ENDMDL
MODEL      133
REMARK 921   NORMALIZED FREE ENERGY PREDICTED BY IDOCK:   -3.54 KCAL/MOL
REMARK 922        TOTAL FREE ENERGY PREDICTED BY IDOCK:   -4.59 KCAL/MOL
REMARK 923 INTER-LIGAND FREE ENERGY PREDICTED BY IDOCK:   -3.82 KCAL/MOL
REMARK 924 INTRA-LIGAND FREE ENERGY PREDICTED BY IDOCK:   -0.77 KCAL/MOL
REMARK 927      BINDING AFFINITY PREDICTED BY RF-SCORE:    0.00 PKD
ROOT
HETATM    1  C   UNL     1     -11.760  13.562  67.467  1.00  0.00    -0.367 C  
HETATM    2  N   UNL     1     -10.892  13.232  66.339  1.00  0.00    -0.286 NA 
HETATM    3  C   UNL     1      -9.505  12.981  66.765  1.00  0.00    -0.250 C  
HETATM    4  C   UNL     1      -9.300  11.673  67.546  1.00  0.00    -0.168 C  
HETATM    5  C   UNL     1      -9.842  10.466  66.792  1.00  0.00    -0.242 C  
HETATM    6  C   UNL     1     -11.392  12.075  65.577  1.00  0.00    -0.328 C  
HETATM    7  C   UNL     1     -11.261  10.717  66.295  1.00  0.00     0.167 C  
ENDROOT
BRANCH   5   8
HETATM    8  C   UNL     1      -9.132   9.332  66.546  1.00  0.00    -0.191 A  
HETATM    9  C   UNL     1      -9.425   8.069  67.269  1.00  0.00    -0.196 A  
HETATM   10  C   UNL     1     -10.610   7.365  67.001  1.00  0.00    -0.414 A  
HETATM   11  C   UNL     1     -10.879   6.165  67.656  1.00  0.00    -0.421 A  
HETATM   12  C   UNL     1      -9.965   5.656  68.575  1.00  0.00    -0.205 A  
HETATM   13  C   UNL     1      -8.774   6.339  68.831  1.00  0.00    -0.125 A  
HETATM   14  C   UNL     1      -8.477   7.537  68.166  1.00  0.00    -0.124 A  
HETATM   15  C   UNL     1      -7.194   8.202  68.468  1.00  0.00    -0.088 A  
HETATM   16  C   UNL     1      -6.410   8.868  67.600  1.00  0.00    -0.056 A  
HETATM   17  C   UNL     1      -6.669   9.080  66.162  1.00  0.00    -0.070 A  
HETATM   18  C   UNL     1      -5.577   9.053  65.281  1.00  0.00    -0.046 A  
HETATM   19  C   UNL     1      -5.763   9.233  63.907  1.00  0.00    -0.071 A  
HETATM   20  C   UNL     1      -7.040   9.452  63.397  1.00  0.00    -0.096 A  
HETATM   21  C   UNL     1      -8.133   9.501  64.260  1.00  0.00    -0.142 A  
HETATM   22  C   UNL     1      -7.954   9.336  65.644  1.00  0.00    -0.103 A  
ENDBRANCH   5   8
TORSDOF 1
ENDMDL
MODEL      134
REMARK 921   NORMALIZED FREE ENERGY PREDICTED BY IDOCK:   -3.53 KCAL/MOL
REMARK 922        TOTAL FREE ENERGY PREDICTED BY IDOCK:   -4.58 KCAL/MOL
REMARK 923 INTER-LIGAND FREE ENERGY PREDICTED BY IDOCK:   -3.73 KCAL/MOL
REMARK 924 INTRA-LIGAND FREE ENERGY PREDICTED BY IDOCK:   -0.84 KCAL/MOL
REMARK 927      BINDING AFFINITY PREDICTED BY RF-SCORE:    0.00 PKD
ROOT
HETATM    1  C   UNL     1      -9.857   9.908  66.107  1.00  0.00    -0.260 C  
HETATM    2  N   UNL     1     -10.911  10.326  67.029  1.00  0.00    -0.223 NA 
HETATM    3  C   UNL     1     -10.427  10.416  68.417  1.00  0.00    -0.189 C  
HETATM    4  C   UNL     1      -9.466  11.586  68.688  1.00  0.00    -0.146 C  
HETATM    5  C   UNL     1     -10.056  12.922  68.252  1.00  0.00    -0.242 C  
HETATM    6  C   UNL     1     -11.514  11.611  66.633  1.00  0.00    -0.206 C  
HETATM    7  C   UNL     1     -10.611  12.844  66.835  1.00  0.00    -0.262 C  
ENDROOT
BRANCH   5   8
HETATM    8  C   UNL     1     -10.127  14.024  69.046  1.00  0.00    -0.066 A  
HETATM    9  C   UNL     1     -11.328  14.299  69.873  1.00  0.00    -0.254 A  
HETATM   10  C   UNL     1     -11.612  13.496  70.990  1.00  0.00     0.609 A  
HETATM   11  C   UNL     1     -12.723  13.764  71.787  1.00  0.00    -0.373 A  
HETATM   12  C   UNL     1     -13.553  14.839  71.480  1.00  0.00    -0.495 A  
HETATM   13  C   UNL     1     -13.267  15.656  70.383  1.00  0.00     0.090 A  
HETATM   14  C   UNL     1     -12.142  15.413  69.582  1.00  0.00    -0.354 A  
HETATM   15  C   UNL     1     -11.884  16.322  68.448  1.00  0.00     0.111 A  
HETATM   16  C   UNL     1     -10.682  16.734  68.005  1.00  0.00    -0.355 A  
HETATM   17  C   UNL     1      -9.364  16.359  68.556  1.00  0.00    -0.225 A  
HETATM   18  C   UNL     1      -8.355  17.334  68.582  1.00  0.00    -0.255 A  
HETATM   19  C   UNL     1      -7.092  17.041  69.105  1.00  0.00    -0.221 A  
HETATM   20  C   UNL     1      -6.817  15.769  69.599  1.00  0.00    -0.169 A  
HETATM   21  C   UNL     1      -7.802  14.783  69.562  1.00  0.00    -0.042 A  
HETATM   22  C   UNL     1      -9.069  15.064  69.026  1.00  0.00    -0.205 A  
ENDBRANCH   5   8
TORSDOF 1
ENDMDL
MODEL      135
REMARK 921   NORMALIZED FREE ENERGY PREDICTED BY IDOCK:   -3.52 KCAL/MOL
REMARK 922        TOTAL FREE ENERGY PREDICTED BY IDOCK:   -4.57 KCAL/MOL
REMARK 923 INTER-LIGAND FREE ENERGY PREDICTED BY IDOCK:   -3.96 KCAL/MOL
REMARK 924 INTRA-LIGAND FREE ENERGY PREDICTED BY IDOCK:   -0.61 KCAL/MOL
REMARK 927      BINDING AFFINITY PREDICTED BY RF-SCORE:    0.00 PKD
ROOT
HETATM    1  C   UNL     1     -10.614   2.753  71.751  1.00  0.00     0.642 C  
HETATM    2  N   UNL     1      -9.340   3.423  71.494  1.00  0.00    -0.128 NA 
HETATM    3  C   UNL     1      -9.439   4.392  70.389  1.00  0.00    -0.175 C  
HETATM    4  C   UNL     1     -10.252   5.656  70.714  1.00  0.00    -0.291 C  
HETATM    5  C   UNL     1      -9.751   6.349  71.975  1.00  0.00    -0.160 C  
HETATM    6  C   UNL     1      -8.818   4.095  72.696  1.00  0.00    -0.103 C  
HETATM    7  C   UNL     1      -9.591   5.359  73.123  1.00  0.00    -0.156 C  
ENDROOT
BRANCH   5   8
HETATM    8  C   UNL     1      -9.434   7.669  72.050  1.00  0.00    -0.194 A  
HETATM    9  C   UNL     1     -10.318   8.707  71.462  1.00  0.00    -0.341 A  
HETATM   10  C   UNL     1     -11.560   8.988  72.054  1.00  0.00    -0.413 A  
HETATM   11  C   UNL     1     -12.385   9.979  71.524  1.00  0.00    -0.513 A  
HETATM   12  C   UNL     1     -11.971  10.700  70.406  1.00  0.00    -0.436 A  
HETATM   13  C   UNL     1     -10.728  10.442  69.825  1.00  0.00    -0.325 A  
HETATM   14  C   UNL     1      -9.877   9.462  70.358  1.00  0.00    -0.313 A  
HETATM   15  C   UNL     1      -8.568   9.249  69.708  1.00  0.00    -0.164 A  
HETATM   16  C   UNL     1      -7.407   8.947  70.319  1.00  0.00    -0.067 A  
HETATM   17  C   UNL     1      -7.197   8.762  71.769  1.00  0.00    -0.076 A  
HETATM   18  C   UNL     1      -5.992   9.216  72.327  1.00  0.00     0.000 A  
HETATM   19  C   UNL     1      -5.743   9.080  73.696  1.00  0.00    -0.083 A  
HETATM   20  C   UNL     1      -6.689   8.480  74.523  1.00  0.00    -0.193 A  
HETATM   21  C   UNL     1      -7.882   8.006  73.981  1.00  0.00    -0.260 A  
HETATM   22  C   UNL     1      -8.135   8.125  72.605  1.00  0.00    -0.215 A  
ENDBRANCH   5   8
TORSDOF 1
ENDMDL
MODEL      136
REMARK 921   NORMALIZED FREE ENERGY PREDICTED BY IDOCK:   -3.52 KCAL/MOL
REMARK 922        TOTAL FREE ENERGY PREDICTED BY IDOCK:   -4.57 KCAL/MOL
REMARK 923 INTER-LIGAND FREE ENERGY PREDICTED BY IDOCK:   -3.74 KCAL/MOL
REMARK 924 INTRA-LIGAND FREE ENERGY PREDICTED BY IDOCK:   -0.82 KCAL/MOL
REMARK 927      BINDING AFFINITY PREDICTED BY RF-SCORE:    0.00 PKD
ROOT
HETATM    1  C   UNL     1      -8.626  16.143  67.332  1.00  0.00    -0.180 C  
HETATM    2  N   UNL     1      -8.963  15.136  68.336  1.00  0.00    -0.177 NA 
HETATM    3  C   UNL     1      -9.969  14.180  67.843  1.00  0.00    -0.231 C  
HETATM    4  C   UNL     1      -9.458  13.207  66.768  1.00  0.00    -0.252 C  
HETATM    5  C   UNL     1      -8.207  12.464  67.218  1.00  0.00    -0.184 C  
HETATM    6  C   UNL     1      -7.774  14.403  68.805  1.00  0.00    -0.139 C  
HETATM    7  C   UNL     1      -7.166  13.425  67.781  1.00  0.00    -0.156 C  
ENDROOT
BRANCH   5   8
HETATM    8  C   UNL     1      -8.060  11.113  67.175  1.00  0.00    -0.138 A  
HETATM    9  C   UNL     1      -7.694  10.419  65.915  1.00  0.00    -0.145 A  
HETATM   10  C   UNL     1      -6.400  10.559  65.385  1.00  0.00    -0.098 A  
HETATM   11  C   UNL     1      -6.041   9.890  64.217  1.00  0.00    -0.122 A  
HETATM   12  C   UNL     1      -6.965   9.071  63.575  1.00  0.00    -0.089 A  
HETATM   13  C   UNL     1      -8.247   8.908  64.106  1.00  0.00    -0.167 A  
HETATM   14  C   UNL     1      -8.619   9.557  65.292  1.00  0.00    -0.175 A  
HETATM   15  C   UNL     1      -9.983   9.331  65.812  1.00  0.00    -0.215 A  
HETATM   16  C   UNL     1     -10.345   9.239  67.104  1.00  0.00    -0.330 A  
HETATM   17  C   UNL     1      -9.456   9.350  68.279  1.00  0.00    -0.147 A  
HETATM   18  C   UNL     1      -9.718   8.529  69.387  1.00  0.00    -0.177 A  
HETATM   19  C   UNL     1      -8.902   8.580  70.521  1.00  0.00    -0.168 A  
HETATM   20  C   UNL     1      -7.822   9.457  70.567  1.00  0.00    -0.185 A  
HETATM   21  C   UNL     1      -7.561  10.293  69.483  1.00  0.00    -0.150 A  
HETATM   22  C   UNL     1      -8.383  10.260  68.345  1.00  0.00    -0.119 A  
ENDBRANCH   5   8
TORSDOF 1
ENDMDL
MODEL      137
REMARK 921   NORMALIZED FREE ENERGY PREDICTED BY IDOCK:   -3.51 KCAL/MOL
REMARK 922        TOTAL FREE ENERGY PREDICTED BY IDOCK:   -4.56 KCAL/MOL
REMARK 923 INTER-LIGAND FREE ENERGY PREDICTED BY IDOCK:   -3.81 KCAL/MOL
REMARK 924 INTRA-LIGAND FREE ENERGY PREDICTED BY IDOCK:   -0.76 KCAL/MOL
REMARK 927      BINDING AFFINITY PREDICTED BY RF-SCORE:    0.00 PKD
ROOT
HETATM    1  C   UNL     1      -5.140  10.215  70.624  1.00  0.00    -0.046 C  
HETATM    2  N   UNL     1      -5.292   8.933  69.939  1.00  0.00    -0.029 NA 
HETATM    3  C   UNL     1      -5.833   7.892  70.829  1.00  0.00    -0.033 C  
HETATM    4  C   UNL     1      -7.312   8.077  71.209  1.00  0.00    -0.067 C  
HETATM    5  C   UNL     1      -8.202   8.231  69.982  1.00  0.00    -0.119 C  
HETATM    6  C   UNL     1      -6.138   9.045  68.739  1.00  0.00    -0.045 C  
HETATM    7  C   UNL     1      -7.638   9.267  69.018  1.00  0.00    -0.074 C  
ENDROOT
BRANCH   5   8
HETATM    8  C   UNL     1      -9.324   7.498  69.752  1.00  0.00    -0.150 A  
HETATM    9  C   UNL     1     -10.539   7.669  70.586  1.00  0.00    -0.225 A  
HETATM   10  C   UNL     1     -11.304   8.842  70.481  1.00  0.00    -0.268 A  
HETATM   11  C   UNL     1     -12.461   9.000  71.242  1.00  0.00    -0.346 A  
HETATM   12  C   UNL     1     -12.866   7.985  72.106  1.00  0.00    -0.269 A  
HETATM   13  C   UNL     1     -12.124   6.806  72.200  1.00  0.00    -0.289 A  
HETATM   14  C   UNL     1     -10.968   6.622  71.427  1.00  0.00    -0.291 A  
HETATM   15  C   UNL     1     -10.237   5.347  71.559  1.00  0.00    -0.280 A  
HETATM   16  C   UNL     1      -9.609   4.674  70.577  1.00  0.00    -0.268 A  
HETATM   17  C   UNL     1      -9.515   5.071  69.158  1.00  0.00    -0.196 A  
HETATM   18  C   UNL     1      -9.568   4.064  68.183  1.00  0.00    -0.189 A  
HETATM   19  C   UNL     1      -9.499   4.381  66.823  1.00  0.00    -0.194 A  
HETATM   20  C   UNL     1      -9.365   5.707  66.420  1.00  0.00    -0.165 A  
HETATM   21  C   UNL     1      -9.290   6.718  67.376  1.00  0.00    -0.140 A  
HETATM   22  C   UNL     1      -9.345   6.408  68.745  1.00  0.00    -0.125 A  
ENDBRANCH   5   8
TORSDOF 1
ENDMDL
MODEL      138
REMARK 921   NORMALIZED FREE ENERGY PREDICTED BY IDOCK:   -3.49 KCAL/MOL
REMARK 922        TOTAL FREE ENERGY PREDICTED BY IDOCK:   -4.54 KCAL/MOL
REMARK 923 INTER-LIGAND FREE ENERGY PREDICTED BY IDOCK:   -3.91 KCAL/MOL
REMARK 924 INTRA-LIGAND FREE ENERGY PREDICTED BY IDOCK:   -0.63 KCAL/MOL
REMARK 927      BINDING AFFINITY PREDICTED BY RF-SCORE:    0.00 PKD
ROOT
HETATM    1  C   UNL     1      -9.151   2.613  67.072  1.00  0.00    -0.146 C  
HETATM    2  N   UNL     1      -9.096   3.770  66.180  1.00  0.00    -0.142 NA 
HETATM    3  C   UNL     1     -10.215   4.699  66.411  1.00  0.00    -0.260 C  
HETATM    4  C   UNL     1     -10.140   5.479  67.734  1.00  0.00    -0.214 C  
HETATM    5  C   UNL     1      -8.812   6.210  67.891  1.00  0.00    -0.111 C  
HETATM    6  C   UNL     1      -7.819   4.496  66.296  1.00  0.00    -0.099 C  
HETATM    7  C   UNL     1      -7.635   5.284  67.608  1.00  0.00    -0.088 C  
ENDROOT
BRANCH   5   8
HETATM    8  C   UNL     1      -8.695   7.531  68.191  1.00  0.00    -0.122 A  
HETATM    9  C   UNL     1      -9.461   8.137  69.308  1.00  0.00    -0.159 A  
HETATM   10  C   UNL     1      -9.133   7.824  70.637  1.00  0.00    -0.153 A  
HETATM   11  C   UNL     1      -9.830   8.409  71.692  1.00  0.00    -0.290 A  
HETATM   12  C   UNL     1     -10.853   9.316  71.429  1.00  0.00    -0.434 A  
HETATM   13  C   UNL     1     -11.172   9.650  70.110  1.00  0.00    -0.302 A  
HETATM   14  C   UNL     1     -10.468   9.086  69.037  1.00  0.00    -0.235 A  
HETATM   15  C   UNL     1     -10.841   9.493  67.668  1.00  0.00    -0.253 A  
HETATM   16  C   UNL     1     -10.008   9.667  66.625  1.00  0.00    -0.301 A  
HETATM   17  C   UNL     1      -8.543   9.484  66.628  1.00  0.00    -0.141 A  
HETATM   18  C   UNL     1      -7.763  10.363  65.860  1.00  0.00    -0.145 A  
HETATM   19  C   UNL     1      -6.370  10.246  65.836  1.00  0.00    -0.107 A  
HETATM   20  C   UNL     1      -5.739   9.245  66.569  1.00  0.00    -0.054 A  
HETATM   21  C   UNL     1      -6.500   8.352  67.321  1.00  0.00    -0.058 A  
HETATM   22  C   UNL     1      -7.900   8.452  67.340  1.00  0.00    -0.099 A  
ENDBRANCH   5   8
TORSDOF 1
ENDMDL
MODEL      139
REMARK 921   NORMALIZED FREE ENERGY PREDICTED BY IDOCK:   -3.48 KCAL/MOL
REMARK 922        TOTAL FREE ENERGY PREDICTED BY IDOCK:   -4.53 KCAL/MOL
REMARK 923 INTER-LIGAND FREE ENERGY PREDICTED BY IDOCK:   -3.79 KCAL/MOL
REMARK 924 INTRA-LIGAND FREE ENERGY PREDICTED BY IDOCK:   -0.74 KCAL/MOL
REMARK 927      BINDING AFFINITY PREDICTED BY RF-SCORE:    0.00 PKD
ROOT
HETATM    1  C   UNL     1     -11.242   7.707  72.960  1.00  0.00    -0.333 C  
HETATM    2  N   UNL     1     -10.373   6.879  72.127  1.00  0.00    -0.198 NA 
HETATM    3  C   UNL     1     -10.880   6.759  70.749  1.00  0.00    -0.249 C  
HETATM    4  C   UNL     1     -10.773   8.043  69.911  1.00  0.00    -0.242 C  
HETATM    5  C   UNL     1      -9.356   8.602  69.900  1.00  0.00    -0.160 C  
HETATM    6  C   UNL     1      -8.989   7.382  72.101  1.00  0.00    -0.131 C  
HETATM    7  C   UNL     1      -8.786   8.689  71.311  1.00  0.00    -0.246 C  
ENDROOT
BRANCH   5   8
HETATM    8  C   UNL     1      -8.668   8.927  68.772  1.00  0.00    -0.137 A  
HETATM    9  C   UNL     1      -8.332  10.337  68.456  1.00  0.00    -0.116 A  
HETATM   10  C   UNL     1      -7.370  11.019  69.219  1.00  0.00    -0.113 A  
HETATM   11  C   UNL     1      -7.030  12.334  68.913  1.00  0.00    -0.098 A  
HETATM   12  C   UNL     1      -7.641  12.976  67.839  1.00  0.00    -0.144 A  
HETATM   13  C   UNL     1      -8.583  12.299  67.061  1.00  0.00    -0.191 A  
HETATM   14  C   UNL     1      -8.922  10.968  67.343  1.00  0.00    -0.141 A  
HETATM   15  C   UNL     1      -9.912  10.302  66.473  1.00  0.00    -0.280 A  
HETATM   16  C   UNL     1      -9.907   9.012  66.091  1.00  0.00    -0.349 A  
HETATM   17  C   UNL     1      -8.913   7.986  66.463  1.00  0.00    -0.188 A  
HETATM   18  C   UNL     1      -8.553   7.031  65.500  1.00  0.00    -0.091 A  
HETATM   19  C   UNL     1      -7.606   6.045  65.792  1.00  0.00    -0.084 A  
HETATM   20  C   UNL     1      -7.014   5.993  67.050  1.00  0.00    -0.068 A  
HETATM   21  C   UNL     1      -7.375   6.922  68.025  1.00  0.00    -0.097 A  
HETATM   22  C   UNL     1      -8.336   7.908  67.746  1.00  0.00    -0.129 A  
ENDBRANCH   5   8
TORSDOF 1
ENDMDL
MODEL      140
REMARK 921   NORMALIZED FREE ENERGY PREDICTED BY IDOCK:   -3.47 KCAL/MOL
REMARK 922        TOTAL FREE ENERGY PREDICTED BY IDOCK:   -4.52 KCAL/MOL
REMARK 923 INTER-LIGAND FREE ENERGY PREDICTED BY IDOCK:   -3.68 KCAL/MOL
REMARK 924 INTRA-LIGAND FREE ENERGY PREDICTED BY IDOCK:   -0.84 KCAL/MOL
REMARK 927      BINDING AFFINITY PREDICTED BY RF-SCORE:    0.00 PKD
ROOT
HETATM    1  C   UNL     1      -6.053  10.235  66.637  1.00  0.00    -0.064 C  
HETATM    2  N   UNL     1      -6.940  10.439  67.780  1.00  0.00    -0.082 NA 
HETATM    3  C   UNL     1      -8.278   9.867  67.551  1.00  0.00    -0.114 C  
HETATM    4  C   UNL     1      -8.327   8.330  67.550  1.00  0.00    -0.130 C  
HETATM    5  C   UNL     1      -7.713   7.738  68.812  1.00  0.00    -0.113 C  
HETATM    6  C   UNL     1      -6.374   9.889  69.024  1.00  0.00    -0.040 C  
HETATM    7  C   UNL     1      -6.348   8.350  69.102  1.00  0.00    -0.043 C  
ENDROOT
BRANCH   5   8
HETATM    8  C   UNL     1      -8.329   6.822  69.608  1.00  0.00    -0.132 A  
HETATM    9  C   UNL     1      -8.200   5.367  69.347  1.00  0.00    -0.096 A  
HETATM   10  C   UNL     1      -6.976   4.718  69.577  1.00  0.00    -0.053 A  
HETATM   11  C   UNL     1      -6.854   3.347  69.360  1.00  0.00    -0.041 A  
HETATM   12  C   UNL     1      -7.954   2.613  68.921  1.00  0.00    -0.062 A  
HETATM   13  C   UNL     1      -9.181   3.247  68.712  1.00  0.00    -0.228 A  
HETATM   14  C   UNL     1      -9.327   4.622  68.945  1.00  0.00    -0.200 A  
HETATM   15  C   UNL     1     -10.654   5.230  68.722  1.00  0.00    -0.115 A  
HETATM   16  C   UNL     1     -11.217   6.217  69.441  1.00  0.00    -0.489 A  
HETATM   17  C   UNL     1     -10.626   6.907  70.605  1.00  0.00    -0.248 A  
HETATM   18  C   UNL     1     -11.476   7.277  71.659  1.00  0.00    -0.297 A  
HETATM   19  C   UNL     1     -10.970   7.919  72.793  1.00  0.00    -0.456 A  
HETATM   20  C   UNL     1      -9.611   8.210  72.885  1.00  0.00    -0.345 A  
HETATM   21  C   UNL     1      -8.757   7.867  71.838  1.00  0.00    -0.168 A  
HETATM   22  C   UNL     1      -9.258   7.234  70.689  1.00  0.00    -0.157 A  
ENDBRANCH   5   8
TORSDOF 1
ENDMDL
MODEL      141
REMARK 921   NORMALIZED FREE ENERGY PREDICTED BY IDOCK:   -3.46 KCAL/MOL
REMARK 922        TOTAL FREE ENERGY PREDICTED BY IDOCK:   -4.51 KCAL/MOL
REMARK 923 INTER-LIGAND FREE ENERGY PREDICTED BY IDOCK:   -3.67 KCAL/MOL
REMARK 924 INTRA-LIGAND FREE ENERGY PREDICTED BY IDOCK:   -0.84 KCAL/MOL
REMARK 927      BINDING AFFINITY PREDICTED BY RF-SCORE:    0.00 PKD
ROOT
HETATM    1  C   UNL     1     -10.602   7.288  67.551  1.00  0.00    -0.274 C  
HETATM    2  N   UNL     1     -10.997   6.101  68.305  1.00  0.00    -0.324 NA 
HETATM    3  C   UNL     1      -9.858   5.203  68.558  1.00  0.00    -0.155 C  
HETATM    4  C   UNL     1      -8.834   5.736  69.574  1.00  0.00    -0.118 C  
HETATM    5  C   UNL     1      -9.489   6.134  70.891  1.00  0.00    -0.187 C  
HETATM    6  C   UNL     1     -11.646   6.447  69.581  1.00  0.00    -0.282 C  
HETATM    7  C   UNL     1     -10.704   7.024  70.655  1.00  0.00    -0.255 C  
ENDROOT
BRANCH   5   8
HETATM    8  C   UNL     1      -9.076   5.705  72.113  1.00  0.00    -0.147 A  
HETATM    9  C   UNL     1      -8.088   6.478  72.906  1.00  0.00    -0.105 A  
HETATM   10  C   UNL     1      -8.453   7.707  73.479  1.00  0.00    -0.234 A  
HETATM   11  C   UNL     1      -7.540   8.427  74.247  1.00  0.00    -0.242 A  
HETATM   12  C   UNL     1      -6.259   7.921  74.454  1.00  0.00    -0.103 A  
HETATM   13  C   UNL     1      -5.894   6.689  73.907  1.00  0.00    -0.059 A  
HETATM   14  C   UNL     1      -6.807   5.942  73.148  1.00  0.00    -0.079 A  
HETATM   15  C   UNL     1      -6.366   4.639  72.611  1.00  0.00    -0.026 A  
HETATM   16  C   UNL     1      -7.113   3.527  72.485  1.00  0.00    -0.047 A  
HETATM   17  C   UNL     1      -8.534   3.374  72.855  1.00  0.00    -0.082 A  
HETATM   18  C   UNL     1      -8.949   2.150  73.402  1.00  0.00    -0.070 A  
HETATM   19  C   UNL     1     -10.279   1.952  73.783  1.00  0.00    -0.158 A  
HETATM   20  C   UNL     1     -11.214   2.970  73.614  1.00  0.00    -0.298 A  
HETATM   21  C   UNL     1     -10.823   4.184  73.054  1.00  0.00    -0.252 A  
HETATM   22  C   UNL     1      -9.492   4.388  72.654  1.00  0.00    -0.169 A  
ENDBRANCH   5   8
TORSDOF 1
ENDMDL
MODEL      142
REMARK 921   NORMALIZED FREE ENERGY PREDICTED BY IDOCK:   -3.46 KCAL/MOL
REMARK 922        TOTAL FREE ENERGY PREDICTED BY IDOCK:   -4.51 KCAL/MOL
REMARK 923 INTER-LIGAND FREE ENERGY PREDICTED BY IDOCK:   -3.68 KCAL/MOL
REMARK 924 INTRA-LIGAND FREE ENERGY PREDICTED BY IDOCK:   -0.83 KCAL/MOL
REMARK 927      BINDING AFFINITY PREDICTED BY RF-SCORE:    0.00 PKD
ROOT
HETATM    1  C   UNL     1     -10.840   2.518  74.319  1.00  0.00    -0.109 C  
HETATM    2  N   UNL     1      -9.921   3.653  74.350  1.00  0.00    -0.130 NA 
HETATM    3  C   UNL     1      -8.679   3.380  73.608  1.00  0.00    -0.081 C  
HETATM    4  C   UNL     1      -8.845   3.316  72.080  1.00  0.00    -0.123 C  
HETATM    5  C   UNL     1      -9.521   4.565  71.527  1.00  0.00    -0.214 C  
HETATM    6  C   UNL     1     -10.544   4.884  73.833  1.00  0.00    -0.287 C  
HETATM    7  C   UNL     1     -10.784   4.902  72.310  1.00  0.00    -0.218 C  
ENDROOT
BRANCH   5   8
HETATM    8  C   UNL     1      -9.030   5.312  70.503  1.00  0.00    -0.162 A  
HETATM    9  C   UNL     1      -8.305   6.582  70.757  1.00  0.00    -0.130 A  
HETATM   10  C   UNL     1      -7.023   6.558  71.331  1.00  0.00    -0.075 A  
HETATM   11  C   UNL     1      -6.326   7.744  71.548  1.00  0.00    -0.038 A  
HETATM   12  C   UNL     1      -6.898   8.961  71.187  1.00  0.00    -0.085 A  
HETATM   13  C   UNL     1      -8.162   8.994  70.595  1.00  0.00    -0.207 A  
HETATM   14  C   UNL     1      -8.870   7.808  70.350  1.00  0.00    -0.146 A  
HETATM   15  C   UNL     1     -10.195   7.907  69.706  1.00  0.00    -0.212 A  
HETATM   16  C   UNL     1     -10.721   7.049  68.812  1.00  0.00    -0.226 A  
HETATM   17  C   UNL     1     -10.086   5.823  68.289  1.00  0.00    -0.208 A  
HETATM   18  C   UNL     1     -10.300   5.488  66.943  1.00  0.00    -0.315 A  
HETATM   19  C   UNL     1      -9.713   4.347  66.389  1.00  0.00    -0.227 A  
HETATM   20  C   UNL     1      -8.914   3.520  67.174  1.00  0.00    -0.168 A  
HETATM   21  C   UNL     1      -8.707   3.827  68.517  1.00  0.00    -0.134 A  
HETATM   22  C   UNL     1      -9.304   4.964  69.086  1.00  0.00    -0.184 A  
ENDBRANCH   5   8
TORSDOF 1
ENDMDL
MODEL      143
REMARK 921   NORMALIZED FREE ENERGY PREDICTED BY IDOCK:   -3.45 KCAL/MOL
REMARK 922        TOTAL FREE ENERGY PREDICTED BY IDOCK:   -4.49 KCAL/MOL
REMARK 923 INTER-LIGAND FREE ENERGY PREDICTED BY IDOCK:   -3.84 KCAL/MOL
REMARK 924 INTRA-LIGAND FREE ENERGY PREDICTED BY IDOCK:   -0.65 KCAL/MOL
REMARK 927      BINDING AFFINITY PREDICTED BY RF-SCORE:    0.00 PKD
ROOT
HETATM    1  C   UNL     1      -8.104   8.299  72.936  1.00  0.00    -0.150 C  
HETATM    2  N   UNL     1      -7.466   7.761  71.737  1.00  0.00    -0.069 NA 
HETATM    3  C   UNL     1      -8.359   6.856  70.994  1.00  0.00    -0.126 C  
HETATM    4  C   UNL     1      -9.532   7.551  70.285  1.00  0.00    -0.165 C  
HETATM    5  C   UNL     1      -9.063   8.682  69.378  1.00  0.00    -0.149 C  
HETATM    6  C   UNL     1      -6.987   8.828  70.840  1.00  0.00    -0.072 C  
HETATM    7  C   UNL     1      -8.096   9.608  70.107  1.00  0.00    -0.205 C  
ENDROOT
BRANCH   5   8
HETATM    8  C   UNL     1      -9.418   8.815  68.072  1.00  0.00    -0.158 A  
HETATM    9  C   UNL     1      -9.166   7.729  67.092  1.00  0.00    -0.174 A  
HETATM   10  C   UNL     1      -9.910   6.539  67.156  1.00  0.00    -0.187 A  
HETATM   11  C   UNL     1      -9.698   5.525  66.224  1.00  0.00    -0.172 A  
HETATM   12  C   UNL     1      -8.750   5.695  65.218  1.00  0.00    -0.120 A  
HETATM   13  C   UNL     1      -8.021   6.884  65.134  1.00  0.00    -0.125 A  
HETATM   14  C   UNL     1      -8.236   7.922  66.052  1.00  0.00    -0.122 A  
HETATM   15  C   UNL     1      -7.446   9.161  65.900  1.00  0.00    -0.094 A  
HETATM   16  C   UNL     1      -7.869  10.417  66.131  1.00  0.00    -0.135 A  
HETATM   17  C   UNL     1      -9.212  10.825  66.590  1.00  0.00    -0.184 A  
HETATM   18  C   UNL     1      -9.756  12.012  66.076  1.00  0.00    -0.256 A  
HETATM   19  C   UNL     1     -11.030  12.439  66.464  1.00  0.00    -0.312 A  
HETATM   20  C   UNL     1     -11.770  11.694  67.377  1.00  0.00    -0.278 A  
HETATM   21  C   UNL     1     -11.236  10.524  67.912  1.00  0.00    -0.358 A  
HETATM   22  C   UNL     1      -9.952  10.093  67.540  1.00  0.00    -0.231 A  
ENDBRANCH   5   8
TORSDOF 1
ENDMDL
MODEL      144
REMARK 921   NORMALIZED FREE ENERGY PREDICTED BY IDOCK:   -3.44 KCAL/MOL
REMARK 922        TOTAL FREE ENERGY PREDICTED BY IDOCK:   -4.48 KCAL/MOL
REMARK 923 INTER-LIGAND FREE ENERGY PREDICTED BY IDOCK:   -3.69 KCAL/MOL
REMARK 924 INTRA-LIGAND FREE ENERGY PREDICTED BY IDOCK:   -0.79 KCAL/MOL
REMARK 927      BINDING AFFINITY PREDICTED BY RF-SCORE:    0.00 PKD
ROOT
HETATM    1  C   UNL     1     -11.747  13.472  67.640  1.00  0.00    -0.363 C  
HETATM    2  N   UNL     1     -10.580  12.858  67.010  1.00  0.00    -0.251 NA 
HETATM    3  C   UNL     1      -9.449  12.735  67.945  1.00  0.00    -0.208 C  
HETATM    4  C   UNL     1      -9.640  11.681  69.049  1.00  0.00     0.095 C  
HETATM    5  C   UNL     1     -10.000  10.315  68.479  1.00  0.00    -0.177 C  
HETATM    6  C   UNL     1     -10.893  11.539  66.436  1.00  0.00    -0.285 C  
HETATM    7  C   UNL     1     -11.136  10.420  67.468  1.00  0.00    -0.336 C  
ENDROOT
BRANCH   5   8
HETATM    8  C   UNL     1      -9.353   9.160  68.790  1.00  0.00    -0.139 A  
HETATM    9  C   UNL     1      -9.954   8.166  69.714  1.00  0.00    -0.191 A  
HETATM   10  C   UNL     1     -11.068   7.414  69.308  1.00  0.00    -0.012 A  
HETATM   11  C   UNL     1     -11.623   6.461  70.160  1.00  0.00    -0.449 A  
HETATM   12  C   UNL     1     -11.064   6.246  71.418  1.00  0.00    -0.339 A  
HETATM   13  C   UNL     1      -9.943   6.975  71.821  1.00  0.00    -0.187 A  
HETATM   14  C   UNL     1      -9.360   7.923  70.968  1.00  0.00    -0.167 A  
HETATM   15  C   UNL     1      -8.165   8.648  71.445  1.00  0.00    -0.205 A  
HETATM   16  C   UNL     1      -7.107   9.029  70.706  1.00  0.00    -0.092 A  
HETATM   17  C   UNL     1      -6.917   8.806  69.259  1.00  0.00    -0.058 A  
HETATM   18  C   UNL     1      -5.623   8.521  68.796  1.00  0.00    -0.040 A  
HETATM   19  C   UNL     1      -5.386   8.287  67.438  1.00  0.00    -0.034 A  
HETATM   20  C   UNL     1      -6.435   8.345  66.525  1.00  0.00    -0.055 A  
HETATM   21  C   UNL     1      -7.722   8.647  66.965  1.00  0.00    -0.095 A  
HETATM   22  C   UNL     1      -7.968   8.897  68.325  1.00  0.00    -0.105 A  
ENDBRANCH   5   8
TORSDOF 1
ENDMDL
MODEL      145
REMARK 921   NORMALIZED FREE ENERGY PREDICTED BY IDOCK:   -3.42 KCAL/MOL
REMARK 922        TOTAL FREE ENERGY PREDICTED BY IDOCK:   -4.46 KCAL/MOL
REMARK 923 INTER-LIGAND FREE ENERGY PREDICTED BY IDOCK:   -3.89 KCAL/MOL
REMARK 924 INTRA-LIGAND FREE ENERGY PREDICTED BY IDOCK:   -0.57 KCAL/MOL
REMARK 927      BINDING AFFINITY PREDICTED BY RF-SCORE:    0.00 PKD
ROOT
HETATM    1  C   UNL     1      -9.859  12.194  66.257  1.00  0.00    -0.234 C  
HETATM    2  N   UNL     1     -10.739  11.054  66.504  1.00  0.00    -0.259 NA 
HETATM    3  C   UNL     1     -10.112   9.778  66.120  1.00  0.00    -0.245 C  
HETATM    4  C   UNL     1      -8.962   9.327  67.035  1.00  0.00    -0.142 C  
HETATM    5  C   UNL     1      -9.380   9.284  68.499  1.00  0.00    -0.143 C  
HETATM    6  C   UNL     1     -11.175  10.987  67.910  1.00  0.00    -0.310 C  
HETATM    7  C   UNL     1     -10.079  10.575  68.912  1.00  0.00    -0.215 C  
ENDROOT
BRANCH   5   8
HETATM    8  C   UNL     1      -9.203   8.211  69.316  1.00  0.00    -0.151 A  
HETATM    9  C   UNL     1     -10.213   7.851  70.342  1.00  0.00    -0.197 A  
HETATM   10  C   UNL     1     -11.456   7.328  69.952  1.00  0.00    -0.085 A  
HETATM   11  C   UNL     1     -12.400   6.963  70.910  1.00  0.00    -0.365 A  
HETATM   12  C   UNL     1     -12.106   7.110  72.263  1.00  0.00    -0.219 A  
HETATM   13  C   UNL     1     -10.864   7.610  72.661  1.00  0.00    -0.395 A  
HETATM   14  C   UNL     1      -9.895   7.963  71.711  1.00  0.00    -0.223 A  
HETATM   15  C   UNL     1      -8.595   8.468  72.196  1.00  0.00    -0.242 A  
HETATM   16  C   UNL     1      -7.388   8.237  71.648  1.00  0.00    -0.098 A  
HETATM   17  C   UNL     1      -7.107   7.430  70.444  1.00  0.00    -0.064 A  
HETATM   18  C   UNL     1      -5.937   6.654  70.424  1.00  0.00    -0.024 A  
HETATM   19  C   UNL     1      -5.626   5.860  69.316  1.00  0.00    -0.008 A  
HETATM   20  C   UNL     1      -6.473   5.838  68.211  1.00  0.00    -0.046 A  
HETATM   21  C   UNL     1      -7.627   6.618  68.206  1.00  0.00    -0.104 A  
HETATM   22  C   UNL     1      -7.941   7.430  69.309  1.00  0.00    -0.118 A  
ENDBRANCH   5   8
TORSDOF 1
ENDMDL
MODEL      146
REMARK 921   NORMALIZED FREE ENERGY PREDICTED BY IDOCK:   -3.41 KCAL/MOL
REMARK 922        TOTAL FREE ENERGY PREDICTED BY IDOCK:   -4.46 KCAL/MOL
REMARK 923 INTER-LIGAND FREE ENERGY PREDICTED BY IDOCK:   -3.62 KCAL/MOL
REMARK 924 INTRA-LIGAND FREE ENERGY PREDICTED BY IDOCK:   -0.83 KCAL/MOL
REMARK 927      BINDING AFFINITY PREDICTED BY RF-SCORE:    0.00 PKD
ROOT
HETATM    1  C   UNL     1     -10.037  10.892  65.255  1.00  0.00    -0.280 C  
HETATM    2  N   UNL     1      -9.945  11.052  66.704  1.00  0.00    -0.203 NA 
HETATM    3  C   UNL     1     -10.981  10.282  67.413  1.00  0.00    -0.252 C  
HETATM    4  C   UNL     1     -10.781   8.757  67.381  1.00  0.00    -0.216 C  
HETATM    5  C   UNL     1      -9.398   8.352  67.875  1.00  0.00    -0.147 C  
HETATM    6  C   UNL     1      -8.615  10.681  67.218  1.00  0.00    -0.126 C  
HETATM    7  C   UNL     1      -8.307   9.171  67.195  1.00  0.00    -0.117 C  
ENDROOT
BRANCH   5   8
HETATM    8  C   UNL     1      -9.170   7.420  68.839  1.00  0.00    -0.142 A  
HETATM    9  C   UNL     1      -9.163   7.787  70.277  1.00  0.00    -0.156 A  
HETATM   10  C   UNL     1     -10.362   8.136  70.920  1.00  0.00    -0.218 A  
HETATM   11  C   UNL     1     -10.366   8.456  72.276  1.00  0.00    -0.403 A  
HETATM   12  C   UNL     1      -9.178   8.423  73.001  1.00  0.00    -0.256 A  
HETATM   13  C   UNL     1      -7.984   8.056  72.374  1.00  0.00    -0.168 A  
HETATM   14  C   UNL     1      -7.964   7.711  71.015  1.00  0.00    -0.094 A  
HETATM   15  C   UNL     1      -6.674   7.315  70.415  1.00  0.00    -0.052 A  
HETATM   16  C   UNL     1      -6.481   6.373  69.474  1.00  0.00    -0.043 A  
HETATM   17  C   UNL     1      -7.518   5.537  68.838  1.00  0.00    -0.082 A  
HETATM   18  C   UNL     1      -7.201   4.203  68.535  1.00  0.00    -0.055 A  
HETATM   19  C   UNL     1      -8.148   3.361  67.946  1.00  0.00    -0.082 A  
HETATM   20  C   UNL     1      -9.419   3.841  67.642  1.00  0.00    -0.234 A  
HETATM   21  C   UNL     1      -9.743   5.167  67.917  1.00  0.00    -0.184 A  
HETATM   22  C   UNL     1      -8.794   6.026  68.497  1.00  0.00    -0.112 A  
ENDBRANCH   5   8
TORSDOF 1
ENDMDL
MODEL      147
REMARK 921   NORMALIZED FREE ENERGY PREDICTED BY IDOCK:   -3.41 KCAL/MOL
REMARK 922        TOTAL FREE ENERGY PREDICTED BY IDOCK:   -4.45 KCAL/MOL
REMARK 923 INTER-LIGAND FREE ENERGY PREDICTED BY IDOCK:   -4.01 KCAL/MOL
REMARK 924 INTRA-LIGAND FREE ENERGY PREDICTED BY IDOCK:   -0.44 KCAL/MOL
REMARK 927      BINDING AFFINITY PREDICTED BY RF-SCORE:    0.00 PKD
ROOT
HETATM    1  C   UNL     1      -9.431   4.385  66.005  1.00  0.00    -0.173 C  
HETATM    2  N   UNL     1      -8.408   4.804  66.960  1.00  0.00    -0.106 NA 
HETATM    3  C   UNL     1      -7.924   6.168  66.688  1.00  0.00    -0.105 C  
HETATM    4  C   UNL     1      -8.937   7.282  67.000  1.00  0.00    -0.140 C  
HETATM    5  C   UNL     1      -9.468   7.189  68.425  1.00  0.00    -0.138 C  
HETATM    6  C   UNL     1      -8.882   4.716  68.351  1.00  0.00    -0.105 C  
HETATM    7  C   UNL     1      -9.929   5.773  68.751  1.00  0.00    -0.207 C  
ENDROOT
BRANCH   5   8
HETATM    8  C   UNL     1      -9.477   8.222  69.310  1.00  0.00    -0.155 A  
HETATM    9  C   UNL     1      -9.870   8.019  70.726  1.00  0.00    -0.197 A  
HETATM   10  C   UNL     1      -9.028   7.305  71.594  1.00  0.00    -0.131 A  
HETATM   11  C   UNL     1      -9.378   7.131  72.932  1.00  0.00    -0.179 A  
HETATM   12  C   UNL     1     -10.566   7.676  73.414  1.00  0.00    -0.353 A  
HETATM   13  C   UNL     1     -11.399   8.407  72.563  1.00  0.00    -0.416 A  
HETATM   14  C   UNL     1     -11.052   8.608  71.219  1.00  0.00    -0.336 A  
HETATM   15  C   UNL     1     -11.966   9.404  70.375  1.00  0.00    -0.080 A  
HETATM   16  C   UNL     1     -11.617  10.259  69.397  1.00  0.00    -0.213 A  
HETATM   17  C   UNL     1     -10.245  10.581  68.956  1.00  0.00    -0.233 A  
HETATM   18  C   UNL     1      -9.964  11.901  68.572  1.00  0.00    -0.196 A  
HETATM   19  C   UNL     1      -8.680  12.267  68.160  1.00  0.00    -0.186 A  
HETATM   20  C   UNL     1      -7.662  11.318  68.114  1.00  0.00    -0.112 A  
HETATM   21  C   UNL     1      -7.929   9.998  68.473  1.00  0.00    -0.102 A  
HETATM   22  C   UNL     1      -9.220   9.618  68.875  1.00  0.00    -0.147 A  
ENDBRANCH   5   8
TORSDOF 1
ENDMDL
MODEL      148
REMARK 921   NORMALIZED FREE ENERGY PREDICTED BY IDOCK:   -3.35 KCAL/MOL
REMARK 922        TOTAL FREE ENERGY PREDICTED BY IDOCK:   -4.39 KCAL/MOL
REMARK 923 INTER-LIGAND FREE ENERGY PREDICTED BY IDOCK:   -3.95 KCAL/MOL
REMARK 924 INTRA-LIGAND FREE ENERGY PREDICTED BY IDOCK:   -0.43 KCAL/MOL
REMARK 927      BINDING AFFINITY PREDICTED BY RF-SCORE:    0.00 PKD
ROOT
HETATM    1  C   UNL     1      -9.028   9.279  63.242  1.00  0.00    -0.052 C  
HETATM    2  N   UNL     1      -8.702  10.550  63.886  1.00  0.00    -0.179 NA 
HETATM    3  C   UNL     1      -9.835  11.081  64.664  1.00  0.00    -0.285 C  
HETATM    4  C   UNL     1     -10.156  10.299  65.947  1.00  0.00    -0.319 C  
HETATM    5  C   UNL     1      -8.934  10.144  66.843  1.00  0.00    -0.146 C  
HETATM    6  C   UNL     1      -7.516  10.441  64.753  1.00  0.00    -0.049 C  
HETATM    7  C   UNL     1      -7.730   9.642  66.053  1.00  0.00    -0.102 C  
ENDROOT
BRANCH   5   8
HETATM    8  C   UNL     1      -8.905  10.465  68.165  1.00  0.00    -0.132 A  
HETATM    9  C   UNL     1      -7.704  10.199  68.995  1.00  0.00    -0.100 A  
HETATM   10  C   UNL     1      -6.536  10.954  68.803  1.00  0.00    -0.053 A  
HETATM   11  C   UNL     1      -5.413  10.728  69.596  1.00  0.00    -0.039 A  
HETATM   12  C   UNL     1      -5.451   9.753  70.591  1.00  0.00    -0.052 A  
HETATM   13  C   UNL     1      -6.616   9.013  70.803  1.00  0.00    -0.063 A  
HETATM   14  C   UNL     1      -7.762   9.241  70.028  1.00  0.00    -0.104 A  
HETATM   15  C   UNL     1      -8.968   8.438  70.312  1.00  0.00    -0.147 A  
HETATM   16  C   UNL     1     -10.245   8.855  70.250  1.00  0.00    -0.230 A  
HETATM   17  C   UNL     1     -10.714  10.206  69.879  1.00  0.00    -0.340 A  
HETATM   18  C   UNL     1     -11.831  10.727  70.550  1.00  0.00    -0.453 A  
HETATM   19  C   UNL     1     -12.310  12.006  70.251  1.00  0.00    -0.275 A  
HETATM   20  C   UNL     1     -11.688  12.775  69.271  1.00  0.00    -0.376 A  
HETATM   21  C   UNL     1     -10.591  12.264  68.581  1.00  0.00    -0.249 A  
HETATM   22  C   UNL     1     -10.110  10.975  68.865  1.00  0.00    -0.212 A  
ENDBRANCH   5   8
TORSDOF 1
ENDMDL
MODEL      149
REMARK 921   NORMALIZED FREE ENERGY PREDICTED BY IDOCK:   -3.31 KCAL/MOL
REMARK 922        TOTAL FREE ENERGY PREDICTED BY IDOCK:   -4.35 KCAL/MOL
REMARK 923 INTER-LIGAND FREE ENERGY PREDICTED BY IDOCK:   -3.51 KCAL/MOL
REMARK 924 INTRA-LIGAND FREE ENERGY PREDICTED BY IDOCK:   -0.84 KCAL/MOL
REMARK 927      BINDING AFFINITY PREDICTED BY RF-SCORE:    0.00 PKD
ROOT
HETATM    1  C   UNL     1      -8.690   3.139  73.143  1.00  0.00    -0.080 C  
HETATM    2  N   UNL     1      -9.107   4.538  73.196  1.00  0.00    -0.118 NA 
HETATM    3  C   UNL     1      -8.107   5.437  72.595  1.00  0.00    -0.106 C  
HETATM    4  C   UNL     1      -7.991   5.335  71.065  1.00  0.00    -0.103 C  
HETATM    5  C   UNL     1      -9.338   5.515  70.376  1.00  0.00    -0.198 C  
HETATM    6  C   UNL     1     -10.414   4.750  72.549  1.00  0.00    -0.203 C  
HETATM    7  C   UNL     1     -10.406   4.633  71.013  1.00  0.00    -0.143 C  
ENDROOT
BRANCH   5   8
HETATM    8  C   UNL     1      -9.569   6.391  69.362  1.00  0.00    -0.152 A  
HETATM    9  C   UNL     1      -9.372   5.996  67.945  1.00  0.00    -0.110 A  
HETATM   10  C   UNL     1     -10.254   5.086  67.339  1.00  0.00    -0.201 A  
HETATM   11  C   UNL     1     -10.090   4.730  66.001  1.00  0.00    -0.282 A  
HETATM   12  C   UNL     1      -9.051   5.286  65.258  1.00  0.00    -0.097 A  
HETATM   13  C   UNL     1      -8.183   6.208  65.847  1.00  0.00    -0.131 A  
HETATM   14  C   UNL     1      -8.345   6.593  67.185  1.00  0.00    -0.113 A  
HETATM   15  C   UNL     1      -7.405   7.585  67.744  1.00  0.00    -0.103 A  
HETATM   16  C   UNL     1      -7.692   8.554  68.632  1.00  0.00    -0.103 A  
HETATM   17  C   UNL     1      -9.010   8.830  69.239  1.00  0.00    -0.144 A  
HETATM   18  C   UNL     1      -9.368  10.168  69.468  1.00  0.00    -0.230 A  
HETATM   19  C   UNL     1     -10.608  10.489  70.027  1.00  0.00    -0.223 A  
HETATM   20  C   UNL     1     -11.502   9.481  70.375  1.00  0.00    -0.297 A  
HETATM   21  C   UNL     1     -11.154   8.146  70.173  1.00  0.00    -0.187 A  
HETATM   22  C   UNL     1      -9.905   7.812  69.625  1.00  0.00    -0.182 A  
ENDBRANCH   5   8
TORSDOF 1
ENDMDL
MODEL      150
REMARK 921   NORMALIZED FREE ENERGY PREDICTED BY IDOCK:   -3.29 KCAL/MOL
REMARK 922        TOTAL FREE ENERGY PREDICTED BY IDOCK:   -4.32 KCAL/MOL
REMARK 923 INTER-LIGAND FREE ENERGY PREDICTED BY IDOCK:   -3.87 KCAL/MOL
REMARK 924 INTRA-LIGAND FREE ENERGY PREDICTED BY IDOCK:   -0.45 KCAL/MOL
REMARK 927      BINDING AFFINITY PREDICTED BY RF-SCORE:    0.00 PKD
ROOT
HETATM    1  C   UNL     1      -7.078   8.462  63.673  1.00  0.00    -0.089 C  
HETATM    2  N   UNL     1      -7.022   9.922  63.674  1.00  0.00    -0.120 NA 
HETATM    3  C   UNL     1      -8.346  10.525  63.899  1.00  0.00    -0.093 C  
HETATM    4  C   UNL     1      -8.894  10.359  65.326  1.00  0.00    -0.203 C  
HETATM    5  C   UNL     1      -7.908  10.854  66.377  1.00  0.00    -0.154 C  
HETATM    6  C   UNL     1      -6.069  10.438  64.671  1.00  0.00    -0.095 C  
HETATM    7  C   UNL     1      -6.515  10.284  66.139  1.00  0.00    -0.103 C  
ENDROOT
BRANCH   5   8
HETATM    8  C   UNL     1      -8.220  11.734  67.366  1.00  0.00    -0.160 A  
HETATM    9  C   UNL     1      -9.481  12.515  67.331  1.00  0.00    -0.184 A  
HETATM   10  C   UNL     1     -10.712  11.872  67.539  1.00  0.00    -0.263 A  
HETATM   11  C   UNL     1     -11.899  12.602  67.533  1.00  0.00    -0.396 A  
HETATM   12  C   UNL     1     -11.864  13.979  67.330  1.00  0.00    -0.445 A  
HETATM   13  C   UNL     1     -10.643  14.631  67.144  1.00  0.00    -0.282 A  
HETATM   14  C   UNL     1      -9.437  13.914  67.167  1.00  0.00    -0.246 A  
HETATM   15  C   UNL     1      -8.178  14.663  66.982  1.00  0.00    -0.188 A  
HETATM   16  C   UNL     1      -7.001  14.417  67.586  1.00  0.00    -0.203 A  
HETATM   17  C   UNL     1      -6.717  13.344  68.560  1.00  0.00    -0.096 A  
HETATM   18  C   UNL     1      -5.841  13.625  69.620  1.00  0.00    -0.108 A  
HETATM   19  C   UNL     1      -5.547  12.653  70.580  1.00  0.00    -0.177 A  
HETATM   20  C   UNL     1      -6.114  11.385  70.489  1.00  0.00    -0.045 A  
HETATM   21  C   UNL     1      -6.970  11.083  69.432  1.00  0.00    -0.126 A  
HETATM   22  C   UNL     1      -7.261  12.049  68.454  1.00  0.00    -0.092 A  
ENDBRANCH   5   8
TORSDOF 1
ENDMDL
MODEL      151
REMARK 921   NORMALIZED FREE ENERGY PREDICTED BY IDOCK:   -3.23 KCAL/MOL
REMARK 922        TOTAL FREE ENERGY PREDICTED BY IDOCK:   -4.27 KCAL/MOL
REMARK 923 INTER-LIGAND FREE ENERGY PREDICTED BY IDOCK:   -3.48 KCAL/MOL
REMARK 924 INTRA-LIGAND FREE ENERGY PREDICTED BY IDOCK:   -0.78 KCAL/MOL
REMARK 927      BINDING AFFINITY PREDICTED BY RF-SCORE:    0.00 PKD
ROOT
HETATM    1  C   UNL     1      -8.484   3.196  64.150  1.00  0.00    -0.089 C  
HETATM    2  N   UNL     1      -9.082   4.506  64.395  1.00  0.00    -0.152 NA 
HETATM    3  C   UNL     1     -10.155   4.444  65.402  1.00  0.00    -0.223 C  
HETATM    4  C   UNL     1      -9.673   4.186  66.839  1.00  0.00    -0.232 C  
HETATM    5  C   UNL     1      -8.607   5.185  67.273  1.00  0.00    -0.104 C  
HETATM    6  C   UNL     1      -8.077   5.503  64.806  1.00  0.00    -0.126 C  
HETATM    7  C   UNL     1      -7.507   5.307  66.224  1.00  0.00    -0.087 C  
ENDROOT
BRANCH   5   8
HETATM    8  C   UNL     1      -8.659   5.913  68.420  1.00  0.00    -0.113 A  
HETATM    9  C   UNL     1      -8.407   5.286  69.741  1.00  0.00    -0.098 A  
HETATM   10  C   UNL     1      -7.111   4.868  70.085  1.00  0.00    -0.050 A  
HETATM   11  C   UNL     1      -6.861   4.302  71.333  1.00  0.00    -0.031 A  
HETATM   12  C   UNL     1      -7.900   4.157  72.250  1.00  0.00    -0.082 A  
HETATM   13  C   UNL     1      -9.188   4.590  71.924  1.00  0.00    -0.178 A  
HETATM   14  C   UNL     1      -9.453   5.180  70.680  1.00  0.00    -0.229 A  
HETATM   15  C   UNL     1     -10.831   5.633  70.403  1.00  0.00    -0.326 A  
HETATM   16  C   UNL     1     -11.193   6.725  69.706  1.00  0.00    -0.368 A  
HETATM   17  C   UNL     1     -10.290   7.702  69.066  1.00  0.00    -0.220 A  
HETATM   18  C   UNL     1     -10.659   9.056  69.081  1.00  0.00    -0.219 A  
HETATM   19  C   UNL     1      -9.836  10.027  68.504  1.00  0.00    -0.168 A  
HETATM   20  C   UNL     1      -8.640   9.659  67.895  1.00  0.00    -0.122 A  
HETATM   21  C   UNL     1      -8.268   8.317  67.854  1.00  0.00    -0.128 A  
HETATM   22  C   UNL     1      -9.095   7.332  68.419  1.00  0.00    -0.135 A  
ENDBRANCH   5   8
TORSDOF 1
ENDMDL
MODEL      152
REMARK 921   NORMALIZED FREE ENERGY PREDICTED BY IDOCK:   -3.22 KCAL/MOL
REMARK 922        TOTAL FREE ENERGY PREDICTED BY IDOCK:   -4.25 KCAL/MOL
REMARK 923 INTER-LIGAND FREE ENERGY PREDICTED BY IDOCK:   -3.46 KCAL/MOL
REMARK 924 INTRA-LIGAND FREE ENERGY PREDICTED BY IDOCK:   -0.79 KCAL/MOL
REMARK 927      BINDING AFFINITY PREDICTED BY RF-SCORE:    0.00 PKD
ROOT
HETATM    1  C   UNL     1      -9.776   4.059  64.839  1.00  0.00    -0.193 C  
HETATM    2  N   UNL     1      -8.567   4.076  65.660  1.00  0.00    -0.109 NA 
HETATM    3  C   UNL     1      -8.174   5.445  66.036  1.00  0.00    -0.116 C  
HETATM    4  C   UNL     1      -9.103   6.123  67.056  1.00  0.00    -0.119 C  
HETATM    5  C   UNL     1      -9.297   5.273  68.306  1.00  0.00    -0.143 C  
HETATM    6  C   UNL     1      -8.713   3.254  66.874  1.00  0.00    -0.125 C  
HETATM    7  C   UNL     1      -9.655   3.836  67.945  1.00  0.00    -0.187 C  
ENDROOT
BRANCH   5   8
HETATM    8  C   UNL     1      -9.117   5.724  69.576  1.00  0.00    -0.143 A  
HETATM    9  C   UNL     1      -7.950   5.296  70.387  1.00  0.00    -0.091 A  
HETATM   10  C   UNL     1      -6.662   5.751  70.060  1.00  0.00    -0.051 A  
HETATM   11  C   UNL     1      -5.565   5.375  70.832  1.00  0.00    -0.009 A  
HETATM   12  C   UNL     1      -5.747   4.549  71.939  1.00  0.00    -0.012 A  
HETATM   13  C   UNL     1      -7.027   4.109  72.283  1.00  0.00    -0.050 A  
HETATM   14  C   UNL     1      -8.145   4.495  71.530  1.00  0.00    -0.100 A  
HETATM   15  C   UNL     1      -9.473   4.010  71.956  1.00  0.00    -0.198 A  
HETATM   16  C   UNL     1     -10.634   4.687  71.891  1.00  0.00    -0.108 A  
HETATM   17  C   UNL     1     -10.827   6.058  71.376  1.00  0.00    -0.328 A  
HETATM   18  C   UNL     1     -11.763   6.882  72.020  1.00  0.00    -0.336 A  
HETATM   19  C   UNL     1     -11.978   8.194  71.586  1.00  0.00    -0.340 A  
HETATM   20  C   UNL     1     -11.270   8.695  70.497  1.00  0.00    -0.266 A  
HETATM   21  C   UNL     1     -10.352   7.883  69.834  1.00  0.00    -0.224 A  
HETATM   22  C   UNL     1     -10.139   6.560  70.254  1.00  0.00    -0.208 A  
ENDBRANCH   5   8
TORSDOF 1
ENDMDL
MODEL      153
REMARK 921   NORMALIZED FREE ENERGY PREDICTED BY IDOCK:   -3.21 KCAL/MOL
REMARK 922        TOTAL FREE ENERGY PREDICTED BY IDOCK:   -4.24 KCAL/MOL
REMARK 923 INTER-LIGAND FREE ENERGY PREDICTED BY IDOCK:   -3.45 KCAL/MOL
REMARK 924 INTRA-LIGAND FREE ENERGY PREDICTED BY IDOCK:   -0.79 KCAL/MOL
REMARK 927      BINDING AFFINITY PREDICTED BY RF-SCORE:    0.00 PKD
ROOT
HETATM    1  C   UNL     1     -10.703  12.033  66.693  1.00  0.00    -0.245 C  
HETATM    2  N   UNL     1      -9.776  10.973  66.301  1.00  0.00    -0.200 NA 
HETATM    3  C   UNL     1      -8.546  10.987  67.111  1.00  0.00    -0.136 C  
HETATM    4  C   UNL     1      -8.734  10.540  68.571  1.00  0.00    -0.140 C  
HETATM    5  C   UNL     1      -9.410   9.179  68.669  1.00  0.00    -0.135 C  
HETATM    6  C   UNL     1     -10.399   9.640  66.372  1.00  0.00    -0.176 C  
HETATM    7  C   UNL     1     -10.660   9.119  67.799  1.00  0.00    -0.289 C  
ENDROOT
BRANCH   5   8
HETATM    8  C   UNL     1      -8.929   8.134  69.395  1.00  0.00    -0.147 A  
HETATM    9  C   UNL     1      -9.019   8.121  70.876  1.00  0.00    -0.163 A  
HETATM   10  C   UNL     1     -10.266   7.960  71.503  1.00  0.00    -0.232 A  
HETATM   11  C   UNL     1     -10.356   7.921  72.893  1.00  0.00    -0.413 A  
HETATM   12  C   UNL     1      -9.203   8.032  73.666  1.00  0.00    -0.269 A  
HETATM   13  C   UNL     1      -7.957   8.170  73.051  1.00  0.00    -0.220 A  
HETATM   14  C   UNL     1      -7.845   8.192  71.653  1.00  0.00    -0.130 A  
HETATM   15  C   UNL     1      -6.498   8.322  71.063  1.00  0.00    -0.039 A  
HETATM   16  C   UNL     1      -6.052   7.732  69.939  1.00  0.00    -0.026 A  
HETATM   17  C   UNL     1      -6.816   6.831  69.054  1.00  0.00    -0.069 A  
HETATM   18  C   UNL     1      -6.141   5.752  68.463  1.00  0.00    -0.025 A  
HETATM   19  C   UNL     1      -6.817   4.858  67.627  1.00  0.00    -0.060 A  
HETATM   20  C   UNL     1      -8.172   5.035  67.363  1.00  0.00    -0.106 A  
HETATM   21  C   UNL     1      -8.853   6.113  67.926  1.00  0.00    -0.111 A  
HETATM   22  C   UNL     1      -8.179   7.024  68.755  1.00  0.00    -0.122 A  
ENDBRANCH   5   8
TORSDOF 1
ENDMDL
MODEL      154
REMARK 921   NORMALIZED FREE ENERGY PREDICTED BY IDOCK:   -3.21 KCAL/MOL
REMARK 922        TOTAL FREE ENERGY PREDICTED BY IDOCK:   -4.24 KCAL/MOL
REMARK 923 INTER-LIGAND FREE ENERGY PREDICTED BY IDOCK:   -3.40 KCAL/MOL
REMARK 924 INTRA-LIGAND FREE ENERGY PREDICTED BY IDOCK:   -0.83 KCAL/MOL
REMARK 927      BINDING AFFINITY PREDICTED BY RF-SCORE:    0.00 PKD
ROOT
HETATM    1  C   UNL     1      -9.164   4.904  64.913  1.00  0.00    -0.077 C  
HETATM    2  N   UNL     1      -8.663   4.990  66.283  1.00  0.00    -0.115 NA 
HETATM    3  C   UNL     1      -7.555   5.953  66.406  1.00  0.00    -0.091 C  
HETATM    4  C   UNL     1      -7.968   7.428  66.265  1.00  0.00    -0.109 C  
HETATM    5  C   UNL     1      -9.094   7.799  67.223  1.00  0.00    -0.147 C  
HETATM    6  C   UNL     1      -9.727   5.336  67.240  1.00  0.00    -0.149 C  
HETATM    7  C   UNL     1     -10.234   6.789  67.153  1.00  0.00    -0.291 C  
ENDROOT
BRANCH   5   8
HETATM    8  C   UNL     1      -9.061   8.863  68.069  1.00  0.00    -0.143 A  
HETATM    9  C   UNL     1      -9.421  10.226  67.606  1.00  0.00    -0.169 A  
HETATM   10  C   UNL     1     -10.756  10.534  67.298  1.00  0.00    -0.333 A  
HETATM   11  C   UNL     1     -11.106  11.819  66.887  1.00  0.00    -0.361 A  
HETATM   12  C   UNL     1     -10.129  12.806  66.789  1.00  0.00    -0.239 A  
HETATM   13  C   UNL     1      -8.802  12.514  67.115  1.00  0.00    -0.202 A  
HETATM   14  C   UNL     1      -8.435  11.232  67.549  1.00  0.00    -0.131 A  
HETATM   15  C   UNL     1      -7.020  10.992  67.895  1.00  0.00    -0.073 A  
HETATM   16  C   UNL     1      -6.557  10.205  68.883  1.00  0.00    -0.049 A  
HETATM   17  C   UNL     1      -7.365   9.411  69.830  1.00  0.00    -0.088 A  
HETATM   18  C   UNL     1      -6.918   9.303  71.156  1.00  0.00    -0.064 A  
HETATM   19  C   UNL     1      -7.649   8.577  72.100  1.00  0.00    -0.122 A  
HETATM   20  C   UNL     1      -8.831   7.940  71.730  1.00  0.00    -0.163 A  
HETATM   21  C   UNL     1      -9.279   8.020  70.413  1.00  0.00    -0.155 A  
HETATM   22  C   UNL     1      -8.543   8.736  69.454  1.00  0.00    -0.133 A  
ENDBRANCH   5   8
TORSDOF 1
ENDMDL
MODEL      155
REMARK 921   NORMALIZED FREE ENERGY PREDICTED BY IDOCK:   -3.19 KCAL/MOL
REMARK 922        TOTAL FREE ENERGY PREDICTED BY IDOCK:   -4.22 KCAL/MOL
REMARK 923 INTER-LIGAND FREE ENERGY PREDICTED BY IDOCK:   -3.51 KCAL/MOL
REMARK 924 INTRA-LIGAND FREE ENERGY PREDICTED BY IDOCK:   -0.71 KCAL/MOL
REMARK 927      BINDING AFFINITY PREDICTED BY RF-SCORE:    0.00 PKD
ROOT
HETATM    1  C   UNL     1     -11.711  14.657  67.338  1.00  0.00    -0.390 C  
HETATM    2  N   UNL     1     -10.996  14.218  68.534  1.00  0.00    -0.243 NA 
HETATM    3  C   UNL     1     -11.297  12.817  68.874  1.00  0.00    -0.296 C  
HETATM    4  C   UNL     1     -10.701  11.779  67.909  1.00  0.00    -0.241 C  
HETATM    5  C   UNL     1      -9.200  11.962  67.729  1.00  0.00    -0.184 C  
HETATM    6  C   UNL     1      -9.539  14.391  68.401  1.00  0.00    -0.219 C  
HETATM    7  C   UNL     1      -8.853  13.415  67.425  1.00  0.00    -0.214 C  
ENDROOT
BRANCH   5   8
HETATM    8  C   UNL     1      -8.283  10.968  67.876  1.00  0.00    -0.119 A  
HETATM    9  C   UNL     1      -8.305   9.767  67.004  1.00  0.00    -0.117 A  
HETATM   10  C   UNL     1      -7.947   9.874  65.650  1.00  0.00    -0.130 A  
HETATM   11  C   UNL     1      -7.940   8.746  64.832  1.00  0.00    -0.135 A  
HETATM   12  C   UNL     1      -8.281   7.504  65.361  1.00  0.00    -0.136 A  
HETATM   13  C   UNL     1      -8.617   7.384  66.712  1.00  0.00    -0.127 A  
HETATM   14  C   UNL     1      -8.610   8.505  67.554  1.00  0.00    -0.128 A  
HETATM   15  C   UNL     1      -8.957   8.311  68.976  1.00  0.00    -0.147 A  
HETATM   16  C   UNL     1      -8.417   8.949  70.030  1.00  0.00    -0.141 A  
HETATM   17  C   UNL     1      -7.364   9.984  69.989  1.00  0.00    -0.172 A  
HETATM   18  C   UNL     1      -6.402   9.993  71.011  1.00  0.00     0.027 A  
HETATM   19  C   UNL     1      -5.374  10.940  71.016  1.00  0.00    -0.099 A  
HETATM   20  C   UNL     1      -5.299  11.896  70.007  1.00  0.00    -0.095 A  
HETATM   21  C   UNL     1      -6.257  11.914  68.995  1.00  0.00    -0.077 A  
HETATM   22  C   UNL     1      -7.302  10.976  68.990  1.00  0.00    -0.123 A  
ENDBRANCH   5   8
TORSDOF 1
ENDMDL
MODEL      156
REMARK 921   NORMALIZED FREE ENERGY PREDICTED BY IDOCK:   -3.19 KCAL/MOL
REMARK 922        TOTAL FREE ENERGY PREDICTED BY IDOCK:   -4.21 KCAL/MOL
REMARK 923 INTER-LIGAND FREE ENERGY PREDICTED BY IDOCK:   -3.41 KCAL/MOL
REMARK 924 INTRA-LIGAND FREE ENERGY PREDICTED BY IDOCK:   -0.80 KCAL/MOL
REMARK 927      BINDING AFFINITY PREDICTED BY RF-SCORE:    0.00 PKD
ROOT
HETATM    1  C   UNL     1     -11.620   8.209  70.813  1.00  0.00    -0.238 C  
HETATM    2  N   UNL     1     -10.885   9.472  70.836  1.00  0.00    -0.311 NA 
HETATM    3  C   UNL     1      -9.428   9.264  70.792  1.00  0.00    -0.271 C  
HETATM    4  C   UNL     1      -8.892   8.761  69.441  1.00  0.00    -0.143 C  
HETATM    5  C   UNL     1      -9.329   9.652  68.285  1.00  0.00    -0.138 C  
HETATM    6  C   UNL     1     -11.290  10.366  69.738  1.00  0.00    -0.289 C  
HETATM    7  C   UNL     1     -10.828   9.926  68.335  1.00  0.00    -0.263 C  
ENDROOT
BRANCH   5   8
HETATM    8  C   UNL     1      -8.482  10.180  67.361  1.00  0.00    -0.122 A  
HETATM    9  C   UNL     1      -7.935   9.353  66.257  1.00  0.00    -0.111 A  
HETATM   10  C   UNL     1      -8.776   8.924  65.217  1.00  0.00    -0.220 A  
HETATM   11  C   UNL     1      -8.265   8.169  64.164  1.00  0.00    -0.083 A  
HETATM   12  C   UNL     1      -6.911   7.844  64.137  1.00  0.00    -0.061 A  
HETATM   13  C   UNL     1      -6.063   8.284  65.156  1.00  0.00    -0.045 A  
HETATM   14  C   UNL     1      -6.557   9.062  66.213  1.00  0.00    -0.066 A  
HETATM   15  C   UNL     1      -5.607   9.512  67.250  1.00  0.00    -0.040 A  
HETATM   16  C   UNL     1      -5.621  10.693  67.896  1.00  0.00    -0.043 A  
HETATM   17  C   UNL     1      -6.593  11.789  67.707  1.00  0.00    -0.075 A  
HETATM   18  C   UNL     1      -6.125  13.110  67.784  1.00  0.00    -0.154 A  
HETATM   19  C   UNL     1      -6.996  14.187  67.599  1.00  0.00    -0.200 A  
HETATM   20  C   UNL     1      -8.346  13.960  67.346  1.00  0.00    -0.208 A  
HETATM   21  C   UNL     1      -8.831  12.655  67.287  1.00  0.00    -0.196 A  
HETATM   22  C   UNL     1      -7.966  11.566  67.485  1.00  0.00    -0.133 A  
ENDBRANCH   5   8
TORSDOF 1
ENDMDL
MODEL      157
REMARK 921   NORMALIZED FREE ENERGY PREDICTED BY IDOCK:   -3.18 KCAL/MOL
REMARK 922        TOTAL FREE ENERGY PREDICTED BY IDOCK:   -4.21 KCAL/MOL
REMARK 923 INTER-LIGAND FREE ENERGY PREDICTED BY IDOCK:   -3.75 KCAL/MOL
REMARK 924 INTRA-LIGAND FREE ENERGY PREDICTED BY IDOCK:   -0.46 KCAL/MOL
REMARK 927      BINDING AFFINITY PREDICTED BY RF-SCORE:    0.00 PKD
ROOT
HETATM    1  C   UNL     1      -7.473  10.449  62.398  1.00  0.00    -0.143 C  
HETATM    2  N   UNL     1      -8.632   9.621  62.726  1.00  0.00    -0.186 NA 
HETATM    3  C   UNL     1      -8.263   8.209  62.924  1.00  0.00    -0.120 C  
HETATM    4  C   UNL     1      -7.465   7.928  64.207  1.00  0.00    -0.103 C  
HETATM    5  C   UNL     1      -8.169   8.464  65.448  1.00  0.00    -0.144 C  
HETATM    6  C   UNL     1      -9.347  10.116  63.915  1.00  0.00    -0.287 C  
HETATM    7  C   UNL     1      -8.608   9.910  65.251  1.00  0.00    -0.168 C  
ENDROOT
BRANCH   5   8
HETATM    8  C   UNL     1      -8.423   7.728  66.563  1.00  0.00    -0.132 A  
HETATM    9  C   UNL     1      -8.335   6.247  66.544  1.00  0.00    -0.114 A  
HETATM   10  C   UNL     1      -7.084   5.618  66.435  1.00  0.00    -0.072 A  
HETATM   11  C   UNL     1      -6.991   4.228  66.443  1.00  0.00    -0.059 A  
HETATM   12  C   UNL     1      -8.143   3.457  66.568  1.00  0.00    -0.091 A  
HETATM   13  C   UNL     1      -9.390   4.074  66.699  1.00  0.00    -0.197 A  
HETATM   14  C   UNL     1      -9.500   5.472  66.714  1.00  0.00    -0.147 A  
HETATM   15  C   UNL     1     -10.843   6.063  66.873  1.00  0.00    -0.396 A  
HETATM   16  C   UNL     1     -11.153   7.182  67.554  1.00  0.00    -0.170 A  
HETATM   17  C   UNL     1     -10.215   8.059  68.283  1.00  0.00    -0.243 A  
HETATM   18  C   UNL     1     -10.648   8.640  69.484  1.00  0.00    -0.218 A  
HETATM   19  C   UNL     1      -9.799   9.467  70.224  1.00  0.00    -0.313 A  
HETATM   20  C   UNL     1      -8.510   9.733  69.770  1.00  0.00    -0.206 A  
HETATM   21  C   UNL     1      -8.071   9.180  68.569  1.00  0.00    -0.103 A  
HETATM   22  C   UNL     1      -8.922   8.359  67.811  1.00  0.00    -0.140 A  
ENDBRANCH   5   8
TORSDOF 1
ENDMDL
MODEL      158
REMARK 921   NORMALIZED FREE ENERGY PREDICTED BY IDOCK:   -3.15 KCAL/MOL
REMARK 922        TOTAL FREE ENERGY PREDICTED BY IDOCK:   -4.18 KCAL/MOL
REMARK 923 INTER-LIGAND FREE ENERGY PREDICTED BY IDOCK:   -3.33 KCAL/MOL
REMARK 924 INTRA-LIGAND FREE ENERGY PREDICTED BY IDOCK:   -0.84 KCAL/MOL
REMARK 927      BINDING AFFINITY PREDICTED BY RF-SCORE:    0.00 PKD
ROOT
HETATM    1  C   UNL     1      -8.347   4.313  64.627  1.00  0.00    -0.106 C  
HETATM    2  N   UNL     1      -9.090   5.323  65.379  1.00  0.00    -0.148 NA 
HETATM    3  C   UNL     1     -10.185   4.731  66.166  1.00  0.00    -0.281 C  
HETATM    4  C   UNL     1      -9.728   3.896  67.374  1.00  0.00    -0.173 C  
HETATM    5  C   UNL     1      -8.791   4.677  68.287  1.00  0.00    -0.122 C  
HETATM    6  C   UNL     1      -8.213   6.107  66.265  1.00  0.00    -0.116 C  
HETATM    7  C   UNL     1      -7.675   5.344  67.491  1.00  0.00    -0.092 C  
ENDROOT
BRANCH   5   8
HETATM    8  C   UNL     1      -8.960   4.808  69.630  1.00  0.00    -0.135 A  
HETATM    9  C   UNL     1      -9.700   5.960  70.202  1.00  0.00    -0.211 A  
HETATM   10  C   UNL     1     -11.091   6.057  70.034  1.00  0.00    -0.451 A  
HETATM   11  C   UNL     1     -11.795   7.122  70.591  1.00  0.00    -0.334 A  
HETATM   12  C   UNL     1     -11.119   8.093  71.326  1.00  0.00    -0.287 A  
HETATM   13  C   UNL     1      -9.739   7.992  71.517  1.00  0.00    -0.213 A  
HETATM   14  C   UNL     1      -9.017   6.917  70.981  1.00  0.00    -0.151 A  
HETATM   15  C   UNL     1      -7.563   6.858  71.233  1.00  0.00    -0.087 A  
HETATM   16  C   UNL     1      -6.828   5.751  71.445  1.00  0.00    -0.063 A  
HETATM   17  C   UNL     1      -7.318   4.359  71.468  1.00  0.00    -0.056 A  
HETATM   18  C   UNL     1      -6.744   3.469  72.389  1.00  0.00    -0.022 A  
HETATM   19  C   UNL     1      -7.178   2.142  72.465  1.00  0.00    -0.031 A  
HETATM   20  C   UNL     1      -8.182   1.684  71.616  1.00  0.00    -0.044 A  
HETATM   21  C   UNL     1      -8.748   2.550  70.682  1.00  0.00    -0.117 A  
HETATM   22  C   UNL     1      -8.309   3.881  70.588  1.00  0.00    -0.090 A  
ENDBRANCH   5   8
TORSDOF 1
ENDMDL
MODEL      159
REMARK 921   NORMALIZED FREE ENERGY PREDICTED BY IDOCK:   -3.13 KCAL/MOL
REMARK 922        TOTAL FREE ENERGY PREDICTED BY IDOCK:   -4.15 KCAL/MOL
REMARK 923 INTER-LIGAND FREE ENERGY PREDICTED BY IDOCK:   -3.32 KCAL/MOL
REMARK 924 INTRA-LIGAND FREE ENERGY PREDICTED BY IDOCK:   -0.83 KCAL/MOL
REMARK 927      BINDING AFFINITY PREDICTED BY RF-SCORE:    0.00 PKD
ROOT
HETATM    1  C   UNL     1      -5.178   9.601  67.597  1.00  0.00    -0.036 C  
HETATM    2  N   UNL     1      -5.448   8.177  67.780  1.00  0.00    -0.033 NA 
HETATM    3  C   UNL     1      -5.516   7.806  69.204  1.00  0.00    -0.022 C  
HETATM    4  C   UNL     1      -6.759   8.327  69.944  1.00  0.00    -0.043 C  
HETATM    5  C   UNL     1      -8.051   7.935  69.238  1.00  0.00    -0.126 C  
HETATM    6  C   UNL     1      -6.685   7.757  67.100  1.00  0.00    -0.068 C  
HETATM    7  C   UNL     1      -7.988   8.261  67.751  1.00  0.00    -0.122 C  
ENDROOT
BRANCH   5   8
HETATM    8  C   UNL     1      -9.101   7.322  69.847  1.00  0.00    -0.141 A  
HETATM    9  C   UNL     1     -10.118   8.101  70.597  1.00  0.00    -0.209 A  
HETATM   10  C   UNL     1     -11.021   8.926  69.907  1.00  0.00    -0.190 A  
HETATM   11  C   UNL     1     -11.994   9.641  70.601  1.00  0.00    -0.304 A  
HETATM   12  C   UNL     1     -12.079   9.530  71.987  1.00  0.00    -0.332 A  
HETATM   13  C   UNL     1     -11.199   8.695  72.679  1.00  0.00    -0.098 A  
HETATM   14  C   UNL     1     -10.227   7.953  71.994  1.00  0.00    -0.270 A  
HETATM   15  C   UNL     1      -9.338   7.074  72.781  1.00  0.00    -0.158 A  
HETATM   16  C   UNL     1      -8.864   5.871  72.410  1.00  0.00    -0.134 A  
HETATM   17  C   UNL     1      -9.129   5.174  71.136  1.00  0.00    -0.174 A  
HETATM   18  C   UNL     1      -9.273   3.778  71.161  1.00  0.00    -0.201 A  
HETATM   19  C   UNL     1      -9.539   3.066  69.988  1.00  0.00    -0.143 A  
HETATM   20  C   UNL     1      -9.654   3.737  68.773  1.00  0.00    -0.172 A  
HETATM   21  C   UNL     1      -9.493   5.120  68.727  1.00  0.00    -0.181 A  
HETATM   22  C   UNL     1      -9.212   5.843  69.899  1.00  0.00    -0.163 A  
ENDBRANCH   5   8
TORSDOF 1
ENDMDL
MODEL      160
REMARK 921   NORMALIZED FREE ENERGY PREDICTED BY IDOCK:   -3.12 KCAL/MOL
REMARK 922        TOTAL FREE ENERGY PREDICTED BY IDOCK:   -4.14 KCAL/MOL
REMARK 923 INTER-LIGAND FREE ENERGY PREDICTED BY IDOCK:   -3.62 KCAL/MOL
REMARK 924 INTRA-LIGAND FREE ENERGY PREDICTED BY IDOCK:   -0.52 KCAL/MOL
REMARK 927      BINDING AFFINITY PREDICTED BY RF-SCORE:    0.00 PKD
ROOT
HETATM    1  C   UNL     1      -7.525  10.083  64.523  1.00  0.00    -0.142 C  
HETATM    2  N   UNL     1      -8.568   9.061  64.570  1.00  0.00    -0.176 NA 
HETATM    3  C   UNL     1      -8.024   7.731  64.896  1.00  0.00    -0.139 C  
HETATM    4  C   UNL     1      -7.543   7.573  66.348  1.00  0.00    -0.088 C  
HETATM    5  C   UNL     1      -8.622   7.957  67.352  1.00  0.00    -0.125 C  
HETATM    6  C   UNL     1      -9.637   9.404  65.524  1.00  0.00    -0.258 C  
HETATM    7  C   UNL     1      -9.239   9.308  67.009  1.00  0.00    -0.169 C  
ENDROOT
BRANCH   5   8
HETATM    8  C   UNL     1      -9.021   7.171  68.388  1.00  0.00    -0.125 A  
HETATM    9  C   UNL     1      -9.505   7.763  69.660  1.00  0.00    -0.156 A  
HETATM   10  C   UNL     1     -10.746   8.419  69.702  1.00  0.00    -0.201 A  
HETATM   11  C   UNL     1     -11.220   8.954  70.898  1.00  0.00    -0.334 A  
HETATM   12  C   UNL     1     -10.464   8.830  72.061  1.00  0.00    -0.414 A  
HETATM   13  C   UNL     1      -9.239   8.159  72.033  1.00  0.00    -0.253 A  
HETATM   14  C   UNL     1      -8.756   7.597  70.842  1.00  0.00    -0.138 A  
HETATM   15  C   UNL     1      -7.463   6.886  70.881  1.00  0.00    -0.083 A  
HETATM   16  C   UNL     1      -7.131   5.782  70.186  1.00  0.00    -0.067 A  
HETATM   17  C   UNL     1      -7.988   5.050  69.233  1.00  0.00    -0.079 A  
HETATM   18  C   UNL     1      -7.893   3.651  69.194  1.00  0.00    -0.052 A  
HETATM   19  C   UNL     1      -8.690   2.904  68.322  1.00  0.00    -0.139 A  
HETATM   20  C   UNL     1      -9.585   3.545  67.470  1.00  0.00    -0.177 A  
HETATM   21  C   UNL     1      -9.678   4.936  67.481  1.00  0.00    -0.198 A  
HETATM   22  C   UNL     1      -8.871   5.695  68.344  1.00  0.00    -0.108 A  
ENDBRANCH   5   8
TORSDOF 1
ENDMDL
MODEL      161
REMARK 921   NORMALIZED FREE ENERGY PREDICTED BY IDOCK:   -3.06 KCAL/MOL
REMARK 922        TOTAL FREE ENERGY PREDICTED BY IDOCK:   -4.08 KCAL/MOL
REMARK 923 INTER-LIGAND FREE ENERGY PREDICTED BY IDOCK:   -3.49 KCAL/MOL
REMARK 924 INTRA-LIGAND FREE ENERGY PREDICTED BY IDOCK:   -0.59 KCAL/MOL
REMARK 927      BINDING AFFINITY PREDICTED BY RF-SCORE:    0.00 PKD
ROOT
HETATM    1  C   UNL     1      -5.262   9.817  69.400  1.00  0.00    -0.035 C  
HETATM    2  N   UNL     1      -6.177  10.033  70.519  1.00  0.00    -0.097 NA 
HETATM    3  C   UNL     1      -7.578  10.130  70.077  1.00  0.00    -0.152 C  
HETATM    4  C   UNL     1      -8.190   8.807  69.589  1.00  0.00    -0.113 C  
HETATM    5  C   UNL     1      -8.043   7.694  70.619  1.00  0.00    -0.108 C  
HETATM    6  C   UNL     1      -6.054   8.981  71.544  1.00  0.00    -0.070 C  
HETATM    7  C   UNL     1      -6.611   7.604  71.133  1.00  0.00    -0.038 C  
ENDROOT
BRANCH   5   8
HETATM    8  C   UNL     1      -9.069   6.920  71.064  1.00  0.00    -0.155 A  
HETATM    9  C   UNL     1      -8.915   5.452  71.214  1.00  0.00    -0.155 A  
HETATM   10  C   UNL     1      -8.102   4.930  72.233  1.00  0.00    -0.111 A  
HETATM   11  C   UNL     1      -7.973   3.553  72.397  1.00  0.00    -0.068 A  
HETATM   12  C   UNL     1      -8.660   2.687  71.551  1.00  0.00    -0.098 A  
HETATM   13  C   UNL     1      -9.489   3.196  70.548  1.00  0.00    -0.236 A  
HETATM   14  C   UNL     1      -9.646   4.580  70.382  1.00  0.00    -0.270 A  
HETATM   15  C   UNL     1     -10.549   5.056  69.315  1.00  0.00     0.044 A  
HETATM   16  C   UNL     1     -11.355   6.132  69.365  1.00  0.00    -0.401 A  
HETATM   17  C   UNL     1     -11.505   7.069  70.496  1.00  0.00    -0.363 A  
HETATM   18  C   UNL     1     -12.780   7.591  70.761  1.00  0.00     0.000 A  
HETATM   19  C   UNL     1     -12.985   8.471  71.827  1.00  0.00    -0.380 A  
HETATM   20  C   UNL     1     -11.917   8.850  72.636  1.00  0.00    -0.060 A  
HETATM   21  C   UNL     1     -10.640   8.358  72.374  1.00  0.00    -0.405 A  
HETATM   22  C   UNL     1     -10.422   7.484  71.297  1.00  0.00    -0.220 A  
ENDBRANCH   5   8
TORSDOF 1
ENDMDL
MODEL      162
REMARK 921   NORMALIZED FREE ENERGY PREDICTED BY IDOCK:   -3.02 KCAL/MOL
REMARK 922        TOTAL FREE ENERGY PREDICTED BY IDOCK:   -4.03 KCAL/MOL
REMARK 923 INTER-LIGAND FREE ENERGY PREDICTED BY IDOCK:   -3.22 KCAL/MOL
REMARK 924 INTRA-LIGAND FREE ENERGY PREDICTED BY IDOCK:   -0.81 KCAL/MOL
REMARK 927      BINDING AFFINITY PREDICTED BY RF-SCORE:    0.00 PKD
ROOT
HETATM    1  C   UNL     1      -9.156   3.390  71.277  1.00  0.00    -0.107 C  
HETATM    2  N   UNL     1      -8.958   4.802  70.958  1.00  0.00    -0.123 NA 
HETATM    3  C   UNL     1      -7.856   5.004  70.001  1.00  0.00    -0.070 C  
HETATM    4  C   UNL     1      -8.155   4.529  68.569  1.00  0.00    -0.082 C  
HETATM    5  C   UNL     1      -9.440   5.137  68.022  1.00  0.00    -0.156 C  
HETATM    6  C   UNL     1     -10.185   5.428  70.436  1.00  0.00    -0.262 C  
HETATM    7  C   UNL     1     -10.587   4.988  69.015  1.00  0.00     0.061 C  
ENDROOT
BRANCH   5   8
HETATM    8  C   UNL     1      -9.536   5.779  66.827  1.00  0.00    -0.161 A  
HETATM    9  C   UNL     1      -9.614   5.022  65.552  1.00  0.00    -0.105 A  
HETATM   10  C   UNL     1     -10.773   4.294  65.236  1.00  0.00    -0.118 A  
HETATM   11  C   UNL     1     -10.864   3.603  64.030  1.00  0.00    -0.185 A  
HETATM   12  C   UNL     1      -9.803   3.641  63.128  1.00  0.00    -0.147 A  
HETATM   13  C   UNL     1      -8.656   4.380  63.424  1.00  0.00    -0.114 A  
HETATM   14  C   UNL     1      -8.556   5.098  64.624  1.00  0.00    -0.142 A  
HETATM   15  C   UNL     1      -7.324   5.875  64.872  1.00  0.00    -0.073 A  
HETATM   16  C   UNL     1      -7.236   7.066  65.491  1.00  0.00    -0.070 A  
HETATM   17  C   UNL     1      -8.351   7.848  66.060  1.00  0.00    -0.128 A  
HETATM   18  C   UNL     1      -8.303   9.247  65.951  1.00  0.00    -0.122 A  
HETATM   19  C   UNL     1      -9.338  10.038  66.458  1.00  0.00    -0.201 A  
HETATM   20  C   UNL     1     -10.428   9.445  67.089  1.00  0.00    -0.315 A  
HETATM   21  C   UNL     1     -10.481   8.059  67.223  1.00  0.00    -0.384 A  
HETATM   22  C   UNL     1      -9.440   7.256  66.730  1.00  0.00    -0.218 A  
ENDBRANCH   5   8
TORSDOF 1
ENDMDL
MODEL      163
REMARK 921   NORMALIZED FREE ENERGY PREDICTED BY IDOCK:   -3.00 KCAL/MOL
REMARK 922        TOTAL FREE ENERGY PREDICTED BY IDOCK:   -4.02 KCAL/MOL
REMARK 923 INTER-LIGAND FREE ENERGY PREDICTED BY IDOCK:   -3.26 KCAL/MOL
REMARK 924 INTRA-LIGAND FREE ENERGY PREDICTED BY IDOCK:   -0.75 KCAL/MOL
REMARK 927      BINDING AFFINITY PREDICTED BY RF-SCORE:    0.00 PKD
ROOT
HETATM    1  C   UNL     1      -8.554   3.292  65.243  1.00  0.00    -0.107 C  
HETATM    2  N   UNL     1      -9.195   4.361  64.481  1.00  0.00    -0.154 NA 
HETATM    3  C   UNL     1     -10.100   5.170  65.315  1.00  0.00     0.262 C  
HETATM    4  C   UNL     1      -9.393   6.070  66.342  1.00  0.00    -0.171 C  
HETATM    5  C   UNL     1      -8.344   6.963  65.693  1.00  0.00    -0.147 C  
HETATM    6  C   UNL     1      -8.209   5.240  63.827  1.00  0.00    -0.123 C  
HETATM    7  C   UNL     1      -7.423   6.160  64.782  1.00  0.00    -0.084 C  
ENDROOT
BRANCH   5   8
HETATM    8  C   UNL     1      -8.273   8.311  65.861  1.00  0.00    -0.119 A  
HETATM    9  C   UNL     1      -7.896   8.904  67.168  1.00  0.00    -0.096 A  
HETATM   10  C   UNL     1      -6.576   8.794  67.635  1.00  0.00    -0.062 A  
HETATM   11  C   UNL     1      -6.208   9.371  68.849  1.00  0.00    -0.043 A  
HETATM   12  C   UNL     1      -7.151  10.068  69.599  1.00  0.00    -0.104 A  
HETATM   13  C   UNL     1      -8.461  10.202  69.131  1.00  0.00    -0.157 A  
HETATM   14  C   UNL     1      -8.843   9.645  67.903  1.00  0.00    -0.119 A  
HETATM   15  C   UNL     1     -10.238   9.836  67.455  1.00  0.00    -0.271 A  
HETATM   16  C   UNL     1     -10.657  10.027  66.191  1.00  0.00    -0.071 A  
HETATM   17  C   UNL     1      -9.812  10.082  64.981  1.00  0.00    -0.374 A  
HETATM   18  C   UNL     1     -10.165  10.985  63.967  1.00  0.00    -0.420 A  
HETATM   19  C   UNL     1      -9.394  11.091  62.805  1.00  0.00    -0.372 A  
HETATM   20  C   UNL     1      -8.269  10.290  62.637  1.00  0.00    -0.170 A  
HETATM   21  C   UNL     1      -7.916   9.373  63.625  1.00  0.00    -0.142 A  
HETATM   22  C   UNL     1      -8.692   9.249  64.789  1.00  0.00    -0.220 A  
ENDBRANCH   5   8
TORSDOF 1
ENDMDL
MODEL      164
REMARK 921   NORMALIZED FREE ENERGY PREDICTED BY IDOCK:   -2.97 KCAL/MOL
REMARK 922        TOTAL FREE ENERGY PREDICTED BY IDOCK:   -3.99 KCAL/MOL
REMARK 923 INTER-LIGAND FREE ENERGY PREDICTED BY IDOCK:   -3.20 KCAL/MOL
REMARK 924 INTRA-LIGAND FREE ENERGY PREDICTED BY IDOCK:   -0.79 KCAL/MOL
REMARK 927      BINDING AFFINITY PREDICTED BY RF-SCORE:    0.00 PKD
ROOT
HETATM    1  C   UNL     1      -6.944  11.699  67.397  1.00  0.00    -0.117 C  
HETATM    2  N   UNL     1      -6.192  10.503  67.770  1.00  0.00    -0.055 NA 
HETATM    3  C   UNL     1      -5.902  10.460  69.213  1.00  0.00    -0.037 C  
HETATM    4  C   UNL     1      -7.126  10.197  70.106  1.00  0.00    -0.162 C  
HETATM    5  C   UNL     1      -7.881   8.941  69.687  1.00  0.00    -0.090 C  
HETATM    6  C   UNL     1      -6.886   9.267  67.369  1.00  0.00    -0.077 C  
HETATM    7  C   UNL     1      -8.150   8.935  68.187  1.00  0.00    -0.106 C  
ENDROOT
BRANCH   5   8
HETATM    8  C   UNL     1      -8.219   7.932  70.533  1.00  0.00    -0.118 A  
HETATM    9  C   UNL     1      -9.614   7.768  71.015  1.00  0.00    -0.170 A  
HETATM   10  C   UNL     1     -10.618   7.342  70.130  1.00  0.00    -0.240 A  
HETATM   11  C   UNL     1     -11.924   7.161  70.581  1.00  0.00    -0.312 A  
HETATM   12  C   UNL     1     -12.234   7.395  71.918  1.00  0.00    -0.344 A  
HETATM   13  C   UNL     1     -11.237   7.798  72.810  1.00  0.00    -0.456 A  
HETATM   14  C   UNL     1      -9.914   7.966  72.378  1.00  0.00    -0.291 A  
HETATM   15  C   UNL     1      -8.902   8.376  73.372  1.00  0.00    -0.169 A  
HETATM   16  C   UNL     1      -7.619   7.975  73.426  1.00  0.00    -0.201 A  
HETATM   17  C   UNL     1      -6.948   7.042  72.499  1.00  0.00    -0.065 A  
HETATM   18  C   UNL     1      -5.999   6.152  73.026  1.00  0.00    -0.046 A  
HETATM   19  C   UNL     1      -5.342   5.236  72.199  1.00  0.00    -0.012 A  
HETATM   20  C   UNL     1      -5.616   5.205  70.834  1.00  0.00    -0.012 A  
HETATM   21  C   UNL     1      -6.540   6.095  70.292  1.00  0.00    -0.045 A  
HETATM   22  C   UNL     1      -7.195   7.028  71.112  1.00  0.00    -0.075 A  
ENDBRANCH   5   8
TORSDOF 1
ENDMDL
MODEL      165
REMARK 921   NORMALIZED FREE ENERGY PREDICTED BY IDOCK:   -2.96 KCAL/MOL
REMARK 922        TOTAL FREE ENERGY PREDICTED BY IDOCK:   -3.98 KCAL/MOL
REMARK 923 INTER-LIGAND FREE ENERGY PREDICTED BY IDOCK:   -3.45 KCAL/MOL
REMARK 924 INTRA-LIGAND FREE ENERGY PREDICTED BY IDOCK:   -0.53 KCAL/MOL
REMARK 927      BINDING AFFINITY PREDICTED BY RF-SCORE:    0.00 PKD
ROOT
HETATM    1  C   UNL     1      -7.842  13.411  68.747  1.00  0.00    -0.009 C  
HETATM    2  N   UNL     1      -8.161  12.521  67.633  1.00  0.00    -0.158 NA 
HETATM    3  C   UNL     1      -7.099  11.528  67.397  1.00  0.00    -0.119 C  
HETATM    4  C   UNL     1      -6.986  10.441  68.477  1.00  0.00    -0.062 C  
HETATM    5  C   UNL     1      -8.315   9.737  68.721  1.00  0.00    -0.113 C  
HETATM    6  C   UNL     1      -9.448  11.831  67.828  1.00  0.00    -0.181 C  
HETATM    7  C   UNL     1      -9.443  10.742  68.919  1.00  0.00    -0.190 C  
ENDROOT
BRANCH   5   8
HETATM    8  C   UNL     1      -8.482   8.387  68.709  1.00  0.00    -0.124 A  
HETATM    9  C   UNL     1      -7.676   7.521  67.813  1.00  0.00    -0.115 A  
HETATM   10  C   UNL     1      -6.306   7.333  68.062  1.00  0.00    -0.044 A  
HETATM   11  C   UNL     1      -5.549   6.501  67.241  1.00  0.00    -0.013 A  
HETATM   12  C   UNL     1      -6.153   5.845  66.171  1.00  0.00    -0.032 A  
HETATM   13  C   UNL     1      -7.519   6.009  65.929  1.00  0.00    -0.082 A  
HETATM   14  C   UNL     1      -8.301   6.827  66.758  1.00  0.00    -0.115 A  
HETATM   15  C   UNL     1      -9.742   6.946  66.460  1.00  0.00    -0.185 A  
HETATM   16  C   UNL     1     -10.742   7.050  67.354  1.00  0.00    -0.383 A  
HETATM   17  C   UNL     1     -10.610   7.071  68.825  1.00  0.00    -0.235 A  
HETATM   18  C   UNL     1     -11.597   6.428  69.588  1.00  0.00    -0.351 A  
HETATM   19  C   UNL     1     -11.517   6.403  70.984  1.00  0.00    -0.394 A  
HETATM   20  C   UNL     1     -10.457   7.029  71.635  1.00  0.00    -0.219 A  
HETATM   21  C   UNL     1      -9.480   7.689  70.892  1.00  0.00    -0.166 A  
HETATM   22  C   UNL     1      -9.559   7.732  69.491  1.00  0.00    -0.160 A  
ENDBRANCH   5   8
TORSDOF 1
ENDMDL
MODEL      166
REMARK 921   NORMALIZED FREE ENERGY PREDICTED BY IDOCK:   -2.95 KCAL/MOL
REMARK 922        TOTAL FREE ENERGY PREDICTED BY IDOCK:   -3.97 KCAL/MOL
REMARK 923 INTER-LIGAND FREE ENERGY PREDICTED BY IDOCK:   -3.53 KCAL/MOL
REMARK 924 INTRA-LIGAND FREE ENERGY PREDICTED BY IDOCK:   -0.44 KCAL/MOL
REMARK 927      BINDING AFFINITY PREDICTED BY RF-SCORE:    0.00 PKD
ROOT
HETATM    1  C   UNL     1     -13.170   7.124  71.467  1.00  0.00    -0.360 C  
HETATM    2  N   UNL     1     -11.758   6.998  71.821  1.00  0.00    -0.283 NA 
HETATM    3  C   UNL     1     -11.052   6.046  70.947  1.00  0.00    -0.284 C  
HETATM    4  C   UNL     1     -10.839   6.535  69.505  1.00  0.00    -0.360 C  
HETATM    5  C   UNL     1     -10.155   7.896  69.458  1.00  0.00    -0.195 C  
HETATM    6  C   UNL     1     -11.065   8.297  71.798  1.00  0.00    -0.278 C  
HETATM    7  C   UNL     1     -10.835   8.888  70.393  1.00  0.00    -0.269 C  
ENDROOT
BRANCH   5   8
HETATM    8  C   UNL     1      -9.047   8.172  68.719  1.00  0.00    -0.144 A  
HETATM    9  C   UNL     1      -8.422   7.139  67.855  1.00  0.00    -0.121 A  
HETATM   10  C   UNL     1      -9.074   6.711  66.687  1.00  0.00    -0.159 A  
HETATM   11  C   UNL     1      -8.481   5.762  65.858  1.00  0.00    -0.139 A  
HETATM   12  C   UNL     1      -7.232   5.239  66.183  1.00  0.00    -0.073 A  
HETATM   13  C   UNL     1      -6.567   5.675  67.331  1.00  0.00    -0.057 A  
HETATM   14  C   UNL     1      -7.139   6.645  68.167  1.00  0.00    -0.083 A  
HETATM   15  C   UNL     1      -6.378   7.077  69.356  1.00  0.00    -0.035 A  
HETATM   16  C   UNL     1      -6.330   8.319  69.872  1.00  0.00    -0.032 A  
HETATM   17  C   UNL     1      -7.031   9.514  69.361  1.00  0.00    -0.050 A  
HETATM   18  C   UNL     1      -6.371  10.750  69.429  1.00  0.00    -0.068 A  
HETATM   19  C   UNL     1      -6.980  11.913  68.947  1.00  0.00    -0.110 A  
HETATM   20  C   UNL     1      -8.259  11.858  68.401  1.00  0.00    -0.160 A  
HETATM   21  C   UNL     1      -8.937  10.641  68.344  1.00  0.00    -0.149 A  
HETATM   22  C   UNL     1      -8.339   9.470  68.839  1.00  0.00    -0.121 A  
ENDBRANCH   5   8
TORSDOF 1
ENDMDL
MODEL      167
REMARK 921   NORMALIZED FREE ENERGY PREDICTED BY IDOCK:   -2.94 KCAL/MOL
REMARK 922        TOTAL FREE ENERGY PREDICTED BY IDOCK:   -3.95 KCAL/MOL
REMARK 923 INTER-LIGAND FREE ENERGY PREDICTED BY IDOCK:   -3.11 KCAL/MOL
REMARK 924 INTRA-LIGAND FREE ENERGY PREDICTED BY IDOCK:   -0.84 KCAL/MOL
REMARK 927      BINDING AFFINITY PREDICTED BY RF-SCORE:    0.00 PKD
ROOT
HETATM    1  C   UNL     1      -6.114  10.813  70.271  1.00  0.00    -0.133 C  
HETATM    2  N   UNL     1      -6.263   9.989  69.073  1.00  0.00    -0.044 NA 
HETATM    3  C   UNL     1      -5.829   8.600  69.300  1.00  0.00    -0.038 C  
HETATM    4  C   UNL     1      -6.758   7.778  70.208  1.00  0.00    -0.038 C  
HETATM    5  C   UNL     1      -8.201   7.802  69.722  1.00  0.00    -0.129 C  
HETATM    6  C   UNL     1      -7.646   9.998  68.566  1.00  0.00    -0.087 C  
HETATM    7  C   UNL     1      -8.661   9.225  69.430  1.00  0.00    -0.148 C  
ENDROOT
BRANCH   5   8
HETATM    8  C   UNL     1      -8.961   6.692  69.520  1.00  0.00    -0.138 A  
HETATM    9  C   UNL     1      -9.821   6.143  70.599  1.00  0.00    -0.214 A  
HETATM   10  C   UNL     1     -10.973   6.839  71.002  1.00  0.00    -0.297 A  
HETATM   11  C   UNL     1     -11.799   6.317  71.995  1.00  0.00    -0.370 A  
HETATM   12  C   UNL     1     -11.487   5.095  72.586  1.00  0.00    -0.221 A  
HETATM   13  C   UNL     1     -10.356   4.386  72.175  1.00  0.00    -0.213 A  
HETATM   14  C   UNL     1      -9.524   4.886  71.163  1.00  0.00    -0.216 A  
HETATM   15  C   UNL     1      -8.353   4.081  70.762  1.00  0.00    -0.088 A  
HETATM   16  C   UNL     1      -7.855   3.952  69.518  1.00  0.00    -0.052 A  
HETATM   17  C   UNL     1      -8.371   4.591  68.291  1.00  0.00    -0.092 A  
HETATM   18  C   UNL     1      -8.330   3.858  67.095  1.00  0.00    -0.099 A  
HETATM   19  C   UNL     1      -8.818   4.406  65.905  1.00  0.00    -0.120 A  
HETATM   20  C   UNL     1      -9.342   5.695  65.892  1.00  0.00    -0.119 A  
HETATM   21  C   UNL     1      -9.371   6.444  67.067  1.00  0.00    -0.143 A  
HETATM   22  C   UNL     1      -8.871   5.907  68.264  1.00  0.00    -0.110 A  
ENDBRANCH   5   8
TORSDOF 1
ENDMDL
MODEL      168
REMARK 921   NORMALIZED FREE ENERGY PREDICTED BY IDOCK:   -2.93 KCAL/MOL
REMARK 922        TOTAL FREE ENERGY PREDICTED BY IDOCK:   -3.94 KCAL/MOL
REMARK 923 INTER-LIGAND FREE ENERGY PREDICTED BY IDOCK:   -3.12 KCAL/MOL
REMARK 924 INTRA-LIGAND FREE ENERGY PREDICTED BY IDOCK:   -0.82 KCAL/MOL
REMARK 927      BINDING AFFINITY PREDICTED BY RF-SCORE:    0.00 PKD
ROOT
HETATM    1  C   UNL     1      -5.787  12.299  69.819  1.00  0.00    -0.123 C  
HETATM    2  N   UNL     1      -5.704  11.026  69.108  1.00  0.00    -0.040 NA 
HETATM    3  C   UNL     1      -5.375   9.909  70.010  1.00  0.00    -0.037 C  
HETATM    4  C   UNL     1      -6.502   9.510  70.977  1.00  0.00    -0.071 C  
HETATM    5  C   UNL     1      -7.807   9.223  70.245  1.00  0.00    -0.148 C  
HETATM    6  C   UNL     1      -6.947  10.719  68.377  1.00  0.00    -0.070 C  
HETATM    7  C   UNL     1      -8.148  10.340  69.266  1.00  0.00    -0.156 C  
ENDROOT
BRANCH   5   8
HETATM    8  C   UNL     1      -8.543   8.091  70.405  1.00  0.00    -0.131 A  
HETATM    9  C   UNL     1      -9.729   8.064  71.297  1.00  0.00    -0.199 A  
HETATM   10  C   UNL     1     -10.898   8.752  70.933  1.00  0.00    -0.293 A  
HETATM   11  C   UNL     1     -12.024   8.711  71.752  1.00  0.00    -0.402 A  
HETATM   12  C   UNL     1     -11.995   7.976  72.934  1.00  0.00    -0.100 A  
HETATM   13  C   UNL     1     -10.844   7.270  73.293  1.00  0.00    -0.404 A  
HETATM   14  C   UNL     1      -9.708   7.284  72.471  1.00  0.00    -0.189 A  
HETATM   15  C   UNL     1      -8.529   6.504  72.897  1.00  0.00    -0.120 A  
HETATM   16  C   UNL     1      -7.682   5.828  72.100  1.00  0.00    -0.102 A  
HETATM   17  C   UNL     1      -7.749   5.725  70.628  1.00  0.00    -0.093 A  
HETATM   18  C   UNL     1      -7.392   4.506  70.032  1.00  0.00    -0.053 A  
HETATM   19  C   UNL     1      -7.450   4.346  68.644  1.00  0.00    -0.060 A  
HETATM   20  C   UNL     1      -7.854   5.404  67.834  1.00  0.00    -0.092 A  
HETATM   21  C   UNL     1      -8.193   6.627  68.409  1.00  0.00    -0.115 A  
HETATM   22  C   UNL     1      -8.124   6.802  69.801  1.00  0.00    -0.126 A  
ENDBRANCH   5   8
TORSDOF 1
ENDMDL
MODEL      169
REMARK 921   NORMALIZED FREE ENERGY PREDICTED BY IDOCK:   -2.83 KCAL/MOL
REMARK 922        TOTAL FREE ENERGY PREDICTED BY IDOCK:   -3.83 KCAL/MOL
REMARK 923 INTER-LIGAND FREE ENERGY PREDICTED BY IDOCK:   -3.29 KCAL/MOL
REMARK 924 INTRA-LIGAND FREE ENERGY PREDICTED BY IDOCK:   -0.54 KCAL/MOL
REMARK 927      BINDING AFFINITY PREDICTED BY RF-SCORE:    0.00 PKD
ROOT
HETATM    1  C   UNL     1      -9.592   1.753  69.052  1.00  0.00    -0.041 C  
HETATM    2  N   UNL     1      -8.486   2.461  69.692  1.00  0.00    -0.046 NA 
HETATM    3  C   UNL     1      -7.863   3.445  68.790  1.00  0.00    -0.054 C  
HETATM    4  C   UNL     1      -8.728   4.681  68.493  1.00  0.00    -0.113 C  
HETATM    5  C   UNL     1      -9.202   5.367  69.768  1.00  0.00    -0.169 C  
HETATM    6  C   UNL     1      -8.904   3.128  70.937  1.00  0.00    -0.082 C  
HETATM    7  C   UNL     1      -9.806   4.363  70.743  1.00  0.00    -0.273 C  
ENDROOT
BRANCH   5   8
HETATM    8  C   UNL     1      -9.054   6.694  70.025  1.00  0.00    -0.151 A  
HETATM    9  C   UNL     1      -9.088   7.697  68.933  1.00  0.00    -0.140 A  
HETATM   10  C   UNL     1     -10.296   7.977  68.273  1.00  0.00    -0.240 A  
HETATM   11  C   UNL     1     -10.342   8.937  67.264  1.00  0.00    -0.350 A  
HETATM   12  C   UNL     1      -9.186   9.629  66.912  1.00  0.00    -0.172 A  
HETATM   13  C   UNL     1      -7.985   9.373  67.578  1.00  0.00    -0.102 A  
HETATM   14  C   UNL     1      -7.925   8.425  68.610  1.00  0.00    -0.121 A  
HETATM   15  C   UNL     1      -6.630   8.213  69.287  1.00  0.00    -0.036 A  
HETATM   16  C   UNL     1      -6.440   7.949  70.593  1.00  0.00    -0.037 A  
HETATM   17  C   UNL     1      -7.485   7.813  71.626  1.00  0.00    -0.075 A  
HETATM   18  C   UNL     1      -7.214   8.304  72.913  1.00  0.00    -0.139 A  
HETATM   19  C   UNL     1      -8.172   8.216  73.927  1.00  0.00    -0.311 A  
HETATM   20  C   UNL     1      -9.407   7.627  73.674  1.00  0.00    -0.344 A  
HETATM   21  C   UNL     1      -9.686   7.117  72.407  1.00  0.00    -0.173 A  
HETATM   22  C   UNL     1      -8.725   7.188  71.385  1.00  0.00    -0.124 A  
ENDBRANCH   5   8
TORSDOF 1
ENDMDL
MODEL      170
REMARK 921   NORMALIZED FREE ENERGY PREDICTED BY IDOCK:   -2.82 KCAL/MOL
REMARK 922        TOTAL FREE ENERGY PREDICTED BY IDOCK:   -3.82 KCAL/MOL
REMARK 923 INTER-LIGAND FREE ENERGY PREDICTED BY IDOCK:   -3.24 KCAL/MOL
REMARK 924 INTRA-LIGAND FREE ENERGY PREDICTED BY IDOCK:   -0.58 KCAL/MOL
REMARK 927      BINDING AFFINITY PREDICTED BY RF-SCORE:    0.00 PKD
ROOT
HETATM    1  C   UNL     1     -11.440  10.542  68.688  1.00  0.00    -0.223 C  
HETATM    2  N   UNL     1     -10.819  10.242  69.976  1.00  0.00    -0.292 NA 
HETATM    3  C   UNL     1     -11.502   9.141  70.676  1.00  0.00    -0.262 C  
HETATM    4  C   UNL     1     -11.300   7.754  70.044  1.00  0.00    -0.059 C  
HETATM    5  C   UNL     1      -9.825   7.420  69.858  1.00  0.00    -0.178 C  
HETATM    6  C   UNL     1      -9.387   9.925  69.838  1.00  0.00    -0.216 C  
HETATM    7  C   UNL     1      -9.081   8.565  69.181  1.00  0.00    -0.146 C  
ENDROOT
BRANCH   5   8
HETATM    8  C   UNL     1      -9.239   6.273  70.292  1.00  0.00    -0.163 A  
HETATM    9  C   UNL     1      -9.528   5.723  71.640  1.00  0.00    -0.172 A  
HETATM   10  C   UNL     1     -10.787   5.164  71.916  1.00  0.00    -0.171 A  
HETATM   11  C   UNL     1     -11.058   4.623  73.171  1.00  0.00    -0.371 A  
HETATM   12  C   UNL     1     -10.073   4.628  74.155  1.00  0.00    -0.236 A  
HETATM   13  C   UNL     1      -8.811   5.162  73.883  1.00  0.00    -0.117 A  
HETATM   14  C   UNL     1      -8.515   5.692  72.619  1.00  0.00    -0.120 A  
HETATM   15  C   UNL     1      -7.157   6.226  72.388  1.00  0.00    -0.083 A  
HETATM   16  C   UNL     1      -6.445   6.146  71.249  1.00  0.00    -0.049 A  
HETATM   17  C   UNL     1      -6.872   5.511  69.986  1.00  0.00    -0.059 A  
HETATM   18  C   UNL     1      -5.908   4.826  69.230  1.00  0.00    -0.017 A  
HETATM   19  C   UNL     1      -6.256   4.194  68.033  1.00  0.00    -0.036 A  
HETATM   20  C   UNL     1      -7.568   4.245  67.571  1.00  0.00    -0.073 A  
HETATM   21  C   UNL     1      -8.534   4.937  68.299  1.00  0.00    -0.098 A  
HETATM   22  C   UNL     1      -8.190   5.588  69.496  1.00  0.00    -0.101 A  
ENDBRANCH   5   8
TORSDOF 1
ENDMDL
MODEL      171
REMARK 921   NORMALIZED FREE ENERGY PREDICTED BY IDOCK:   -2.77 KCAL/MOL
REMARK 922        TOTAL FREE ENERGY PREDICTED BY IDOCK:   -3.77 KCAL/MOL
REMARK 923 INTER-LIGAND FREE ENERGY PREDICTED BY IDOCK:   -2.94 KCAL/MOL
REMARK 924 INTRA-LIGAND FREE ENERGY PREDICTED BY IDOCK:   -0.83 KCAL/MOL
REMARK 927      BINDING AFFINITY PREDICTED BY RF-SCORE:    0.00 PKD
ROOT
HETATM    1  C   UNL     1     -10.757   4.739  65.211  1.00  0.00     0.018 C  
HETATM    2  N   UNL     1     -10.654   4.869  66.663  1.00  0.00    -0.221 NA 
HETATM    3  C   UNL     1      -9.287   4.605  67.146  1.00  0.00    -0.142 C  
HETATM    4  C   UNL     1      -8.260   5.692  66.788  1.00  0.00    -0.105 C  
HETATM    5  C   UNL     1      -8.714   7.076  67.233  1.00  0.00    -0.120 C  
HETATM    6  C   UNL     1     -11.096   6.193  67.132  1.00  0.00    -0.242 C  
HETATM    7  C   UNL     1     -10.145   7.356  66.791  1.00  0.00    -0.305 C  
ENDROOT
BRANCH   5   8
HETATM    8  C   UNL     1      -7.959   7.929  67.978  1.00  0.00    -0.128 A  
HETATM    9  C   UNL     1      -7.930   7.836  69.459  1.00  0.00    -0.117 A  
HETATM   10  C   UNL     1      -7.291   6.752  70.083  1.00  0.00    -0.085 A  
HETATM   11  C   UNL     1      -7.237   6.672  71.473  1.00  0.00    -0.082 A  
HETATM   12  C   UNL     1      -7.811   7.676  72.248  1.00  0.00    -0.116 A  
HETATM   13  C   UNL     1      -8.429   8.769  71.636  1.00  0.00    -0.209 A  
HETATM   14  C   UNL     1      -8.475   8.876  70.239  1.00  0.00    -0.168 A  
HETATM   15  C   UNL     1      -9.127  10.064  69.652  1.00  0.00    -0.230 A  
HETATM   16  C   UNL     1      -8.751  10.720  68.539  1.00  0.00    -0.149 A  
HETATM   17  C   UNL     1      -7.607  10.389  67.665  1.00  0.00    -0.089 A  
HETATM   18  C   UNL     1      -6.882  11.446  67.094  1.00  0.00    -0.124 A  
HETATM   19  C   UNL     1      -5.782  11.194  66.270  1.00  0.00    -0.144 A  
HETATM   20  C   UNL     1      -5.398   9.884  65.997  1.00  0.00    -0.044 A  
HETATM   21  C   UNL     1      -6.119   8.822  66.540  1.00  0.00    -0.057 A  
HETATM   22  C   UNL     1      -7.235   9.066  67.358  1.00  0.00    -0.083 A  
ENDBRANCH   5   8
TORSDOF 1
ENDMDL
MODEL      172
REMARK 921   NORMALIZED FREE ENERGY PREDICTED BY IDOCK:   -2.75 KCAL/MOL
REMARK 922        TOTAL FREE ENERGY PREDICTED BY IDOCK:   -3.76 KCAL/MOL
REMARK 923 INTER-LIGAND FREE ENERGY PREDICTED BY IDOCK:   -3.32 KCAL/MOL
REMARK 924 INTRA-LIGAND FREE ENERGY PREDICTED BY IDOCK:   -0.44 KCAL/MOL
REMARK 927      BINDING AFFINITY PREDICTED BY RF-SCORE:    0.00 PKD
ROOT
HETATM    1  C   UNL     1     -10.499   1.801  72.726  1.00  0.00    -0.148 C  
HETATM    2  N   UNL     1      -9.330   2.670  72.618  1.00  0.00    -0.090 NA 
HETATM    3  C   UNL     1      -8.397   2.216  71.573  1.00  0.00    -0.054 C  
HETATM    4  C   UNL     1      -8.904   2.406  70.134  1.00  0.00    -0.142 C  
HETATM    5  C   UNL     1      -9.332   3.843  69.864  1.00  0.00    -0.245 C  
HETATM    6  C   UNL     1      -9.705   4.073  72.369  1.00  0.00    -0.151 C  
HETATM    7  C   UNL     1     -10.259   4.358  70.959  1.00  0.00    -0.121 C  
ENDROOT
BRANCH   5   8
HETATM    8  C   UNL     1      -8.899   4.588  68.812  1.00  0.00    -0.132 A  
HETATM    9  C   UNL     1      -9.486   5.920  68.519  1.00  0.00    -0.134 A  
HETATM   10  C   UNL     1      -9.228   7.005  69.372  1.00  0.00    -0.147 A  
HETATM   11  C   UNL     1      -9.755   8.264  69.090  1.00  0.00    -0.171 A  
HETATM   12  C   UNL     1     -10.533   8.450  67.950  1.00  0.00    -0.255 A  
HETATM   13  C   UNL     1     -10.776   7.381  67.084  1.00  0.00    -0.400 A  
HETATM   14  C   UNL     1     -10.238   6.112  67.342  1.00  0.00    -0.226 A  
HETATM   15  C   UNL     1     -10.516   5.028  66.380  1.00  0.00    -0.349 A  
HETATM   16  C   UNL     1      -9.676   4.043  66.013  1.00  0.00    -0.195 A  
HETATM   17  C   UNL     1      -8.298   3.834  66.500  1.00  0.00    -0.104 A  
HETATM   18  C   UNL     1      -7.338   3.364  65.590  1.00  0.00    -0.075 A  
HETATM   19  C   UNL     1      -6.014   3.161  65.991  1.00  0.00    -0.023 A  
HETATM   20  C   UNL     1      -5.634   3.414  67.306  1.00  0.00    -0.021 A  
HETATM   21  C   UNL     1      -6.579   3.862  68.227  1.00  0.00    -0.045 A  
HETATM   22  C   UNL     1      -7.915   4.056  67.837  1.00  0.00    -0.089 A  
ENDBRANCH   5   8
TORSDOF 1
ENDMDL
MODEL      173
REMARK 921   NORMALIZED FREE ENERGY PREDICTED BY IDOCK:   -2.75 KCAL/MOL
REMARK 922        TOTAL FREE ENERGY PREDICTED BY IDOCK:   -3.75 KCAL/MOL
REMARK 923 INTER-LIGAND FREE ENERGY PREDICTED BY IDOCK:   -2.96 KCAL/MOL
REMARK 924 INTRA-LIGAND FREE ENERGY PREDICTED BY IDOCK:   -0.79 KCAL/MOL
REMARK 927      BINDING AFFINITY PREDICTED BY RF-SCORE:    0.00 PKD
ROOT
HETATM    1  C   UNL     1     -11.082  10.874  68.268  1.00  0.00    -0.266 C  
HETATM    2  N   UNL     1      -9.988  10.234  68.996  1.00  0.00    -0.202 NA 
HETATM    3  C   UNL     1     -10.326   8.861  69.405  1.00  0.00    -0.213 C  
HETATM    4  C   UNL     1     -10.402   7.847  68.252  1.00  0.00    -0.239 C  
HETATM    5  C   UNL     1      -9.132   7.844  67.410  1.00  0.00    -0.146 C  
HETATM    6  C   UNL     1      -8.738  10.223  68.216  1.00  0.00    -0.126 C  
HETATM    7  C   UNL     1      -8.729   9.260  67.013  1.00  0.00    -0.131 C  
ENDROOT
BRANCH   5   8
HETATM    8  C   UNL     1      -8.420   6.728  67.100  1.00  0.00    -0.120 A  
HETATM    9  C   UNL     1      -8.497   6.116  65.750  1.00  0.00    -0.147 A  
HETATM   10  C   UNL     1      -7.921   6.769  64.648  1.00  0.00    -0.117 A  
HETATM   11  C   UNL     1      -7.967   6.189  63.382  1.00  0.00    -0.104 A  
HETATM   12  C   UNL     1      -8.580   4.951  63.208  1.00  0.00    -0.122 A  
HETATM   13  C   UNL     1      -9.136   4.284  64.302  1.00  0.00    -0.150 A  
HETATM   14  C   UNL     1      -9.081   4.844  65.587  1.00  0.00    -0.151 A  
HETATM   15  C   UNL     1      -9.672   4.081  66.705  1.00  0.00    -0.216 A  
HETATM   16  C   UNL     1      -9.207   4.014  67.966  1.00  0.00    -0.200 A  
HETATM   17  C   UNL     1      -8.009   4.692  68.501  1.00  0.00    -0.080 A  
HETATM   18  C   UNL     1      -7.229   4.010  69.448  1.00  0.00    -0.050 A  
HETATM   19  C   UNL     1      -6.077   4.597  69.979  1.00  0.00    -0.018 A  
HETATM   20  C   UNL     1      -5.694   5.874  69.580  1.00  0.00    -0.016 A  
HETATM   21  C   UNL     1      -6.468   6.572  68.655  1.00  0.00    -0.049 A  
HETATM   22  C   UNL     1      -7.636   5.997  68.127  1.00  0.00    -0.094 A  
ENDBRANCH   5   8
TORSDOF 1
ENDMDL
MODEL      174
REMARK 921   NORMALIZED FREE ENERGY PREDICTED BY IDOCK:   -2.71 KCAL/MOL
REMARK 922        TOTAL FREE ENERGY PREDICTED BY IDOCK:   -3.71 KCAL/MOL
REMARK 923 INTER-LIGAND FREE ENERGY PREDICTED BY IDOCK:   -3.27 KCAL/MOL
REMARK 924 INTRA-LIGAND FREE ENERGY PREDICTED BY IDOCK:   -0.44 KCAL/MOL
REMARK 927      BINDING AFFINITY PREDICTED BY RF-SCORE:    0.00 PKD
ROOT
HETATM    1  C   UNL     1     -10.968  13.366  65.406  1.00  0.00    -0.286 C  
HETATM    2  N   UNL     1     -11.621  12.130  65.833  1.00  0.00    -0.399 NA 
HETATM    3  C   UNL     1     -11.037  10.944  65.184  1.00  0.00     0.155 C  
HETATM    4  C   UNL     1      -9.622  10.582  65.662  1.00  0.00    -0.278 C  
HETATM    5  C   UNL     1      -9.549  10.437  67.177  1.00  0.00    -0.192 C  
HETATM    6  C   UNL     1     -11.582  11.962  67.296  1.00  0.00    -0.293 C  
HETATM    7  C   UNL     1     -10.193  11.629  67.876  1.00  0.00    -0.203 C  
ENDROOT
BRANCH   5   8
HETATM    8  C   UNL     1      -9.029   9.358  67.820  1.00  0.00    -0.127 A  
HETATM    9  C   UNL     1      -9.143   9.213  69.293  1.00  0.00    -0.146 A  
HETATM   10  C   UNL     1     -10.390   8.940  69.878  1.00  0.00    -0.215 A  
HETATM   11  C   UNL     1     -10.500   8.776  71.258  1.00  0.00    -0.326 A  
HETATM   12  C   UNL     1      -9.366   8.875  72.061  1.00  0.00    -0.219 A  
HETATM   13  C   UNL     1      -8.118   9.125  71.485  1.00  0.00     0.073 A  
HETATM   14  C   UNL     1      -7.986   9.272  70.096  1.00  0.00    -0.143 A  
HETATM   15  C   UNL     1      -6.637   9.518  69.547  1.00  0.00    -0.044 A  
HETATM   16  C   UNL     1      -6.145   9.048  68.386  1.00  0.00    -0.046 A  
HETATM   17  C   UNL     1      -6.850   8.192  67.412  1.00  0.00    -0.074 A  
HETATM   18  C   UNL     1      -6.113   7.201  66.744  1.00  0.00    -0.038 A  
HETATM   19  C   UNL     1      -6.730   6.351  65.822  1.00  0.00    -0.048 A  
HETATM   20  C   UNL     1      -8.088   6.486  65.547  1.00  0.00    -0.127 A  
HETATM   21  C   UNL     1      -8.830   7.477  66.185  1.00  0.00    -0.185 A  
HETATM   22  C   UNL     1      -8.216   8.345  67.103  1.00  0.00    -0.108 A  
ENDBRANCH   5   8
TORSDOF 1
ENDMDL
MODEL      175
REMARK 921   NORMALIZED FREE ENERGY PREDICTED BY IDOCK:   -2.68 KCAL/MOL
REMARK 922        TOTAL FREE ENERGY PREDICTED BY IDOCK:   -3.68 KCAL/MOL
REMARK 923 INTER-LIGAND FREE ENERGY PREDICTED BY IDOCK:   -2.84 KCAL/MOL
REMARK 924 INTRA-LIGAND FREE ENERGY PREDICTED BY IDOCK:   -0.84 KCAL/MOL
REMARK 927      BINDING AFFINITY PREDICTED BY RF-SCORE:    0.00 PKD
ROOT
HETATM    1  C   UNL     1      -9.955   4.357  65.173  1.00  0.00    -0.177 C  
HETATM    2  N   UNL     1     -10.343   4.720  66.534  1.00  0.00    -0.262 NA 
HETATM    3  C   UNL     1      -9.193   4.725  67.454  1.00  0.00    -0.129 C  
HETATM    4  C   UNL     1      -8.196   5.874  67.231  1.00  0.00    -0.105 C  
HETATM    5  C   UNL     1      -8.882   7.235  67.244  1.00  0.00    -0.124 C  
HETATM    6  C   UNL     1     -11.020   6.027  66.584  1.00  0.00    -0.152 C  
HETATM    7  C   UNL     1     -10.107   7.244  66.338  1.00  0.00    -0.057 C  
ENDROOT
BRANCH   5   8
HETATM    8  C   UNL     1      -8.483   8.287  68.008  1.00  0.00    -0.132 A  
HETATM    9  C   UNL     1      -7.575   9.329  67.468  1.00  0.00    -0.088 A  
HETATM   10  C   UNL     1      -8.038  10.232  66.497  1.00  0.00    -0.121 A  
HETATM   11  C   UNL     1      -7.199  11.229  66.004  1.00  0.00     0.138 A  
HETATM   12  C   UNL     1      -5.896  11.338  66.483  1.00  0.00    -0.146 A  
HETATM   13  C   UNL     1      -5.434  10.459  67.465  1.00  0.00    -0.040 A  
HETATM   14  C   UNL     1      -6.271   9.462  67.987  1.00  0.00    -0.057 A  
HETATM   15  C   UNL     1      -5.729   8.575  69.035  1.00  0.00    -0.039 A  
HETATM   16  C   UNL     1      -6.398   8.075  70.091  1.00  0.00    -0.033 A  
HETATM   17  C   UNL     1      -7.818   8.306  70.423  1.00  0.00    -0.089 A  
HETATM   18  C   UNL     1      -8.171   8.429  71.776  1.00  0.00    -0.200 A  
HETATM   19  C   UNL     1      -9.498   8.661  72.149  1.00  0.00    -0.373 A  
HETATM   20  C   UNL     1     -10.490   8.764  71.179  1.00  0.00    -0.315 A  
HETATM   21  C   UNL     1     -10.160   8.624  69.832  1.00  0.00    -0.197 A  
HETATM   22  C   UNL     1      -8.832   8.376  69.448  1.00  0.00    -0.142 A  
ENDBRANCH   5   8
TORSDOF 1
ENDMDL
MODEL      176
REMARK 921   NORMALIZED FREE ENERGY PREDICTED BY IDOCK:   -2.56 KCAL/MOL
REMARK 922        TOTAL FREE ENERGY PREDICTED BY IDOCK:   -3.55 KCAL/MOL
REMARK 923 INTER-LIGAND FREE ENERGY PREDICTED BY IDOCK:   -2.96 KCAL/MOL
REMARK 924 INTRA-LIGAND FREE ENERGY PREDICTED BY IDOCK:   -0.60 KCAL/MOL
REMARK 927      BINDING AFFINITY PREDICTED BY RF-SCORE:    0.00 PKD
ROOT
HETATM    1  C   UNL     1      -7.278   7.170  74.029  1.00  0.00    -0.090 C  
HETATM    2  N   UNL     1      -6.639   6.338  73.012  1.00  0.00    -0.068 NA 
HETATM    3  C   UNL     1      -7.507   5.228  72.581  1.00  0.00    -0.096 C  
HETATM    4  C   UNL     1      -8.721   5.653  71.738  1.00  0.00    -0.136 C  
HETATM    5  C   UNL     1      -8.315   6.497  70.537  1.00  0.00    -0.133 C  
HETATM    6  C   UNL     1      -6.222   7.123  71.838  1.00  0.00    -0.040 C  
HETATM    7  C   UNL     1      -7.375   7.624  70.946  1.00  0.00    -0.066 C  
ENDROOT
BRANCH   5   8
HETATM    8  C   UNL     1      -8.698   6.243  69.257  1.00  0.00    -0.124 A  
HETATM    9  C   UNL     1      -8.597   4.879  68.680  1.00  0.00    -0.099 A  
HETATM   10  C   UNL     1      -9.459   3.863  69.122  1.00  0.00    -0.246 A  
HETATM   11  C   UNL     1      -9.387   2.587  68.567  1.00  0.00    -0.254 A  
HETATM   12  C   UNL     1      -8.461   2.319  67.562  1.00  0.00    -0.102 A  
HETATM   13  C   UNL     1      -7.614   3.330  67.100  1.00  0.00    -0.075 A  
HETATM   14  C   UNL     1      -7.687   4.625  67.634  1.00  0.00    -0.086 A  
HETATM   15  C   UNL     1      -6.777   5.654  67.092  1.00  0.00    -0.062 A  
HETATM   16  C   UNL     1      -7.057   6.957  66.905  1.00  0.00    -0.075 A  
HETATM   17  C   UNL     1      -8.333   7.636  67.207  1.00  0.00    -0.115 A  
HETATM   18  C   UNL     1      -8.767   8.648  66.337  1.00  0.00    -0.150 A  
HETATM   19  C   UNL     1      -9.974   9.316  66.564  1.00  0.00    -0.344 A  
HETATM   20  C   UNL     1     -10.757   8.990  67.667  1.00  0.00    -0.232 A  
HETATM   21  C   UNL     1     -10.331   8.001  68.552  1.00  0.00    -0.229 A  
HETATM   22  C   UNL     1      -9.113   7.334  68.340  1.00  0.00    -0.135 A  
ENDBRANCH   5   8
TORSDOF 1
ENDMDL
MODEL      177
REMARK 921   NORMALIZED FREE ENERGY PREDICTED BY IDOCK:   -2.56 KCAL/MOL
REMARK 922        TOTAL FREE ENERGY PREDICTED BY IDOCK:   -3.55 KCAL/MOL
REMARK 923 INTER-LIGAND FREE ENERGY PREDICTED BY IDOCK:   -3.07 KCAL/MOL
REMARK 924 INTRA-LIGAND FREE ENERGY PREDICTED BY IDOCK:   -0.48 KCAL/MOL
REMARK 927      BINDING AFFINITY PREDICTED BY RF-SCORE:    0.00 PKD
ROOT
HETATM    1  C   UNL     1      -6.632  10.068  63.321  1.00  0.00    -0.134 C  
HETATM    2  N   UNL     1      -7.777   9.257  62.916  1.00  0.00    -0.117 NA 
HETATM    3  C   UNL     1      -7.386   7.876  62.585  1.00  0.00    -0.101 C  
HETATM    4  C   UNL     1      -6.970   7.020  63.792  1.00  0.00    -0.057 C  
HETATM    5  C   UNL     1      -8.033   7.016  64.884  1.00  0.00    -0.127 C  
HETATM    6  C   UNL     1      -8.833   9.239  63.943  1.00  0.00    -0.126 C  
HETATM    7  C   UNL     1      -8.493   8.431  65.211  1.00  0.00    -0.189 C  
ENDROOT
BRANCH   5   8
HETATM    8  C   UNL     1      -8.544   5.891  65.452  1.00  0.00    -0.138 A  
HETATM    9  C   UNL     1      -9.171   5.925  66.797  1.00  0.00    -0.139 A  
HETATM   10  C   UNL     1     -10.410   6.561  66.979  1.00  0.00    -0.319 A  
HETATM   11  C   UNL     1     -11.017   6.575  68.233  1.00  0.00    -0.362 A  
HETATM   12  C   UNL     1     -10.397   5.948  69.311  1.00  0.00    -0.312 A  
HETATM   13  C   UNL     1      -9.175   5.295  69.134  1.00  0.00    -0.153 A  
HETATM   14  C   UNL     1      -8.559   5.254  67.874  1.00  0.00    -0.103 A  
HETATM   15  C   UNL     1      -7.277   4.532  67.749  1.00  0.00    -0.065 A  
HETATM   16  C   UNL     1      -6.866   3.801  66.697  1.00  0.00    -0.054 A  
HETATM   17  C   UNL     1      -7.609   3.567  65.442  1.00  0.00    -0.078 A  
HETATM   18  C   UNL     1      -7.506   2.305  64.836  1.00  0.00    -0.067 A  
HETATM   19  C   UNL     1      -8.198   2.021  63.655  1.00  0.00    -0.080 A  
HETATM   20  C   UNL     1      -8.992   2.996  63.058  1.00  0.00    -0.091 A  
HETATM   21  C   UNL     1      -9.089   4.261  63.636  1.00  0.00    -0.142 A  
HETATM   22  C   UNL     1      -8.387   4.560  64.815  1.00  0.00    -0.116 A  
ENDBRANCH   5   8
TORSDOF 1
ENDMDL
MODEL      178
REMARK 921   NORMALIZED FREE ENERGY PREDICTED BY IDOCK:   -2.55 KCAL/MOL
REMARK 922        TOTAL FREE ENERGY PREDICTED BY IDOCK:   -3.54 KCAL/MOL
REMARK 923 INTER-LIGAND FREE ENERGY PREDICTED BY IDOCK:   -2.91 KCAL/MOL
REMARK 924 INTRA-LIGAND FREE ENERGY PREDICTED BY IDOCK:   -0.63 KCAL/MOL
REMARK 927      BINDING AFFINITY PREDICTED BY RF-SCORE:    0.00 PKD
ROOT
HETATM    1  C   UNL     1      -7.693   2.654  72.331  1.00  0.00    -0.053 C  
HETATM    2  N   UNL     1      -8.703   2.482  71.289  1.00  0.00    -0.063 NA 
HETATM    3  C   UNL     1      -9.544   3.681  71.131  1.00  0.00    -0.177 C  
HETATM    4  C   UNL     1      -8.829   4.888  70.501  1.00  0.00    -0.146 C  
HETATM    5  C   UNL     1      -8.170   4.533  69.174  1.00  0.00    -0.082 C  
HETATM    6  C   UNL     1      -8.103   2.126  69.992  1.00  0.00    -0.041 C  
HETATM    7  C   UNL     1      -7.333   3.265  69.295  1.00  0.00    -0.048 C  
ENDROOT
BRANCH   5   8
HETATM    8  C   UNL     1      -8.352   5.226  68.018  1.00  0.00    -0.098 A  
HETATM    9  C   UNL     1      -8.212   6.703  67.977  1.00  0.00    -0.117 A  
HETATM   10  C   UNL     1      -6.945   7.293  68.113  1.00  0.00    -0.076 A  
HETATM   11  C   UNL     1      -6.802   8.678  68.049  1.00  0.00    -0.070 A  
HETATM   12  C   UNL     1      -7.920   9.481  67.842  1.00  0.00    -0.098 A  
HETATM   13  C   UNL     1      -9.181   8.902  67.683  1.00  0.00    -0.151 A  
HETATM   14  C   UNL     1      -9.340   7.509  67.724  1.00  0.00    -0.150 A  
HETATM   15  C   UNL     1     -10.696   6.956  67.533  1.00  0.00    -0.368 A  
HETATM   16  C   UNL     1     -11.017   5.820  66.888  1.00  0.00    -0.242 A  
HETATM   17  C   UNL     1     -10.081   4.880  66.239  1.00  0.00    -0.285 A  
HETATM   18  C   UNL     1     -10.485   4.261  65.046  1.00  0.00    -0.189 A  
HETATM   19  C   UNL     1      -9.635   3.374  64.379  1.00  0.00    -0.159 A  
HETATM   20  C   UNL     1      -8.377   3.085  64.899  1.00  0.00    -0.095 A  
HETATM   21  C   UNL     1      -7.968   3.676  66.093  1.00  0.00    -0.089 A  
HETATM   22  C   UNL     1      -8.821   4.558  66.778  1.00  0.00    -0.112 A  
ENDBRANCH   5   8
TORSDOF 1
ENDMDL
MODEL      179
REMARK 921   NORMALIZED FREE ENERGY PREDICTED BY IDOCK:   -2.47 KCAL/MOL
REMARK 922        TOTAL FREE ENERGY PREDICTED BY IDOCK:   -3.46 KCAL/MOL
REMARK 923 INTER-LIGAND FREE ENERGY PREDICTED BY IDOCK:   -3.00 KCAL/MOL
REMARK 924 INTRA-LIGAND FREE ENERGY PREDICTED BY IDOCK:   -0.45 KCAL/MOL
REMARK 927      BINDING AFFINITY PREDICTED BY RF-SCORE:    0.00 PKD
ROOT
HETATM    1  C   UNL     1     -11.118   1.571  63.097  1.00  0.00    -0.224 C  
HETATM    2  N   UNL     1     -10.063   2.574  62.969  1.00  0.00    -0.106 NA 
HETATM    3  C   UNL     1     -10.539   3.925  63.314  1.00  0.00    -0.166 C  
HETATM    4  C   UNL     1     -10.824   4.143  64.809  1.00  0.00    -0.118 C  
HETATM    5  C   UNL     1      -9.628   3.773  65.678  1.00  0.00    -0.166 C  
HETATM    6  C   UNL     1      -8.884   2.243  63.787  1.00  0.00    -0.090 C  
HETATM    7  C   UNL     1      -9.082   2.398  65.308  1.00  0.00    -0.123 C  
ENDROOT
BRANCH   5   8
HETATM    8  C   UNL     1      -9.085   4.586  66.622  1.00  0.00    -0.123 A  
HETATM    9  C   UNL     1      -8.135   4.062  67.635  1.00  0.00    -0.090 A  
HETATM   10  C   UNL     1      -6.842   3.673  67.250  1.00  0.00    -0.050 A  
HETATM   11  C   UNL     1      -5.936   3.204  68.199  1.00  0.00    -0.024 A  
HETATM   12  C   UNL     1      -6.311   3.129  69.538  1.00  0.00    -0.029 A  
HETATM   13  C   UNL     1      -7.588   3.534  69.933  1.00  0.00    -0.044 A  
HETATM   14  C   UNL     1      -8.505   4.028  68.995  1.00  0.00    -0.099 A  
HETATM   15  C   UNL     1      -9.833   4.457  69.477  1.00  0.00    -0.258 A  
HETATM   16  C   UNL     1     -10.559   5.493  69.018  1.00  0.00    -0.271 A  
HETATM   17  C   UNL     1     -10.184   6.419  67.931  1.00  0.00    -0.200 A  
HETATM   18  C   UNL     1     -10.544   7.769  68.057  1.00  0.00    -0.201 A  
HETATM   19  C   UNL     1     -10.202   8.694  67.066  1.00  0.00    -0.360 A  
HETATM   20  C   UNL     1      -9.508   8.281  65.932  1.00  0.00    -0.125 A  
HETATM   21  C   UNL     1      -9.161   6.940  65.782  1.00  0.00     0.023 A  
HETATM   22  C   UNL     1      -9.511   6.001  66.766  1.00  0.00    -0.158 A  
ENDBRANCH   5   8
TORSDOF 1
ENDMDL
MODEL      180
REMARK 921   NORMALIZED FREE ENERGY PREDICTED BY IDOCK:   -2.37 KCAL/MOL
REMARK 922        TOTAL FREE ENERGY PREDICTED BY IDOCK:   -3.35 KCAL/MOL
REMARK 923 INTER-LIGAND FREE ENERGY PREDICTED BY IDOCK:   -2.82 KCAL/MOL
REMARK 924 INTRA-LIGAND FREE ENERGY PREDICTED BY IDOCK:   -0.53 KCAL/MOL
REMARK 927      BINDING AFFINITY PREDICTED BY RF-SCORE:    0.00 PKD
ROOT
HETATM    1  C   UNL     1     -10.872   7.359  71.180  1.00  0.00    -0.242 C  
HETATM    2  N   UNL     1      -9.477   7.438  70.751  1.00  0.00    -0.167 NA 
HETATM    3  C   UNL     1      -9.319   7.119  69.323  1.00  0.00    -0.146 C  
HETATM    4  C   UNL     1      -9.871   8.185  68.361  1.00  0.00    -0.186 C  
HETATM    5  C   UNL     1      -9.302   9.568  68.654  1.00  0.00    -0.142 C  
HETATM    6  C   UNL     1      -8.888   8.760  71.030  1.00  0.00    -0.211 C  
HETATM    7  C   UNL     1      -9.406   9.904  70.137  1.00  0.00    -0.200 C  
ENDROOT
BRANCH   5   8
HETATM    8  C   UNL     1      -8.725  10.373  67.722  1.00  0.00    -0.122 A  
HETATM    9  C   UNL     1      -9.146  10.326  66.299  1.00  0.00    -0.178 A  
HETATM   10  C   UNL     1     -10.406  10.819  65.922  1.00  0.00    -0.302 A  
HETATM   11  C   UNL     1     -10.797  10.802  64.585  1.00  0.00    -0.027 A  
HETATM   12  C   UNL     1      -9.932  10.302  63.615  1.00  0.00    -0.065 A  
HETATM   13  C   UNL     1      -8.669   9.830  63.979  1.00  0.00    -0.235 A  
HETATM   14  C   UNL     1      -8.250   9.857  65.317  1.00  0.00    -0.145 A  
HETATM   15  C   UNL     1      -6.897   9.360  65.635  1.00  0.00    -0.078 A  
HETATM   16  C   UNL     1      -6.057   9.852  66.564  1.00  0.00    -0.064 A  
HETATM   17  C   UNL     1      -6.312  10.993  67.466  1.00  0.00    -0.062 A  
HETATM   18  C   UNL     1      -5.242  11.850  67.770  1.00  0.00    -0.062 A  
HETATM   19  C   UNL     1      -5.428  12.954  68.607  1.00  0.00    -0.065 A  
HETATM   20  C   UNL     1      -6.679  13.211  69.159  1.00  0.00    -0.089 A  
HETATM   21  C   UNL     1      -7.747  12.359  68.884  1.00  0.00     0.072 A  
HETATM   22  C   UNL     1      -7.568  11.239  68.055  1.00  0.00    -0.105 A  
ENDBRANCH   5   8
TORSDOF 1
ENDMDL
MODEL      181
REMARK 921   NORMALIZED FREE ENERGY PREDICTED BY IDOCK:   -2.25 KCAL/MOL
REMARK 922        TOTAL FREE ENERGY PREDICTED BY IDOCK:   -3.22 KCAL/MOL
REMARK 923 INTER-LIGAND FREE ENERGY PREDICTED BY IDOCK:   -2.68 KCAL/MOL
REMARK 924 INTRA-LIGAND FREE ENERGY PREDICTED BY IDOCK:   -0.54 KCAL/MOL
REMARK 927      BINDING AFFINITY PREDICTED BY RF-SCORE:    0.00 PKD
ROOT
HETATM    1  C   UNL     1      -9.771   3.565  70.423  1.00  0.00    -0.106 C  
HETATM    2  N   UNL     1      -8.470   4.035  69.953  1.00  0.00    -0.060 NA 
HETATM    3  C   UNL     1      -8.343   3.935  68.489  1.00  0.00    -0.082 C  
HETATM    4  C   UNL     1      -9.200   4.939  67.700  1.00  0.00    -0.138 C  
HETATM    5  C   UNL     1      -8.958   6.375  68.150  1.00  0.00    -0.116 C  
HETATM    6  C   UNL     1      -8.195   5.418  70.379  1.00  0.00    -0.105 C  
HETATM    7  C   UNL     1      -9.033   6.497  69.667  1.00  0.00    -0.141 C  
ENDROOT
BRANCH   5   8
HETATM    8  C   UNL     1      -8.658   7.401  67.310  1.00  0.00    -0.118 A  
HETATM    9  C   UNL     1      -7.791   7.195  66.123  1.00  0.00    -0.105 A  
HETATM   10  C   UNL     1      -8.264   6.458  65.026  1.00  0.00    -0.125 A  
HETATM   11  C   UNL     1      -7.465   6.282  63.898  1.00  0.00    -0.080 A  
HETATM   12  C   UNL     1      -6.193   6.848  63.854  1.00  0.00    -0.036 A  
HETATM   13  C   UNL     1      -5.723   7.602  64.932  1.00  0.00    -0.037 A  
HETATM   14  C   UNL     1      -6.521   7.806  66.067  1.00  0.00    -0.042 A  
HETATM   15  C   UNL     1      -5.974   8.627  67.165  1.00  0.00    -0.054 A  
HETATM   16  C   UNL     1      -6.658   9.482  67.948  1.00  0.00    -0.062 A  
HETATM   17  C   UNL     1      -8.103   9.778  67.876  1.00  0.00    -0.112 A  
HETATM   18  C   UNL     1      -8.523  11.095  68.119  1.00  0.00    -0.138 A  
HETATM   19  C   UNL     1      -9.876  11.437  68.051  1.00  0.00    -0.191 A  
HETATM   20  C   UNL     1     -10.829  10.467  67.751  1.00  0.00    -0.347 A  
HETATM   21  C   UNL     1     -10.431   9.150  67.528  1.00  0.00    -0.335 A  
HETATM   22  C   UNL     1      -9.075   8.794  67.607  1.00  0.00    -0.145 A  
ENDBRANCH   5   8
TORSDOF 1
ENDMDL
MODEL      182
REMARK 921   NORMALIZED FREE ENERGY PREDICTED BY IDOCK:   -2.21 KCAL/MOL
REMARK 922        TOTAL FREE ENERGY PREDICTED BY IDOCK:   -3.18 KCAL/MOL
REMARK 923 INTER-LIGAND FREE ENERGY PREDICTED BY IDOCK:   -2.55 KCAL/MOL
REMARK 924 INTRA-LIGAND FREE ENERGY PREDICTED BY IDOCK:   -0.63 KCAL/MOL
REMARK 927      BINDING AFFINITY PREDICTED BY RF-SCORE:    0.00 PKD
ROOT
HETATM    1  C   UNL     1      -7.097   9.859  64.525  1.00  0.00    -0.137 C  
HETATM    2  N   UNL     1      -7.930   8.659  64.500  1.00  0.00    -0.136 NA 
HETATM    3  C   UNL     1      -7.129   7.428  64.613  1.00  0.00    -0.057 C  
HETATM    4  C   UNL     1      -6.505   7.193  65.999  1.00  0.00    -0.051 C  
HETATM    5  C   UNL     1      -7.546   7.244  67.110  1.00  0.00    -0.103 C  
HETATM    6  C   UNL     1      -8.958   8.677  65.555  1.00  0.00    -0.158 C  
HETATM    7  C   UNL     1      -8.424   8.484  66.988  1.00  0.00    -0.114 C  
ENDROOT
BRANCH   5   8
HETATM    8  C   UNL     1      -7.706   6.279  68.055  1.00  0.00    -0.103 A  
HETATM    9  C   UNL     1      -7.893   4.856  67.677  1.00  0.00    -0.094 A  
HETATM   10  C   UNL     1      -6.822   4.125  67.136  1.00  0.00    -0.051 A  
HETATM   11  C   UNL     1      -6.983   2.782  66.803  1.00  0.00    -0.049 A  
HETATM   12  C   UNL     1      -8.209   2.157  67.014  1.00  0.00    -0.080 A  
HETATM   13  C   UNL     1      -9.273   2.870  67.572  1.00  0.00    -0.233 A  
HETATM   14  C   UNL     1      -9.123   4.217  67.932  1.00  0.00    -0.168 A  
HETATM   15  C   UNL     1     -10.280   4.910  68.533  1.00  0.00    -0.105 A  
HETATM   16  C   UNL     1     -10.244   5.840  69.504  1.00  0.00    -0.306 A  
HETATM   17  C   UNL     1      -9.039   6.368  70.175  1.00  0.00    -0.154 A  
HETATM   18  C   UNL     1      -9.117   6.663  71.545  1.00  0.00    -0.142 A  
HETATM   19  C   UNL     1      -8.004   7.151  72.235  1.00  0.00    -0.101 A  
HETATM   20  C   UNL     1      -6.802   7.362  71.565  1.00  0.00    -0.054 A  
HETATM   21  C   UNL     1      -6.713   7.094  70.200  1.00  0.00    -0.051 A  
HETATM   22  C   UNL     1      -7.830   6.616  69.495  1.00  0.00    -0.106 A  
ENDBRANCH   5   8
TORSDOF 1
ENDMDL
MODEL      183
REMARK 921   NORMALIZED FREE ENERGY PREDICTED BY IDOCK:   -2.19 KCAL/MOL
REMARK 922        TOTAL FREE ENERGY PREDICTED BY IDOCK:   -3.16 KCAL/MOL
REMARK 923 INTER-LIGAND FREE ENERGY PREDICTED BY IDOCK:   -2.34 KCAL/MOL
REMARK 924 INTRA-LIGAND FREE ENERGY PREDICTED BY IDOCK:   -0.82 KCAL/MOL
REMARK 927      BINDING AFFINITY PREDICTED BY RF-SCORE:    0.00 PKD
ROOT
HETATM    1  C   UNL     1     -10.252   4.089  63.711  1.00  0.00    -0.135 C  
HETATM    2  N   UNL     1      -9.988   3.793  65.117  1.00  0.00    -0.161 NA 
HETATM    3  C   UNL     1      -8.595   4.090  65.492  1.00  0.00    -0.114 C  
HETATM    4  C   UNL     1      -8.251   5.588  65.549  1.00  0.00    -0.130 C  
HETATM    5  C   UNL     1      -9.211   6.361  66.446  1.00  0.00    -0.176 C  
HETATM    6  C   UNL     1     -10.906   4.514  66.015  1.00  0.00     0.252 C  
HETATM    7  C   UNL     1     -10.662   6.033  66.113  1.00  0.00     0.195 C  
ENDROOT
BRANCH   5   8
HETATM    8  C   UNL     1      -8.821   7.192  67.450  1.00  0.00    -0.119 A  
HETATM    9  C   UNL     1      -8.483   6.665  68.795  1.00  0.00    -0.123 A  
HETATM   10  C   UNL     1      -7.310   5.917  68.983  1.00  0.00    -0.084 A  
HETATM   11  C   UNL     1      -6.971   5.441  70.248  1.00  0.00    -0.060 A  
HETATM   12  C   UNL     1      -7.796   5.717  71.336  1.00  0.00    -0.112 A  
HETATM   13  C   UNL     1      -8.954   6.480  71.163  1.00  0.00    -0.145 A  
HETATM   14  C   UNL     1      -9.299   6.983  69.900  1.00  0.00    -0.150 A  
HETATM   15  C   UNL     1     -10.526   7.797  69.785  1.00  0.00    -0.233 A  
HETATM   16  C   UNL     1     -10.710   8.865  68.988  1.00  0.00    -0.148 A  
HETATM   17  C   UNL     1      -9.726   9.448  68.054  1.00  0.00    -0.167 A  
HETATM   18  C   UNL     1      -9.697  10.844  67.907  1.00  0.00    -0.178 A  
HETATM   19  C   UNL     1      -8.777  11.453  67.049  1.00  0.00    -0.160 A  
HETATM   20  C   UNL     1      -7.882  10.677  66.318  1.00  0.00    -0.150 A  
HETATM   21  C   UNL     1      -7.910   9.288  66.437  1.00  0.00    -0.103 A  
HETATM   22  C   UNL     1      -8.840   8.667  67.287  1.00  0.00    -0.141 A  
ENDBRANCH   5   8
TORSDOF 1
ENDMDL
MODEL      184
REMARK 921   NORMALIZED FREE ENERGY PREDICTED BY IDOCK:   -2.17 KCAL/MOL
REMARK 922        TOTAL FREE ENERGY PREDICTED BY IDOCK:   -3.14 KCAL/MOL
REMARK 923 INTER-LIGAND FREE ENERGY PREDICTED BY IDOCK:   -2.32 KCAL/MOL
REMARK 924 INTRA-LIGAND FREE ENERGY PREDICTED BY IDOCK:   -0.82 KCAL/MOL
REMARK 927      BINDING AFFINITY PREDICTED BY RF-SCORE:    0.00 PKD
ROOT
HETATM    1  C   UNL     1     -10.640  16.808  64.727  1.00  0.00     0.307 C  
HETATM    2  N   UNL     1     -11.263  16.918  66.044  1.00  0.00     0.357 NA 
HETATM    3  C   UNL     1     -12.151  15.778  66.332  1.00  0.00     1.126 C  
HETATM    4  C   UNL     1     -11.425  14.445  66.579  1.00  0.00    -0.369 C  
HETATM    5  C   UNL     1     -10.362  14.567  67.664  1.00  0.00    -0.237 C  
HETATM    6  C   UNL     1     -10.265  17.049  67.119  1.00  0.00    -0.306 C  
HETATM    7  C   UNL     1      -9.459  15.770  67.419  1.00  0.00    -0.213 C  
ENDROOT
BRANCH   5   8
HETATM    8  C   UNL     1     -10.267  13.741  68.740  1.00  0.00    -0.168 A  
HETATM    9  C   UNL     1      -9.327  12.592  68.748  1.00  0.00     0.132 A  
HETATM   10  C   UNL     1      -7.943  12.817  68.819  1.00  0.00     0.069 A  
HETATM   11  C   UNL     1      -7.056  11.743  68.853  1.00  0.00    -0.114 A  
HETATM   12  C   UNL     1      -7.544  10.439  68.825  1.00  0.00    -0.097 A  
HETATM   13  C   UNL     1      -8.920  10.206  68.776  1.00  0.00    -0.147 A  
HETATM   14  C   UNL     1      -9.828  11.275  68.762  1.00  0.00    -0.194 A  
HETATM   15  C   UNL     1     -11.271  10.963  68.728  1.00  0.00    -0.329 A  
HETATM   16  C   UNL     1     -12.255  11.640  69.348  1.00  0.00    -0.246 A  
HETATM   17  C   UNL     1     -12.101  12.842  70.192  1.00  0.00    -0.373 A  
HETATM   18  C   UNL     1     -12.931  12.974  71.316  1.00  0.00    -0.330 A  
HETATM   19  C   UNL     1     -12.820  14.084  72.159  1.00  0.00    -0.410 A  
HETATM   20  C   UNL     1     -11.888  15.080  71.885  1.00  0.00    -0.455 A  
HETATM   21  C   UNL     1     -11.070  14.975  70.761  1.00  0.00    -0.227 A  
HETATM   22  C   UNL     1     -11.183  13.871  69.901  1.00  0.00    -0.093 A  
ENDBRANCH   5   8
TORSDOF 1
ENDMDL
MODEL      185
REMARK 921   NORMALIZED FREE ENERGY PREDICTED BY IDOCK:   -2.11 KCAL/MOL
REMARK 922        TOTAL FREE ENERGY PREDICTED BY IDOCK:   -3.08 KCAL/MOL
REMARK 923 INTER-LIGAND FREE ENERGY PREDICTED BY IDOCK:   -2.54 KCAL/MOL
REMARK 924 INTRA-LIGAND FREE ENERGY PREDICTED BY IDOCK:   -0.53 KCAL/MOL
REMARK 927      BINDING AFFINITY PREDICTED BY RF-SCORE:    0.00 PKD
ROOT
HETATM    1  C   UNL     1      -7.600   2.604  72.391  1.00  0.00    -0.052 C  
HETATM    2  N   UNL     1      -8.485   2.050  71.369  1.00  0.00    -0.056 NA 
HETATM    3  C   UNL     1      -9.576   2.977  71.022  1.00  0.00    -0.153 C  
HETATM    4  C   UNL     1      -9.135   4.221  70.233  1.00  0.00    -0.166 C  
HETATM    5  C   UNL     1      -8.343   3.855  68.984  1.00  0.00    -0.088 C  
HETATM    6  C   UNL     1      -7.751   1.673  70.149  1.00  0.00    -0.042 C  
HETATM    7  C   UNL     1      -7.237   2.856  69.306  1.00  0.00    -0.044 C  
ENDROOT
BRANCH   5   8
HETATM    8  C   UNL     1      -8.622   4.317  67.736  1.00  0.00    -0.107 A  
HETATM    9  C   UNL     1      -8.308   3.511  66.530  1.00  0.00    -0.101 A  
HETATM   10  C   UNL     1      -9.046   2.350  66.248  1.00  0.00    -0.079 A  
HETATM   11  C   UNL     1      -8.775   1.603  65.104  1.00  0.00    -0.113 A  
HETATM   12  C   UNL     1      -7.771   2.013  64.230  1.00  0.00    -0.064 A  
HETATM   13  C   UNL     1      -7.046   3.178  64.491  1.00  0.00    -0.057 A  
HETATM   14  C   UNL     1      -7.320   3.953  65.627  1.00  0.00    -0.073 A  
HETATM   15  C   UNL     1      -6.531   5.183  65.838  1.00  0.00    -0.040 A  
HETATM   16  C   UNL     1      -6.974   6.344  66.355  1.00  0.00    -0.067 A  
HETATM   17  C   UNL     1      -8.344   6.634  66.824  1.00  0.00    -0.115 A  
HETATM   18  C   UNL     1      -8.866   7.916  66.596  1.00  0.00    -0.166 A  
HETATM   19  C   UNL     1     -10.162   8.243  67.005  1.00  0.00    -0.380 A  
HETATM   20  C   UNL     1     -10.949   7.298  67.657  1.00  0.00    -0.181 A  
HETATM   21  C   UNL     1     -10.439   6.026  67.909  1.00  0.00    -0.294 A  
HETATM   22  C   UNL     1      -9.133   5.692  67.514  1.00  0.00    -0.106 A  
ENDBRANCH   5   8
TORSDOF 1
ENDMDL
MODEL      186
REMARK 921   NORMALIZED FREE ENERGY PREDICTED BY IDOCK:   -2.08 KCAL/MOL
REMARK 922        TOTAL FREE ENERGY PREDICTED BY IDOCK:   -3.05 KCAL/MOL
REMARK 923 INTER-LIGAND FREE ENERGY PREDICTED BY IDOCK:   -2.46 KCAL/MOL
REMARK 924 INTRA-LIGAND FREE ENERGY PREDICTED BY IDOCK:   -0.59 KCAL/MOL
REMARK 927      BINDING AFFINITY PREDICTED BY RF-SCORE:    0.00 PKD
ROOT
HETATM    1  C   UNL     1     -10.688  10.669  68.868  1.00  0.00    -0.219 C  
HETATM    2  N   UNL     1      -9.785   9.801  69.621  1.00  0.00    -0.209 NA 
HETATM    3  C   UNL     1     -10.326   8.440  69.775  1.00  0.00    -0.216 C  
HETATM    4  C   UNL     1     -10.348   7.609  68.481  1.00  0.00    -0.225 C  
HETATM    5  C   UNL     1      -8.980   7.556  67.813  1.00  0.00    -0.131 C  
HETATM    6  C   UNL     1      -8.447   9.735  69.011  1.00  0.00    -0.137 C  
HETATM    7  C   UNL     1      -8.373   8.948  67.687  1.00  0.00    -0.110 C  
ENDROOT
BRANCH   5   8
HETATM    8  C   UNL     1      -8.358   6.409  67.429  1.00  0.00    -0.112 A  
HETATM    9  C   UNL     1      -8.302   5.228  68.326  1.00  0.00    -0.097 A  
HETATM   10  C   UNL     1      -9.467   4.488  68.588  1.00  0.00    -0.220 A  
HETATM   11  C   UNL     1      -9.418   3.363  69.408  1.00  0.00    -0.221 A  
HETATM   12  C   UNL     1      -8.205   2.963  69.965  1.00  0.00    -0.068 A  
HETATM   13  C   UNL     1      -7.038   3.680  69.692  1.00  0.00    -0.042 A  
HETATM   14  C   UNL     1      -7.065   4.803  68.852  1.00  0.00    -0.053 A  
HETATM   15  C   UNL     1      -5.795   5.507  68.588  1.00  0.00    -0.016 A  
HETATM   16  C   UNL     1      -5.421   6.084  67.432  1.00  0.00    -0.005 A  
HETATM   17  C   UNL     1      -6.203   6.138  66.180  1.00  0.00    -0.037 A  
HETATM   18  C   UNL     1      -5.515   6.027  64.963  1.00  0.00    -0.017 A  
HETATM   19  C   UNL     1      -6.204   6.057  63.747  1.00  0.00    -0.025 A  
HETATM   20  C   UNL     1      -7.588   6.210  63.731  1.00  0.00    -0.089 A  
HETATM   21  C   UNL     1      -8.285   6.341  64.931  1.00  0.00    -0.119 A  
HETATM   22  C   UNL     1      -7.599   6.326  66.157  1.00  0.00    -0.090 A  
ENDBRANCH   5   8
TORSDOF 1
ENDMDL
MODEL      187
REMARK 921   NORMALIZED FREE ENERGY PREDICTED BY IDOCK:   -2.06 KCAL/MOL
REMARK 922        TOTAL FREE ENERGY PREDICTED BY IDOCK:   -3.02 KCAL/MOL
REMARK 923 INTER-LIGAND FREE ENERGY PREDICTED BY IDOCK:   -2.38 KCAL/MOL
REMARK 924 INTRA-LIGAND FREE ENERGY PREDICTED BY IDOCK:   -0.65 KCAL/MOL
REMARK 927      BINDING AFFINITY PREDICTED BY RF-SCORE:    0.00 PKD
ROOT
HETATM    1  C   UNL     1     -11.101   1.575  63.105  1.00  0.00    -0.224 C  
HETATM    2  N   UNL     1     -10.005   2.521  62.909  1.00  0.00    -0.097 NA 
HETATM    3  C   UNL     1     -10.376   3.888  63.309  1.00  0.00    -0.182 C  
HETATM    4  C   UNL     1     -10.531   4.094  64.825  1.00  0.00    -0.194 C  
HETATM    5  C   UNL     1      -9.295   3.642  65.592  1.00  0.00    -0.162 C  
HETATM    6  C   UNL     1      -8.786   2.110  63.627  1.00  0.00    -0.085 C  
HETATM    7  C   UNL     1      -8.856   2.247  65.161  1.00  0.00    -0.121 C  
ENDROOT
BRANCH   5   8
HETATM    8  C   UNL     1      -8.635   4.407  66.503  1.00  0.00    -0.112 A  
HETATM    9  C   UNL     1      -8.111   5.748  66.145  1.00  0.00    -0.108 A  
HETATM   10  C   UNL     1      -8.998   6.813  65.918  1.00  0.00    -0.095 A  
HETATM   11  C   UNL     1      -8.513   8.081  65.607  1.00  0.00    -0.162 A  
HETATM   12  C   UNL     1      -7.139   8.298  65.528  1.00  0.00    -0.067 A  
HETATM   13  C   UNL     1      -6.249   7.250  65.774  1.00  0.00    -0.038 A  
HETATM   14  C   UNL     1      -6.719   5.972  66.108  1.00  0.00    -0.060 A  
HETATM   15  C   UNL     1      -5.727   4.911  66.373  1.00  0.00    -0.018 A  
HETATM   16  C   UNL     1      -5.826   3.928  67.286  1.00  0.00    -0.023 A  
HETATM   17  C   UNL     1      -6.950   3.699  68.216  1.00  0.00    -0.050 A  
HETATM   18  C   UNL     1      -6.657   3.242  69.511  1.00  0.00    -0.033 A  
HETATM   19  C   UNL     1      -7.679   3.022  70.439  1.00  0.00    -0.043 A  
HETATM   20  C   UNL     1      -9.006   3.244  70.083  1.00  0.00    -0.171 A  
HETATM   21  C   UNL     1      -9.316   3.678  68.796  1.00  0.00    -0.231 A  
HETATM   22  C   UNL     1      -8.297   3.889  67.852  1.00  0.00    -0.099 A  
ENDBRANCH   5   8
TORSDOF 1
ENDMDL
MODEL      188
REMARK 921   NORMALIZED FREE ENERGY PREDICTED BY IDOCK:   -1.96 KCAL/MOL
REMARK 922        TOTAL FREE ENERGY PREDICTED BY IDOCK:   -2.91 KCAL/MOL
REMARK 923 INTER-LIGAND FREE ENERGY PREDICTED BY IDOCK:   -2.17 KCAL/MOL
REMARK 924 INTRA-LIGAND FREE ENERGY PREDICTED BY IDOCK:   -0.74 KCAL/MOL
REMARK 927      BINDING AFFINITY PREDICTED BY RF-SCORE:    0.00 PKD
ROOT
HETATM    1  C   UNL     1      -6.676   6.964  74.087  1.00  0.00    -0.082 C  
HETATM    2  N   UNL     1      -6.413   6.128  72.917  1.00  0.00    -0.063 NA 
HETATM    3  C   UNL     1      -7.655   5.700  72.253  1.00  0.00    -0.101 C  
HETATM    4  C   UNL     1      -8.408   6.820  71.516  1.00  0.00    -0.115 C  
HETATM    5  C   UNL     1      -7.513   7.555  70.527  1.00  0.00    -0.080 C  
HETATM    6  C   UNL     1      -5.539   6.803  71.942  1.00  0.00    -0.037 C  
HETATM    7  C   UNL     1      -6.196   7.966  71.174  1.00  0.00    -0.034 C  
ENDROOT
BRANCH   5   8
HETATM    8  C   UNL     1      -7.826   7.767  69.221  1.00  0.00    -0.116 A  
HETATM    9  C   UNL     1      -8.948   8.659  68.834  1.00  0.00    -0.142 A  
HETATM   10  C   UNL     1      -8.836  10.048  69.015  1.00  0.00    -0.159 A  
HETATM   11  C   UNL     1      -9.874  10.894  68.630  1.00  0.00    -0.194 A  
HETATM   12  C   UNL     1     -11.025  10.362  68.054  1.00  0.00    -0.347 A  
HETATM   13  C   UNL     1     -11.135   8.985  67.850  1.00  0.00     0.164 A  
HETATM   14  C   UNL     1     -10.092   8.120  68.213  1.00  0.00    -0.230 A  
HETATM   15  C   UNL     1     -10.262   6.676  67.955  1.00  0.00    -0.203 A  
HETATM   16  C   UNL     1      -9.306   5.810  67.573  1.00  0.00    -0.111 A  
HETATM   17  C   UNL     1      -7.882   6.118  67.335  1.00  0.00    -0.098 A  
HETATM   18  C   UNL     1      -7.226   5.454  66.288  1.00  0.00    -0.077 A  
HETATM   19  C   UNL     1      -5.881   5.716  66.007  1.00  0.00    -0.018 A  
HETATM   20  C   UNL     1      -5.173   6.636  66.774  1.00  0.00    -0.013 A  
HETATM   21  C   UNL     1      -5.803   7.289  67.831  1.00  0.00    -0.030 A  
HETATM   22  C   UNL     1      -7.150   7.022  68.130  1.00  0.00    -0.085 A  
ENDBRANCH   5   8
TORSDOF 1
ENDMDL
MODEL      189
REMARK 921   NORMALIZED FREE ENERGY PREDICTED BY IDOCK:   -1.58 KCAL/MOL
REMARK 922        TOTAL FREE ENERGY PREDICTED BY IDOCK:   -2.51 KCAL/MOL
REMARK 923 INTER-LIGAND FREE ENERGY PREDICTED BY IDOCK:   -2.04 KCAL/MOL
REMARK 924 INTRA-LIGAND FREE ENERGY PREDICTED BY IDOCK:   -0.47 KCAL/MOL
REMARK 927      BINDING AFFINITY PREDICTED BY RF-SCORE:    0.00 PKD
ROOT
HETATM    1  C   UNL     1     -11.134  11.338  64.177  1.00  0.00    -0.233 C  
HETATM    2  N   UNL     1     -10.009  10.510  64.605  1.00  0.00    -0.331 NA 
HETATM    3  C   UNL     1      -8.823  11.318  64.936  1.00  0.00     0.100 C  
HETATM    4  C   UNL     1      -8.948  12.143  66.228  1.00  0.00    -0.094 C  
HETATM    5  C   UNL     1      -9.344  11.281  67.420  1.00  0.00    -0.168 C  
HETATM    6  C   UNL     1     -10.358   9.653  65.751  1.00  0.00     0.040 C  
HETATM    7  C   UNL     1     -10.540  10.396  67.088  1.00  0.00    -0.319 C  
ENDROOT
BRANCH   5   8
HETATM    8  C   UNL     1      -8.682  11.264  68.608  1.00  0.00    -0.136 A  
HETATM    9  C   UNL     1      -7.745  12.353  68.981  1.00  0.00     0.170 A  
HETATM   10  C   UNL     1      -8.240  13.629  69.296  1.00  0.00     0.525 A  
HETATM   11  C   UNL     1      -7.369  14.649  69.673  1.00  0.00    -0.064 A  
HETATM   12  C   UNL     1      -6.001  14.401  69.747  1.00  0.00    -0.119 A  
HETATM   13  C   UNL     1      -5.502  13.129  69.458  1.00  0.00    -0.083 A  
HETATM   14  C   UNL     1      -6.366  12.085  69.096  1.00  0.00    -0.093 A  
HETATM   15  C   UNL     1      -5.779  10.758  68.820  1.00  0.00    -0.040 A  
HETATM   16  C   UNL     1      -6.319   9.562  69.117  1.00  0.00    -0.041 A  
HETATM   17  C   UNL     1      -7.617   9.322  69.779  1.00  0.00    -0.082 A  
HETATM   18  C   UNL     1      -7.713   8.249  70.678  1.00  0.00    -0.083 A  
HETATM   19  C   UNL     1      -8.913   7.982  71.345  1.00  0.00    -0.173 A  
HETATM   20  C   UNL     1     -10.033   8.775  71.115  1.00  0.00    -0.317 A  
HETATM   21  C   UNL     1      -9.960   9.832  70.210  1.00  0.00    -0.309 A  
HETATM   22  C   UNL     1      -8.764  10.100  69.525  1.00  0.00    -0.189 A  
ENDBRANCH   5   8
TORSDOF 1
ENDMDL
MODEL      190
REMARK 921   NORMALIZED FREE ENERGY PREDICTED BY IDOCK:   -1.42 KCAL/MOL
REMARK 922        TOTAL FREE ENERGY PREDICTED BY IDOCK:   -2.35 KCAL/MOL
REMARK 923 INTER-LIGAND FREE ENERGY PREDICTED BY IDOCK:   -1.63 KCAL/MOL
REMARK 924 INTRA-LIGAND FREE ENERGY PREDICTED BY IDOCK:   -0.72 KCAL/MOL
REMARK 927      BINDING AFFINITY PREDICTED BY RF-SCORE:    0.00 PKD
ROOT
HETATM    1  C   UNL     1     -10.370   3.778  63.643  1.00  0.00    -0.226 C  
HETATM    2  N   UNL     1     -10.316   3.402  65.054  1.00  0.00     0.124 NA 
HETATM    3  C   UNL     1      -9.002   2.853  65.430  1.00  0.00    -0.144 C  
HETATM    4  C   UNL     1      -7.863   3.885  65.468  1.00  0.00    -0.093 C  
HETATM    5  C   UNL     1      -8.202   5.079  66.351  1.00  0.00    -0.108 C  
HETATM    6  C   UNL     1     -10.651   4.531  65.940  1.00  0.00    -0.152 C  
HETATM    7  C   UNL     1      -9.581   5.637  66.018  1.00  0.00    -0.104 C  
ENDROOT
BRANCH   5   8
HETATM    8  C   UNL     1      -7.402   5.551  67.344  1.00  0.00    -0.076 A  
HETATM    9  C   UNL     1      -7.141   4.750  68.566  1.00  0.00    -0.057 A  
HETATM   10  C   UNL     1      -6.343   3.596  68.494  1.00  0.00    -0.033 A  
HETATM   11  C   UNL     1      -6.072   2.854  69.641  1.00  0.00    -0.024 A  
HETATM   12  C   UNL     1      -6.587   3.262  70.869  1.00  0.00    -0.031 A  
HETATM   13  C   UNL     1      -7.364   4.420  70.954  1.00  0.00    -0.048 A  
HETATM   14  C   UNL     1      -7.630   5.190  69.813  1.00  0.00    -0.061 A  
HETATM   15  C   UNL     1      -8.442   6.413  69.971  1.00  0.00    -0.135 A  
HETATM   16  C   UNL     1      -8.285   7.574  69.309  1.00  0.00    -0.130 A  
HETATM   17  C   UNL     1      -7.268   7.871  68.280  1.00  0.00    -0.090 A  
HETATM   18  C   UNL     1      -6.712   9.159  68.250  1.00  0.00    -0.060 A  
HETATM   19  C   UNL     1      -5.735   9.493  67.307  1.00  0.00    -0.040 A  
HETATM   20  C   UNL     1      -5.310   8.549  66.376  1.00  0.00    -0.031 A  
HETATM   21  C   UNL     1      -5.867   7.272  66.379  1.00  0.00    -0.035 A  
HETATM   22  C   UNL     1      -6.859   6.931  67.314  1.00  0.00    -0.072 A  
ENDBRANCH   5   8
TORSDOF 1
ENDMDL
MODEL      191
REMARK 921   NORMALIZED FREE ENERGY PREDICTED BY IDOCK:   -1.39 KCAL/MOL
REMARK 922        TOTAL FREE ENERGY PREDICTED BY IDOCK:   -2.32 KCAL/MOL
REMARK 923 INTER-LIGAND FREE ENERGY PREDICTED BY IDOCK:   -1.80 KCAL/MOL
REMARK 924 INTRA-LIGAND FREE ENERGY PREDICTED BY IDOCK:   -0.52 KCAL/MOL
REMARK 927      BINDING AFFINITY PREDICTED BY RF-SCORE:    0.00 PKD
ROOT
HETATM    1  C   UNL     1     -10.722  12.829  66.326  1.00  0.00    -0.270 C  
HETATM    2  N   UNL     1      -9.394  12.306  66.640  1.00  0.00    -0.224 NA 
HETATM    3  C   UNL     1      -9.192  12.143  68.089  1.00  0.00    -0.197 C  
HETATM    4  C   UNL     1      -9.998  10.999  68.725  1.00  0.00    -0.215 C  
HETATM    5  C   UNL     1      -9.766   9.672  68.013  1.00  0.00    -0.167 C  
HETATM    6  C   UNL     1      -9.128  11.027  65.958  1.00  0.00    -0.195 C  
HETATM    7  C   UNL     1      -9.919   9.822  66.504  1.00  0.00    -0.304 C  
ENDROOT
BRANCH   5   8
HETATM    8  C   UNL     1      -9.414   8.517  68.639  1.00  0.00    -0.144 A  
HETATM    9  C   UNL     1      -8.585   8.531  69.869  1.00  0.00    -0.131 A  
HETATM   10  C   UNL     1      -9.127   9.000  71.077  1.00  0.00    -0.322 A  
HETATM   11  C   UNL     1      -8.364   8.993  72.242  1.00  0.00     0.362 A  
HETATM   12  C   UNL     1      -7.058   8.509  72.213  1.00  0.00    -0.091 A  
HETATM   13  C   UNL     1      -6.518   8.021  71.021  1.00  0.00    -0.037 A  
HETATM   14  C   UNL     1      -7.279   8.002  69.843  1.00  0.00    -0.061 A  
HETATM   15  C   UNL     1      -6.657   7.457  68.620  1.00  0.00    -0.045 A  
HETATM   16  C   UNL     1      -7.267   6.737  67.660  1.00  0.00    -0.094 A  
HETATM   17  C   UNL     1      -8.690   6.344  67.624  1.00  0.00    -0.114 A  
HETATM   18  C   UNL     1      -9.015   5.080  67.108  1.00  0.00    -0.112 A  
HETATM   19  C   UNL     1     -10.344   4.648  67.062  1.00  0.00    -0.115 A  
HETATM   20  C   UNL     1     -11.365   5.475  67.520  1.00  0.00     1.074 A  
HETATM   21  C   UNL     1     -11.061   6.742  68.016  1.00  0.00    -0.246 A  
HETATM   22  C   UNL     1      -9.731   7.190  68.054  1.00  0.00    -0.152 A  
ENDBRANCH   5   8
TORSDOF 1
ENDMDL
MODEL      192
REMARK 921   NORMALIZED FREE ENERGY PREDICTED BY IDOCK:   -1.07 KCAL/MOL
REMARK 922        TOTAL FREE ENERGY PREDICTED BY IDOCK:   -1.98 KCAL/MOL
REMARK 923 INTER-LIGAND FREE ENERGY PREDICTED BY IDOCK:   -1.54 KCAL/MOL
REMARK 924 INTRA-LIGAND FREE ENERGY PREDICTED BY IDOCK:   -0.43 KCAL/MOL
REMARK 927      BINDING AFFINITY PREDICTED BY RF-SCORE:    0.00 PKD
ROOT
HETATM    1  C   UNL     1      -8.009  15.226  69.978  1.00  0.00     0.270 C  
HETATM    2  N   UNL     1      -7.507  15.160  68.607  1.00  0.00    -0.117 NA 
HETATM    3  C   UNL     1      -6.748  13.923  68.357  1.00  0.00    -0.099 C  
HETATM    4  C   UNL     1      -7.602  12.645  68.305  1.00  0.00    -0.133 C  
HETATM    5  C   UNL     1      -8.750  12.765  67.310  1.00  0.00    -0.200 C  
HETATM    6  C   UNL     1      -8.589  15.285  67.616  1.00  0.00    -0.169 C  
HETATM    7  C   UNL     1      -9.523  14.063  67.514  1.00  0.00    -0.221 C  
ENDROOT
BRANCH   5   8
HETATM    8  C   UNL     1      -9.015  11.858  66.332  1.00  0.00    -0.180 A  
HETATM    9  C   UNL     1     -10.201  12.002  65.451  1.00  0.00    -0.295 A  
HETATM   10  C   UNL     1     -10.243  13.026  64.491  1.00  0.00    -0.331 A  
HETATM   11  C   UNL     1     -11.341  13.152  63.643  1.00  0.00    -0.307 A  
HETATM   12  C   UNL     1     -12.400  12.252  63.741  1.00  0.00    -0.637 A  
HETATM   13  C   UNL     1     -12.356  11.217  64.679  1.00  0.00     1.133 A  
HETATM   14  C   UNL     1     -11.250  11.064  65.526  1.00  0.00     0.105 A  
HETATM   15  C   UNL     1     -11.256   9.940  66.484  1.00  0.00     0.617 A  
HETATM   16  C   UNL     1     -10.197   9.203  66.865  1.00  0.00    -0.336 A  
HETATM   17  C   UNL     1      -8.802   9.363  66.409  1.00  0.00    -0.167 A  
HETATM   18  C   UNL     1      -8.027   8.207  66.225  1.00  0.00    -0.101 A  
HETATM   19  C   UNL     1      -6.705   8.298  65.781  1.00  0.00    -0.053 A  
HETATM   20  C   UNL     1      -6.135   9.542  65.526  1.00  0.00    -0.065 A  
HETATM   21  C   UNL     1      -6.884  10.701  65.723  1.00  0.00    -0.098 A  
HETATM   22  C   UNL     1      -8.209  10.621  66.182  1.00  0.00    -0.156 A  
ENDBRANCH   5   8
TORSDOF 1
ENDMDL
MODEL      193
REMARK 921   NORMALIZED FREE ENERGY PREDICTED BY IDOCK:   -1.07 KCAL/MOL
REMARK 922        TOTAL FREE ENERGY PREDICTED BY IDOCK:   -1.97 KCAL/MOL
REMARK 923 INTER-LIGAND FREE ENERGY PREDICTED BY IDOCK:   -1.31 KCAL/MOL
REMARK 924 INTRA-LIGAND FREE ENERGY PREDICTED BY IDOCK:   -0.66 KCAL/MOL
REMARK 927      BINDING AFFINITY PREDICTED BY RF-SCORE:    0.00 PKD
ROOT
HETATM    1  C   UNL     1     -10.411   9.209  66.652  1.00  0.00    -0.218 C  
HETATM    2  N   UNL     1      -9.065   9.712  66.919  1.00  0.00    -0.137 NA 
HETATM    3  C   UNL     1      -8.641  10.710  65.922  1.00  0.00    -0.172 C  
HETATM    4  C   UNL     1      -9.368  12.062  66.018  1.00  0.00    -0.196 C  
HETATM    5  C   UNL     1      -9.289  12.655  67.419  1.00  0.00    -0.189 C  
HETATM    6  C   UNL     1      -8.947  10.284  68.271  1.00  0.00    -0.132 C  
HETATM    7  C   UNL     1      -9.674  11.627  68.476  1.00  0.00    -0.187 C  
ENDROOT
BRANCH   5   8
HETATM    8  C   UNL     1      -8.874  13.921  67.693  1.00  0.00    -0.191 A  
HETATM    9  C   UNL     1      -7.809  14.181  68.694  1.00  0.00    -0.137 A  
HETATM   10  C   UNL     1      -6.480  13.824  68.415  1.00  0.00    -0.099 A  
HETATM   11  C   UNL     1      -5.470  14.088  69.338  1.00  0.00    -0.083 A  
HETATM   12  C   UNL     1      -5.779  14.718  70.541  1.00  0.00    -0.152 A  
HETATM   13  C   UNL     1      -7.095  15.097  70.818  1.00  0.00     0.832 A  
HETATM   14  C   UNL     1      -8.120  14.856  69.891  1.00  0.00     0.238 A  
HETATM   15  C   UNL     1      -9.487  15.296  70.235  1.00  0.00     0.458 A  
HETATM   16  C   UNL     1     -10.408  15.793  69.389  1.00  0.00    -0.263 A  
HETATM   17  C   UNL     1     -10.248  16.002  67.936  1.00  0.00    -0.258 A  
HETATM   18  C   UNL     1     -10.848  17.131  67.359  1.00  0.00    -0.164 A  
HETATM   19  C   UNL     1     -10.719  17.388  65.990  1.00  0.00    -0.122 A  
HETATM   20  C   UNL     1      -9.999  16.514  65.180  1.00  0.00     0.408 A  
HETATM   21  C   UNL     1      -9.414  15.377  65.734  1.00  0.00    -0.325 A  
HETATM   22  C   UNL     1      -9.550  15.104  67.105  1.00  0.00    -0.224 A  
ENDBRANCH   5   8
TORSDOF 1
ENDMDL
MODEL      194
REMARK 921   NORMALIZED FREE ENERGY PREDICTED BY IDOCK:   -0.95 KCAL/MOL
REMARK 922        TOTAL FREE ENERGY PREDICTED BY IDOCK:   -1.85 KCAL/MOL
REMARK 923 INTER-LIGAND FREE ENERGY PREDICTED BY IDOCK:   -1.31 KCAL/MOL
REMARK 924 INTRA-LIGAND FREE ENERGY PREDICTED BY IDOCK:   -0.54 KCAL/MOL
REMARK 927      BINDING AFFINITY PREDICTED BY RF-SCORE:    0.00 PKD
ROOT
HETATM    1  C   UNL     1     -11.395   1.843  62.347  1.00  0.00    -0.221 C  
HETATM    2  N   UNL     1     -11.169   2.223  63.740  1.00  0.00    -0.069 NA 
HETATM    3  C   UNL     1     -10.024   1.508  64.329  1.00  0.00     0.014 C  
HETATM    4  C   UNL     1      -8.651   1.943  63.793  1.00  0.00    -0.081 C  
HETATM    5  C   UNL     1      -8.443   3.448  63.908  1.00  0.00    -0.090 C  
HETATM    6  C   UNL     1     -10.976   3.675  63.892  1.00  0.00    -0.069 C  
HETATM    7  C   UNL     1      -9.637   4.214  63.351  1.00  0.00    -0.130 C  
ENDROOT
BRANCH   5   8
HETATM    8  C   UNL     1      -7.357   4.030  64.484  1.00  0.00    -0.071 A  
HETATM    9  C   UNL     1      -6.713   3.439  65.683  1.00  0.00    -0.044 A  
HETATM   10  C   UNL     1      -5.990   2.240  65.573  1.00  0.00    -0.018 A  
HETATM   11  C   UNL     1      -5.361   1.692  66.689  1.00  0.00    -0.012 A  
HETATM   12  C   UNL     1      -5.441   2.341  67.918  1.00  0.00    -0.017 A  
HETATM   13  C   UNL     1      -6.139   3.545  68.032  1.00  0.00    -0.031 A  
HETATM   14  C   UNL     1      -6.761   4.121  66.915  1.00  0.00    -0.047 A  
HETATM   15  C   UNL     1      -7.469   5.405  67.096  1.00  0.00    -0.084 A  
HETATM   16  C   UNL     1      -7.531   6.419  66.215  1.00  0.00    -0.085 A  
HETATM   17  C   UNL     1      -6.909   6.464  64.877  1.00  0.00    -0.050 A  
HETATM   18  C   UNL     1      -6.386   7.687  64.429  1.00  0.00    -0.048 A  
HETATM   19  C   UNL     1      -5.772   7.785  63.177  1.00  0.00    -0.055 A  
HETATM   20  C   UNL     1      -5.683   6.668  62.351  1.00  0.00    -0.031 A  
HETATM   21  C   UNL     1      -6.215   5.451  62.772  1.00  0.00    -0.021 A  
HETATM   22  C   UNL     1      -6.846   5.345  64.023  1.00  0.00    -0.046 A  
ENDBRANCH   5   8
TORSDOF 1
ENDMDL
MODEL      195
REMARK 921   NORMALIZED FREE ENERGY PREDICTED BY IDOCK:   -0.95 KCAL/MOL
REMARK 922        TOTAL FREE ENERGY PREDICTED BY IDOCK:   -1.85 KCAL/MOL
REMARK 923 INTER-LIGAND FREE ENERGY PREDICTED BY IDOCK:   -1.41 KCAL/MOL
REMARK 924 INTRA-LIGAND FREE ENERGY PREDICTED BY IDOCK:   -0.44 KCAL/MOL
REMARK 927      BINDING AFFINITY PREDICTED BY RF-SCORE:    0.00 PKD
ROOT
HETATM    1  C   UNL     1     -12.140  15.992  69.141  1.00  0.00    -0.053 C  
HETATM    2  N   UNL     1     -10.761  15.985  68.657  1.00  0.00    -0.264 NA 
HETATM    3  C   UNL     1      -9.853  15.291  69.585  1.00  0.00    -0.216 C  
HETATM    4  C   UNL     1     -10.037  13.766  69.645  1.00  0.00     0.699 C  
HETATM    5  C   UNL     1      -9.961  13.127  68.264  1.00  0.00    -0.236 C  
HETATM    6  C   UNL     1     -10.649  15.384  67.316  1.00  0.00    -0.294 C  
HETATM    7  C   UNL     1     -10.854  13.857  67.267  1.00  0.00    -0.292 C  
ENDROOT
BRANCH   5   8
HETATM    8  C   UNL     1      -9.157  12.076  67.948  1.00  0.00    -0.183 A  
HETATM    9  C   UNL     1      -9.222  11.433  66.612  1.00  0.00    -0.191 A  
HETATM   10  C   UNL     1      -8.747  12.115  65.480  1.00  0.00     0.576 A  
HETATM   11  C   UNL     1      -8.780  11.508  64.226  1.00  0.00     0.544 A  
HETATM   12  C   UNL     1      -9.279  10.214  64.095  1.00  0.00    -0.314 A  
HETATM   13  C   UNL     1      -9.733   9.520  65.219  1.00  0.00    -0.268 A  
HETATM   14  C   UNL     1      -9.688  10.108  66.491  1.00  0.00    -0.252 A  
HETATM   15  C   UNL     1     -10.167   9.317  67.642  1.00  0.00    -0.285 A  
HETATM   16  C   UNL     1      -9.656   9.319  68.887  1.00  0.00    -0.155 A  
HETATM   17  C   UNL     1      -8.511  10.116  69.369  1.00  0.00    -0.179 A  
HETATM   18  C   UNL     1      -7.639   9.530  70.299  1.00  0.00    -0.162 A  
HETATM   19  C   UNL     1      -6.529  10.232  70.779  1.00  0.00     0.002 A  
HETATM   20  C   UNL     1      -6.282  11.532  70.345  1.00  0.00    -0.020 A  
HETATM   21  C   UNL     1      -7.149  12.136  69.436  1.00  0.00     0.112 A  
HETATM   22  C   UNL     1      -8.274  11.443  68.959  1.00  0.00     0.015 A  
ENDBRANCH   5   8
TORSDOF 1
ENDMDL
MODEL      196
REMARK 921   NORMALIZED FREE ENERGY PREDICTED BY IDOCK:   -0.88 KCAL/MOL
REMARK 922        TOTAL FREE ENERGY PREDICTED BY IDOCK:   -1.77 KCAL/MOL
REMARK 923 INTER-LIGAND FREE ENERGY PREDICTED BY IDOCK:   -1.33 KCAL/MOL
REMARK 924 INTRA-LIGAND FREE ENERGY PREDICTED BY IDOCK:   -0.44 KCAL/MOL
REMARK 927      BINDING AFFINITY PREDICTED BY RF-SCORE:    0.00 PKD
ROOT
HETATM    1  C   UNL     1      -6.012  16.602  69.546  1.00  0.00    -0.205 C  
HETATM    2  N   UNL     1      -6.845  16.442  68.356  1.00  0.00    -0.138 NA 
HETATM    3  C   UNL     1      -6.247  15.511  67.384  1.00  0.00    -0.037 C  
HETATM    4  C   UNL     1      -6.256  14.036  67.817  1.00  0.00    -0.152 C  
HETATM    5  C   UNL     1      -7.651  13.563  68.204  1.00  0.00    -0.138 C  
HETATM    6  C   UNL     1      -8.208  15.996  68.693  1.00  0.00    -0.193 C  
HETATM    7  C   UNL     1      -8.315  14.535  69.172  1.00  0.00    -0.001 C  
ENDROOT
BRANCH   5   8
HETATM    8  C   UNL     1      -8.248  12.447  67.706  1.00  0.00    -0.163 A  
HETATM    9  C   UNL     1      -7.615  11.655  66.622  1.00  0.00    -0.050 A  
HETATM   10  C   UNL     1      -6.460  10.900  66.886  1.00  0.00    -0.097 A  
HETATM   11  C   UNL     1      -5.875  10.133  65.880  1.00  0.00    -0.078 A  
HETATM   12  C   UNL     1      -6.442  10.108  64.608  1.00  0.00    -0.125 A  
HETATM   13  C   UNL     1      -7.603  10.839  64.344  1.00  0.00     0.314 A  
HETATM   14  C   UNL     1      -8.217  11.599  65.349  1.00  0.00     0.648 A  
HETATM   15  C   UNL     1      -9.452  12.335  65.011  1.00  0.00     0.132 A  
HETATM   16  C   UNL     1     -10.515  12.533  65.812  1.00  0.00    -0.296 A  
HETATM   17  C   UNL     1     -10.671  12.059  67.201  1.00  0.00    -0.277 A  
HETATM   18  C   UNL     1     -11.943  11.636  67.619  1.00  0.00    -0.086 A  
HETATM   19  C   UNL     1     -12.148  11.164  68.918  1.00  0.00    -0.276 A  
HETATM   20  C   UNL     1     -11.089  11.117  69.821  1.00  0.00    -0.271 A  
HETATM   21  C   UNL     1      -9.824  11.552  69.429  1.00  0.00     0.358 A  
HETATM   22  C   UNL     1      -9.612  12.041  68.130  1.00  0.00    -0.200 A  
ENDBRANCH   5   8
TORSDOF 1
ENDMDL
MODEL      197
REMARK 921   NORMALIZED FREE ENERGY PREDICTED BY IDOCK:   -0.83 KCAL/MOL
REMARK 922        TOTAL FREE ENERGY PREDICTED BY IDOCK:   -1.72 KCAL/MOL
REMARK 923 INTER-LIGAND FREE ENERGY PREDICTED BY IDOCK:   -1.08 KCAL/MOL
REMARK 924 INTRA-LIGAND FREE ENERGY PREDICTED BY IDOCK:   -0.63 KCAL/MOL
REMARK 927      BINDING AFFINITY PREDICTED BY RF-SCORE:    0.00 PKD
ROOT
HETATM    1  C   UNL     1      -7.000  16.014  69.282  1.00  0.00    -0.205 C  
HETATM    2  N   UNL     1      -7.907  15.291  68.393  1.00  0.00    -0.118 NA 
HETATM    3  C   UNL     1      -7.179  14.473  67.407  1.00  0.00    -0.137 C  
HETATM    4  C   UNL     1      -6.471  13.241  67.994  1.00  0.00    -0.131 C  
HETATM    5  C   UNL     1      -7.421  12.365  68.800  1.00  0.00    -0.056 C  
HETATM    6  C   UNL     1      -8.851  14.441  69.139  1.00  0.00     0.100 C  
HETATM    7  C   UNL     1      -8.226  13.194  69.794  1.00  0.00     1.900 C  
ENDROOT
BRANCH   5   8
HETATM    8  C   UNL     1      -7.572  11.026  68.617  1.00  0.00    -0.124 A  
HETATM    9  C   UNL     1      -7.888  10.464  67.280  1.00  0.00    -0.106 A  
HETATM   10  C   UNL     1      -6.918  10.477  66.264  1.00  0.00    -0.128 A  
HETATM   11  C   UNL     1      -7.198   9.928  65.015  1.00  0.00    -0.135 A  
HETATM   12  C   UNL     1      -8.444   9.355  64.773  1.00  0.00    -0.180 A  
HETATM   13  C   UNL     1      -9.408   9.318  65.784  1.00  0.00    -0.306 A  
HETATM   14  C   UNL     1      -9.135   9.848  67.053  1.00  0.00    -0.156 A  
HETATM   15  C   UNL     1     -10.189   9.762  68.085  1.00  0.00    -0.220 A  
HETATM   16  C   UNL     1     -10.010   9.550  69.401  1.00  0.00    -0.199 A  
HETATM   17  C   UNL     1      -8.720   9.362  70.096  1.00  0.00    -0.245 A  
HETATM   18  C   UNL     1      -8.667   8.446  71.159  1.00  0.00    -0.194 A  
HETATM   19  C   UNL     1      -7.471   8.216  71.844  1.00  0.00    -0.105 A  
HETATM   20  C   UNL     1      -6.315   8.904  71.484  1.00  0.00    -0.075 A  
HETATM   21  C   UNL     1      -6.355   9.831  70.445  1.00  0.00    -0.093 A  
HETATM   22  C   UNL     1      -7.556  10.080  69.760  1.00  0.00    -0.167 A  
ENDBRANCH   5   8
TORSDOF 1
ENDMDL
MODEL      198
REMARK 921   NORMALIZED FREE ENERGY PREDICTED BY IDOCK:   -0.76 KCAL/MOL
REMARK 922        TOTAL FREE ENERGY PREDICTED BY IDOCK:   -1.64 KCAL/MOL
REMARK 923 INTER-LIGAND FREE ENERGY PREDICTED BY IDOCK:   -0.94 KCAL/MOL
REMARK 924 INTRA-LIGAND FREE ENERGY PREDICTED BY IDOCK:   -0.70 KCAL/MOL
REMARK 927      BINDING AFFINITY PREDICTED BY RF-SCORE:    0.00 PKD
ROOT
HETATM    1  C   UNL     1      -5.141  12.320  70.891  1.00  0.00    -0.141 C  
HETATM    2  N   UNL     1      -5.459  11.646  69.634  1.00  0.00    -0.064 NA 
HETATM    3  C   UNL     1      -6.066  10.322  69.856  1.00  0.00    -0.062 C  
HETATM    4  C   UNL     1      -7.497  10.358  70.416  1.00  0.00     0.316 C  
HETATM    5  C   UNL     1      -8.422  11.221  69.567  1.00  0.00     0.535 C  
HETATM    6  C   UNL     1      -6.344  12.457  68.780  1.00  0.00    -0.078 C  
HETATM    7  C   UNL     1      -7.797  12.581  69.279  1.00  0.00     0.515 C  
ENDROOT
BRANCH   5   8
HETATM    8  C   UNL     1      -9.625  10.811  69.083  1.00  0.00    -0.169 A  
HETATM    9  C   UNL     1     -10.884  11.492  69.474  1.00  0.00    -0.121 A  
HETATM   10  C   UNL     1     -11.157  12.788  69.005  1.00  0.00    -0.285 A  
HETATM   11  C   UNL     1     -12.348  13.425  69.346  1.00  0.00    -0.126 A  
HETATM   12  C   UNL     1     -13.279  12.770  70.148  1.00  0.00     1.067 A  
HETATM   13  C   UNL     1     -13.026  11.473  70.601  1.00  0.00    -0.025 A  
HETATM   14  C   UNL     1     -11.841  10.810  70.251  1.00  0.00    -0.438 A  
HETATM   15  C   UNL     1     -11.641   9.433  70.746  1.00  0.00    -0.364 A  
HETATM   16  C   UNL     1     -11.044   8.421  70.090  1.00  0.00    -0.183 A  
HETATM   17  C   UNL     1     -10.458   8.474  68.735  1.00  0.00    -0.208 A  
HETATM   18  C   UNL     1     -10.592   7.346  67.911  1.00  0.00    -0.255 A  
HETATM   19  C   UNL     1     -10.070   7.343  66.614  1.00  0.00    -0.253 A  
HETATM   20  C   UNL     1      -9.400   8.462  66.127  1.00  0.00    -0.267 A  
HETATM   21  C   UNL     1      -9.241   9.583  66.939  1.00  0.00    -0.174 A  
HETATM   22  C   UNL     1      -9.749   9.590  68.249  1.00  0.00    -0.163 A  
ENDBRANCH   5   8
TORSDOF 1
ENDMDL
MODEL      199
REMARK 921   NORMALIZED FREE ENERGY PREDICTED BY IDOCK:   -0.29 KCAL/MOL
REMARK 922        TOTAL FREE ENERGY PREDICTED BY IDOCK:   -1.14 KCAL/MOL
REMARK 923 INTER-LIGAND FREE ENERGY PREDICTED BY IDOCK:   -0.61 KCAL/MOL
REMARK 924 INTRA-LIGAND FREE ENERGY PREDICTED BY IDOCK:   -0.53 KCAL/MOL
REMARK 927      BINDING AFFINITY PREDICTED BY RF-SCORE:    0.00 PKD
ROOT
HETATM    1  C   UNL     1      -6.940   8.936  65.335  1.00  0.00    -0.080 C  
HETATM    2  N   UNL     1      -8.311   9.038  65.830  1.00  0.00    -0.119 NA 
HETATM    3  C   UNL     1      -8.372   9.653  67.167  1.00  0.00    -0.121 C  
HETATM    4  C   UNL     1      -8.051  11.156  67.197  1.00  0.00    -0.138 C  
HETATM    5  C   UNL     1      -8.913  11.945  66.220  1.00  0.00    -0.157 C  
HETATM    6  C   UNL     1      -9.179   9.785  64.904  1.00  0.00    -0.257 C  
HETATM    7  C   UNL     1      -8.910  11.301  64.838  1.00  0.00     0.094 C  
ENDROOT
BRANCH   5   8
HETATM    8  C   UNL     1      -9.636  13.047  66.552  1.00  0.00    -0.260 A  
HETATM    9  C   UNL     1     -10.891  13.388  65.835  1.00  0.00    -0.282 A  
HETATM   10  C   UNL     1     -12.040  12.601  66.015  1.00  0.00    -0.429 A  
HETATM   11  C   UNL     1     -13.228  12.929  65.367  1.00  0.00     0.705 A  
HETATM   12  C   UNL     1     -13.281  14.050  64.542  1.00  0.00     0.849 A  
HETATM   13  C   UNL     1     -12.149  14.851  64.374  1.00  0.00    -0.417 A  
HETATM   14  C   UNL     1     -10.950  14.547  65.035  1.00  0.00    -0.408 A  
HETATM   15  C   UNL     1      -9.795  15.443  64.831  1.00  0.00     0.226 A  
HETATM   16  C   UNL     1      -8.872  15.786  65.747  1.00  0.00     0.086 A  
HETATM   17  C   UNL     1      -8.816  15.337  67.153  1.00  0.00    -0.232 A  
HETATM   18  C   UNL     1      -8.387  16.253  68.125  1.00  0.00    -0.172 A  
HETATM   19  C   UNL     1      -8.327  15.888  69.474  1.00  0.00    -0.077 A  
HETATM   20  C   UNL     1      -8.685  14.601  69.866  1.00  0.00     0.596 A  
HETATM   21  C   UNL     1      -9.094  13.673  68.911  1.00  0.00     0.174 A  
HETATM   22  C   UNL     1      -9.144  14.026  67.552  1.00  0.00    -0.196 A  
ENDBRANCH   5   8
TORSDOF 1
ENDMDL
MODEL      200
REMARK 921   NORMALIZED FREE ENERGY PREDICTED BY IDOCK:    0.30 KCAL/MOL
REMARK 922        TOTAL FREE ENERGY PREDICTED BY IDOCK:   -0.52 KCAL/MOL
REMARK 923 INTER-LIGAND FREE ENERGY PREDICTED BY IDOCK:   -0.09 KCAL/MOL
REMARK 924 INTRA-LIGAND FREE ENERGY PREDICTED BY IDOCK:   -0.43 KCAL/MOL
REMARK 927      BINDING AFFINITY PREDICTED BY RF-SCORE:    0.00 PKD
ROOT
HETATM    1  C   UNL     1      -9.428  17.793  64.775  1.00  0.00     4.117 C  
HETATM    2  N   UNL     1      -9.810  17.603  66.173  1.00  0.00    -0.479 NA 
HETATM    3  C   UNL     1     -10.735  16.471  66.344  1.00  0.00    -0.146 C  
HETATM    4  C   UNL     1     -10.100  15.086  66.135  1.00  0.00    -0.312 C  
HETATM    5  C   UNL     1      -8.864  14.887  67.003  1.00  0.00    -0.255 C  
HETATM    6  C   UNL     1      -8.637  17.420  67.046  1.00  0.00    -0.233 C  
HETATM    7  C   UNL     1      -7.910  16.070  66.884  1.00  0.00    -0.284 C  
ENDROOT
BRANCH   5   8
HETATM    8  C   UNL     1      -8.664  13.819  67.820  1.00  0.00    -0.182 A  
HETATM    9  C   UNL     1      -7.442  13.707  68.655  1.00  0.00    -0.113 A  
HETATM   10  C   UNL     1      -7.261  14.561  69.755  1.00  0.00    -0.005 A  
HETATM   11  C   UNL     1      -6.129  14.445  70.559  1.00  0.00    -0.185 A  
HETATM   12  C   UNL     1      -5.174  13.472  70.275  1.00  0.00    -0.103 A  
HETATM   13  C   UNL     1      -5.356  12.604  69.196  1.00  0.00    -0.069 A  
HETATM   14  C   UNL     1      -6.500  12.693  68.389  1.00  0.00    -0.078 A  
HETATM   15  C   UNL     1      -6.642  11.735  67.274  1.00  0.00    -0.132 A  
HETATM   16  C   UNL     1      -7.784  11.173  66.838  1.00  0.00    -0.148 A  
HETATM   17  C   UNL     1      -9.140  11.399  67.379  1.00  0.00    -0.160 A  
HETATM   18  C   UNL     1     -10.025  10.310  67.424  1.00  0.00    -0.230 A  
HETATM   19  C   UNL     1     -11.316  10.461  67.939  1.00  0.00    -0.248 A  
HETATM   20  C   UNL     1     -11.743  11.701  68.406  1.00  0.00    -0.374 A  
HETATM   21  C   UNL     1     -10.883  12.797  68.349  1.00  0.00    -0.272 A  
HETATM   22  C   UNL     1      -9.590  12.659  67.821  1.00  0.00    -0.197 A  
ENDBRANCH   5   8
TORSDOF 1
ENDMDL
MODEL      201
REMARK 921   NORMALIZED FREE ENERGY PREDICTED BY IDOCK:    0.38 KCAL/MOL
REMARK 922        TOTAL FREE ENERGY PREDICTED BY IDOCK:   -0.44 KCAL/MOL
REMARK 923 INTER-LIGAND FREE ENERGY PREDICTED BY IDOCK:    0.06 KCAL/MOL
REMARK 924 INTRA-LIGAND FREE ENERGY PREDICTED BY IDOCK:   -0.50 KCAL/MOL
REMARK 927      BINDING AFFINITY PREDICTED BY RF-SCORE:    0.00 PKD
ROOT
HETATM    1  C   UNL     1     -10.647  16.596  65.651  1.00  0.00    -0.270 C  
HETATM    2  N   UNL     1     -10.975  15.534  66.599  1.00  0.00    -0.289 NA 
HETATM    3  C   UNL     1     -11.410  14.302  65.919  1.00  0.00    -0.328 C  
HETATM    4  C   UNL     1     -10.293  13.550  65.175  1.00  0.00    -0.368 C  
HETATM    5  C   UNL     1      -9.102  13.256  66.078  1.00  0.00     0.202 C  
HETATM    6  C   UNL     1      -9.849  15.230  67.498  1.00  0.00    -0.213 C  
HETATM    7  C   UNL     1      -8.662  14.505  66.834  1.00  0.00    -0.237 C  
ENDROOT
BRANCH   5   8
HETATM    8  C   UNL     1      -8.541  12.027  66.232  1.00  0.00     0.030 A  
HETATM    9  C   UNL     1      -7.751  11.689  67.442  1.00  0.00    -0.147 A  
HETATM   10  C   UNL     1      -8.395  11.531  68.681  1.00  0.00    -0.123 A  
HETATM   11  C   UNL     1      -7.664  11.188  69.816  1.00  0.00     0.391 A  
HETATM   12  C   UNL     1      -6.289  10.990  69.722  1.00  0.00    -0.124 A  
HETATM   13  C   UNL     1      -5.644  11.123  68.490  1.00  0.00    -0.042 A  
HETATM   14  C   UNL     1      -6.367  11.449  67.333  1.00  0.00    -0.082 A  
HETATM   15  C   UNL     1      -5.630  11.557  66.058  1.00  0.00     0.206 A  
HETATM   16  C   UNL     1      -6.071  11.191  64.841  1.00  0.00     0.691 A  
HETATM   17  C   UNL     1      -7.389  10.606  64.521  1.00  0.00     0.196 A  
HETATM   18  C   UNL     1      -7.452   9.620  63.524  1.00  0.00    -0.120 A  
HETATM   19  C   UNL     1      -8.669   9.021  63.188  1.00  0.00    -0.114 A  
HETATM   20  C   UNL     1      -9.840   9.405  63.835  1.00  0.00     1.222 A  
HETATM   21  C   UNL     1      -9.798  10.397  64.814  1.00  0.00    -0.406 A  
HETATM   22  C   UNL     1      -8.582  11.015  65.148  1.00  0.00    -0.015 A  
ENDBRANCH   5   8
TORSDOF 1
ENDMDL
MODEL      202
REMARK 921   NORMALIZED FREE ENERGY PREDICTED BY IDOCK:    0.55 KCAL/MOL
REMARK 922        TOTAL FREE ENERGY PREDICTED BY IDOCK:   -0.26 KCAL/MOL
REMARK 923 INTER-LIGAND FREE ENERGY PREDICTED BY IDOCK:    0.18 KCAL/MOL
REMARK 924 INTRA-LIGAND FREE ENERGY PREDICTED BY IDOCK:   -0.44 KCAL/MOL
REMARK 927      BINDING AFFINITY PREDICTED BY RF-SCORE:    0.00 PKD
ROOT
HETATM    1  C   UNL     1      -5.311  12.368  69.267  1.00  0.00    -0.069 C  
HETATM    2  N   UNL     1      -5.803  13.620  69.838  1.00  0.00    -0.116 NA 
HETATM    3  C   UNL     1      -5.324  14.794  69.090  1.00  0.00    -0.092 C  
HETATM    4  C   UNL     1      -5.949  14.966  67.696  1.00  0.00    -0.075 C  
HETATM    5  C   UNL     1      -7.472  14.966  67.749  1.00  0.00    -0.179 C  
HETATM    6  C   UNL     1      -7.273  13.651  69.917  1.00  0.00     0.560 C  
HETATM    7  C   UNL     1      -7.995  13.787  68.562  1.00  0.00    -0.131 C  
ENDROOT
BRANCH   5   8
HETATM    8  C   UNL     1      -8.259  15.924  67.191  1.00  0.00    -0.233 A  
HETATM    9  C   UNL     1      -7.679  17.180  66.654  1.00  0.00    -0.300 A  
HETATM   10  C   UNL     1      -6.908  17.153  65.480  1.00  0.00     0.999 A  
HETATM   11  C   UNL     1      -6.381  18.331  64.956  1.00  0.00     0.077 A  
HETATM   12  C   UNL     1      -6.627  19.545  65.594  1.00  0.00    -0.279 A  
HETATM   13  C   UNL     1      -7.411  19.584  66.750  1.00  0.00    -0.242 A  
HETATM   14  C   UNL     1      -7.965  18.410  67.280  1.00  0.00    -0.239 A  
HETATM   15  C   UNL     1      -8.799  18.519  68.494  1.00  0.00    -0.351 A  
HETATM   16  C   UNL     1      -9.899  17.799  68.781  1.00  0.00    -0.343 A  
HETATM   17  C   UNL     1     -10.504  16.743  67.946  1.00  0.00    -0.335 A  
HETATM   18  C   UNL     1     -11.903  16.642  67.915  1.00  0.00     0.703 A  
HETATM   19  C   UNL     1     -12.532  15.670  67.130  1.00  0.00     1.609 A  
HETATM   20  C   UNL     1     -11.772  14.781  66.376  1.00  0.00    -0.268 A  
HETATM   21  C   UNL     1     -10.381  14.854  66.411  1.00  0.00    -0.291 A  
HETATM   22  C   UNL     1      -9.740  15.818  67.207  1.00  0.00    -0.223 A  
ENDBRANCH   5   8
TORSDOF 1
ENDMDL
MODEL      203
REMARK 921   NORMALIZED FREE ENERGY PREDICTED BY IDOCK:    1.37 KCAL/MOL
REMARK 922        TOTAL FREE ENERGY PREDICTED BY IDOCK:    0.61 KCAL/MOL
REMARK 923 INTER-LIGAND FREE ENERGY PREDICTED BY IDOCK:    1.16 KCAL/MOL
REMARK 924 INTRA-LIGAND FREE ENERGY PREDICTED BY IDOCK:   -0.55 KCAL/MOL
REMARK 927      BINDING AFFINITY PREDICTED BY RF-SCORE:    0.00 PKD
ROOT
HETATM    1  C   UNL     1      -7.182  10.185  69.054  1.00  0.00    -0.076 C  
HETATM    2  N   UNL     1      -6.966  11.499  68.453  1.00  0.00    -0.072 NA 
HETATM    3  C   UNL     1      -7.296  11.511  67.018  1.00  0.00    -0.145 C  
HETATM    4  C   UNL     1      -8.797  11.407  66.703  1.00  0.00    -0.183 C  
HETATM    5  C   UNL     1      -9.610  12.468  67.436  1.00  0.00    -0.192 C  
HETATM    6  C   UNL     1      -7.728  12.554  69.144  1.00  0.00     0.306 C  
HETATM    7  C   UNL     1      -9.252  12.512  68.917  1.00  0.00     0.287 C  
ENDROOT
BRANCH   5   8
HETATM    8  C   UNL     1     -10.498  13.304  66.835  1.00  0.00    -0.261 A  
HETATM    9  C   UNL     1     -11.303  12.861  65.669  1.00  0.00    -0.344 A  
HETATM   10  C   UNL     1     -12.331  11.920  65.841  1.00  0.00     0.792 A  
HETATM   11  C   UNL     1     -13.108  11.519  64.756  1.00  0.00     2.149 A  
HETATM   12  C   UNL     1     -12.870  12.061  63.495  1.00  0.00    -0.472 A  
HETATM   13  C   UNL     1     -11.865  13.014  63.319  1.00  0.00    -0.432 A  
HETATM   14  C   UNL     1     -11.087  13.444  64.404  1.00  0.00    -0.408 A  
HETATM   15  C   UNL     1     -10.051  14.467  64.157  1.00  0.00     1.665 A  
HETATM   16  C   UNL     1      -9.691  15.464  64.986  1.00  0.00     0.165 A  
HETATM   17  C   UNL     1     -10.253  15.744  66.323  1.00  0.00    -0.317 A  
HETATM   18  C   UNL     1     -10.405  17.084  66.710  1.00  0.00    -0.302 A  
HETATM   19  C   UNL     1     -10.945  17.410  67.958  1.00  0.00    -0.164 A  
HETATM   20  C   UNL     1     -11.329  16.403  68.838  1.00  0.00    -0.272 A  
HETATM   21  C   UNL     1     -11.167  15.067  68.477  1.00  0.00    -0.298 A  
HETATM   22  C   UNL     1     -10.612  14.729  67.231  1.00  0.00    -0.273 A  
ENDBRANCH   5   8
TORSDOF 1
ENDMDL
MODEL      204
REMARK 921   NORMALIZED FREE ENERGY PREDICTED BY IDOCK:    2.70 KCAL/MOL
REMARK 922        TOTAL FREE ENERGY PREDICTED BY IDOCK:    2.02 KCAL/MOL
REMARK 923 INTER-LIGAND FREE ENERGY PREDICTED BY IDOCK:    2.59 KCAL/MOL
REMARK 924 INTRA-LIGAND FREE ENERGY PREDICTED BY IDOCK:   -0.56 KCAL/MOL
REMARK 927      BINDING AFFINITY PREDICTED BY RF-SCORE:    0.00 PKD
ROOT
HETATM    1  C   UNL     1     -11.899  11.880  63.459  1.00  0.00    -0.460 C  
HETATM    2  N   UNL     1     -10.717  12.723  63.296  1.00  0.00    -0.102 NA 
HETATM    3  C   UNL     1     -11.027  14.151  63.477  1.00  0.00     1.635 C  
HETATM    4  C   UNL     1     -11.348  14.559  64.924  1.00  0.00    -0.394 C  
HETATM    5  C   UNL     1     -10.253  14.135  65.895  1.00  0.00    -0.332 C  
HETATM    6  C   UNL     1      -9.630  12.334  64.211  1.00  0.00     0.114 C  
HETATM    7  C   UNL     1      -9.875  12.671  65.694  1.00  0.00    -0.213 C  
ENDROOT
BRANCH   5   8
HETATM    8  C   UNL     1      -9.651  14.968  66.785  1.00  0.00    -0.260 A  
HETATM    9  C   UNL     1     -10.417  16.031  67.482  1.00  0.00    -0.297 A  
HETATM   10  C   UNL     1     -11.360  15.689  68.465  1.00  0.00    -0.361 A  
HETATM   11  C   UNL     1     -12.065  16.682  69.142  1.00  0.00     0.931 A  
HETATM   12  C   UNL     1     -11.827  18.023  68.849  1.00  0.00     3.519 A  
HETATM   13  C   UNL     1     -10.875  18.373  67.889  1.00  0.00    -0.234 A  
HETATM   14  C   UNL     1     -10.143  17.387  67.212  1.00  0.00    -0.310 A  
HETATM   15  C   UNL     1      -9.139  17.822  66.221  1.00  0.00    -0.198 A  
HETATM   16  C   UNL     1      -7.949  17.244  65.975  1.00  0.00    -0.196 A  
HETATM   17  C   UNL     1      -7.395  16.049  66.642  1.00  0.00    -0.099 A  
HETATM   18  C   UNL     1      -6.015  16.010  66.895  1.00  0.00     0.282 A  
HETATM   19  C   UNL     1      -5.438  14.910  67.536  1.00  0.00     0.139 A  
HETATM   20  C   UNL     1      -6.228  13.831  67.924  1.00  0.00    -0.160 A  
HETATM   21  C   UNL     1      -7.597  13.845  67.662  1.00  0.00    -0.188 A  
HETATM   22  C   UNL     1      -8.184  14.939  67.006  1.00  0.00    -0.228 A  
ENDBRANCH   5   8
TORSDOF 1
ENDMDL
MODEL      205
REMARK 921   NORMALIZED FREE ENERGY PREDICTED BY IDOCK:    2.94 KCAL/MOL
REMARK 922        TOTAL FREE ENERGY PREDICTED BY IDOCK:    2.28 KCAL/MOL
REMARK 923 INTER-LIGAND FREE ENERGY PREDICTED BY IDOCK:    2.81 KCAL/MOL
REMARK 924 INTRA-LIGAND FREE ENERGY PREDICTED BY IDOCK:   -0.53 KCAL/MOL
REMARK 927      BINDING AFFINITY PREDICTED BY RF-SCORE:    0.00 PKD
ROOT
HETATM    1  C   UNL     1      -7.336   6.036  67.017  1.00  0.00    -0.076 C  
HETATM    2  N   UNL     1      -7.214   7.424  67.458  1.00  0.00    -0.091 NA 
HETATM    3  C   UNL     1      -7.974   8.346  66.598  1.00  0.00    -0.097 C  
HETATM    4  C   UNL     1      -9.502   8.240  66.736  1.00  0.00    -0.256 C  
HETATM    5  C   UNL     1      -9.956   8.381  68.184  1.00  0.00    -0.224 C  
HETATM    6  C   UNL     1      -7.633   7.597  68.859  1.00  0.00    -0.101 C  
HETATM    7  C   UNL     1      -9.149   7.473  69.105  1.00  0.00    -0.138 C  
ENDROOT
BRANCH   5   8
HETATM    8  C   UNL     1     -10.917   9.245  68.606  1.00  0.00    -0.039 A  
HETATM    9  C   UNL     1     -11.093  10.572  67.965  1.00  0.00    -0.361 A  
HETATM   10  C   UNL     1     -11.609  10.661  66.662  1.00  0.00     0.800 A  
HETATM   11  C   UNL     1     -11.801  11.904  66.063  1.00  0.00    -0.101 A  
HETATM   12  C   UNL     1     -11.488  13.067  66.763  1.00  0.00    -0.392 A  
HETATM   13  C   UNL     1     -10.995  12.989  68.068  1.00  0.00    -0.274 A  
HETATM   14  C   UNL     1     -10.815  11.747  68.693  1.00  0.00    -0.259 A  
HETATM   15  C   UNL     1     -10.307  11.732  70.080  1.00  0.00     1.303 A  
HETATM   16  C   UNL     1     -10.662  10.877  71.057  1.00  0.00     1.679 A  
HETATM   17  C   UNL     1     -11.633   9.770  70.949  1.00  0.00    -0.441 A  
HETATM   18  C   UNL     1     -12.456   9.499  72.053  1.00  0.00    -0.427 A  
HETATM   19  C   UNL     1     -13.403   8.472  72.004  1.00  0.00    -0.397 A  
HETATM   20  C   UNL     1     -13.534   7.696  70.855  1.00  0.00     0.064 A  
HETATM   21  C   UNL     1     -12.711   7.939  69.757  1.00  0.00     2.209 A  
HETATM   22  C   UNL     1     -11.747   8.959  69.802  1.00  0.00     0.427 A  
ENDBRANCH   5   8
TORSDOF 1
ENDMDL
MODEL      206
REMARK 921   NORMALIZED FREE ENERGY PREDICTED BY IDOCK:    6.16 KCAL/MOL
REMARK 922        TOTAL FREE ENERGY PREDICTED BY IDOCK:    5.68 KCAL/MOL
REMARK 923 INTER-LIGAND FREE ENERGY PREDICTED BY IDOCK:    6.44 KCAL/MOL
REMARK 924 INTRA-LIGAND FREE ENERGY PREDICTED BY IDOCK:   -0.76 KCAL/MOL
REMARK 927      BINDING AFFINITY PREDICTED BY RF-SCORE:    0.00 PKD
ROOT
HETATM    1  C   UNL     1     -11.969   3.895  62.460  1.00  0.00     1.736 C  
HETATM    2  N   UNL     1     -11.585   5.051  63.267  1.00  0.00     2.226 NA 
HETATM    3  C   UNL     1     -11.772   4.806  64.708  1.00  0.00     1.713 C  
HETATM    4  C   UNL     1     -10.776   3.809  65.324  1.00  0.00     0.373 C  
HETATM    5  C   UNL     1      -9.330   4.198  65.043  1.00  0.00    -0.165 C  
HETATM    6  C   UNL     1     -10.194   5.465  63.014  1.00  0.00     1.871 C  
HETATM    7  C   UNL     1      -9.119   4.508  63.565  1.00  0.00    -0.115 C  
ENDROOT
BRANCH   5   8
HETATM    8  C   UNL     1      -8.367   4.310  65.996  1.00  0.00    -0.109 A  
HETATM    9  C   UNL     1      -7.265   3.320  66.095  1.00  0.00    -0.067 A  
HETATM   10  C   UNL     1      -6.263   3.283  65.111  1.00  0.00    -0.024 A  
HETATM   11  C   UNL     1      -5.211   2.375  65.210  1.00  0.00    -0.008 A  
HETATM   12  C   UNL     1      -5.147   1.505  66.295  1.00  0.00    -0.005 A  
HETATM   13  C   UNL     1      -6.126   1.550  67.290  1.00  0.00    -0.020 A  
HETATM   14  C   UNL     1      -7.181   2.471  67.216  1.00  0.00    -0.053 A  
HETATM   15  C   UNL     1      -8.176   2.480  68.308  1.00  0.00    -0.072 A  
HETATM   16  C   UNL     1      -8.794   3.559  68.823  1.00  0.00    -0.161 A  
HETATM   17  C   UNL     1      -8.612   4.963  68.402  1.00  0.00    -0.101 A  
HETATM   18  C   UNL     1      -8.643   5.960  69.390  1.00  0.00    -0.113 A  
HETATM   19  C   UNL     1      -8.463   7.304  69.053  1.00  0.00    -0.129 A  
HETATM   20  C   UNL     1      -8.261   7.672  67.726  1.00  0.00    -0.119 A  
HETATM   21  C   UNL     1      -8.247   6.697  66.730  1.00  0.00    -0.114 A  
HETATM   22  C   UNL     1      -8.441   5.345  67.057  1.00  0.00    -0.106 A  
ENDBRANCH   5   8
TORSDOF 1
ENDMDL
MODEL      207
REMARK 921   NORMALIZED FREE ENERGY PREDICTED BY IDOCK:    6.57 KCAL/MOL
REMARK 922        TOTAL FREE ENERGY PREDICTED BY IDOCK:    6.11 KCAL/MOL
REMARK 923 INTER-LIGAND FREE ENERGY PREDICTED BY IDOCK:    6.76 KCAL/MOL
REMARK 924 INTRA-LIGAND FREE ENERGY PREDICTED BY IDOCK:   -0.65 KCAL/MOL
REMARK 927      BINDING AFFINITY PREDICTED BY RF-SCORE:    0.00 PKD
ROOT
HETATM    1  C   UNL     1      -5.570  12.331  71.246  1.00  0.00     0.104 C  
HETATM    2  N   UNL     1      -5.181  11.333  70.252  1.00  0.00    -0.077 NA 
HETATM    3  C   UNL     1      -5.304   9.960  70.770  1.00  0.00    -0.056 C  
HETATM    4  C   UNL     1      -6.750   9.475  70.965  1.00  0.00    -0.053 C  
HETATM    5  C   UNL     1      -7.582   9.633  69.698  1.00  0.00    -0.114 C  
HETATM    6  C   UNL     1      -5.956  11.462  69.006  1.00  0.00    -0.051 C  
HETATM    7  C   UNL     1      -7.432  11.031  69.111  1.00  0.00    -0.121 C  
ENDROOT
BRANCH   5   8
HETATM    8  C   UNL     1      -8.316   8.637  69.135  1.00  0.00    -0.119 A  
HETATM    9  C   UNL     1      -9.764   8.813  68.855  1.00  0.00    -0.174 A  
HETATM   10  C   UNL     1     -10.182   9.679  67.832  1.00  0.00    -0.242 A  
HETATM   11  C   UNL     1     -11.537   9.830  67.546  1.00  0.00     1.174 A  
HETATM   12  C   UNL     1     -12.483   9.112  68.274  1.00  0.00     5.490 A  
HETATM   13  C   UNL     1     -12.075   8.232  69.279  1.00  0.00     2.018 A  
HETATM   14  C   UNL     1     -10.714   8.053  69.566  1.00  0.00    -0.185 A  
HETATM   15  C   UNL     1     -10.346   7.095  70.628  1.00  0.00    -0.217 A  
HETATM   16  C   UNL     1      -9.274   6.281  70.641  1.00  0.00    -0.164 A  
HETATM   17  C   UNL     1      -8.236   6.176  69.596  1.00  0.00    -0.116 A  
HETATM   18  C   UNL     1      -7.699   4.909  69.320  1.00  0.00    -0.074 A  
HETATM   19  C   UNL     1      -6.723   4.746  68.333  1.00  0.00    -0.050 A  
HETATM   20  C   UNL     1      -6.264   5.847  67.615  1.00  0.00    -0.033 A  
HETATM   21  C   UNL     1      -6.771   7.115  67.890  1.00  0.00    -0.061 A  
HETATM   22  C   UNL     1      -7.741   7.291  68.891  1.00  0.00    -0.116 A  
ENDBRANCH   5   8
TORSDOF 1
ENDMDL
MODEL      208
REMARK 921   NORMALIZED FREE ENERGY PREDICTED BY IDOCK:    6.99 KCAL/MOL
REMARK 922        TOTAL FREE ENERGY PREDICTED BY IDOCK:    6.55 KCAL/MOL
REMARK 923 INTER-LIGAND FREE ENERGY PREDICTED BY IDOCK:    7.07 KCAL/MOL
REMARK 924 INTRA-LIGAND FREE ENERGY PREDICTED BY IDOCK:   -0.52 KCAL/MOL
REMARK 927      BINDING AFFINITY PREDICTED BY RF-SCORE:    0.00 PKD
ROOT
HETATM    1  C   UNL     1     -11.957   3.888  62.457  1.00  0.00     1.736 C  
HETATM    2  N   UNL     1     -11.602   5.066  63.245  1.00  0.00     2.226 NA 
HETATM    3  C   UNL     1     -11.863   4.870  64.681  1.00  0.00     2.441 C  
HETATM    4  C   UNL     1     -10.909   3.886  65.378  1.00  0.00     0.483 C  
HETATM    5  C   UNL     1      -9.447   4.254  65.157  1.00  0.00    -0.172 C  
HETATM    6  C   UNL     1     -10.196   5.460  63.047  1.00  0.00     1.871 C  
HETATM    7  C   UNL     1      -9.160   4.512  63.683  1.00  0.00    -0.112 C  
ENDROOT
BRANCH   5   8
HETATM    8  C   UNL     1      -8.531   4.388  66.153  1.00  0.00    -0.113 A  
HETATM    9  C   UNL     1      -8.659   3.630  67.423  1.00  0.00    -0.114 A  
HETATM   10  C   UNL     1      -8.447   2.242  67.438  1.00  0.00    -0.106 A  
HETATM   11  C   UNL     1      -8.540   1.528  68.631  1.00  0.00    -0.087 A  
HETATM   12  C   UNL     1      -8.837   2.195  69.817  1.00  0.00    -0.133 A  
HETATM   13  C   UNL     1      -9.027   3.578  69.815  1.00  0.00    -0.174 A  
HETATM   14  C   UNL     1      -8.918   4.316  68.627  1.00  0.00    -0.156 A  
HETATM   15  C   UNL     1      -9.113   5.778  68.694  1.00  0.00    -0.116 A  
HETATM   16  C   UNL     1      -8.457   6.710  67.980  1.00  0.00    -0.116 A  
HETATM   17  C   UNL     1      -7.403   6.469  66.974  1.00  0.00    -0.079 A  
HETATM   18  C   UNL     1      -6.338   7.380  66.898  1.00  0.00    -0.048 A  
HETATM   19  C   UNL     1      -5.304   7.195  65.975  1.00  0.00    -0.024 A  
HETATM   20  C   UNL     1      -5.327   6.105  65.109  1.00  0.00    -0.017 A  
HETATM   21  C   UNL     1      -6.387   5.202  65.157  1.00  0.00    -0.035 A  
HETATM   22  C   UNL     1      -7.437   5.387  66.072  1.00  0.00    -0.082 A  
ENDBRANCH   5   8
TORSDOF 1
ENDMDL
MODEL      209
REMARK 921   NORMALIZED FREE ENERGY PREDICTED BY IDOCK:    8.06 KCAL/MOL
REMARK 922        TOTAL FREE ENERGY PREDICTED BY IDOCK:    7.69 KCAL/MOL
REMARK 923 INTER-LIGAND FREE ENERGY PREDICTED BY IDOCK:    8.19 KCAL/MOL
REMARK 924 INTRA-LIGAND FREE ENERGY PREDICTED BY IDOCK:   -0.49 KCAL/MOL
REMARK 927      BINDING AFFINITY PREDICTED BY RF-SCORE:    0.00 PKD
ROOT
HETATM    1  C   UNL     1      -6.586  14.313  72.007  1.00  0.00     1.587 C  
HETATM    2  N   UNL     1      -6.591  14.166  70.554  1.00  0.00     0.000 NA 
HETATM    3  C   UNL     1      -6.146  12.827  70.132  1.00  0.00    -0.090 C  
HETATM    4  C   UNL     1      -7.141  11.695  70.437  1.00  0.00     1.448 C  
HETATM    5  C   UNL     1      -8.528  11.986  69.877  1.00  0.00     2.416 C  
HETATM    6  C   UNL     1      -7.915  14.452  69.974  1.00  0.00     0.760 C  
HETATM    7  C   UNL     1      -8.993  13.387  70.256  1.00  0.00     4.087 C  
ENDROOT
BRANCH   5   8
HETATM    8  C   UNL     1      -9.234  11.128  69.094  1.00  0.00     0.038 A  
HETATM    9  C   UNL     1      -8.953   9.670  69.102  1.00  0.00    -0.154 A  
HETATM   10  C   UNL     1      -9.288   8.896  70.225  1.00  0.00    -0.208 A  
HETATM   11  C   UNL     1      -9.051   7.523  70.230  1.00  0.00    -0.154 A  
HETATM   12  C   UNL     1      -8.486   6.913  69.113  1.00  0.00    -0.129 A  
HETATM   13  C   UNL     1      -8.170   7.671  67.984  1.00  0.00    -0.124 A  
HETATM   14  C   UNL     1      -8.420   9.051  67.954  1.00  0.00    -0.121 A  
HETATM   15  C   UNL     1      -8.080   9.795  66.724  1.00  0.00    -0.120 A  
HETATM   16  C   UNL     1      -8.763  10.824  66.192  1.00  0.00    -0.186 A  
HETATM   17  C   UNL     1      -9.998  11.433  66.728  1.00  0.00    -0.238 A  
HETATM   18  C   UNL     1     -10.969  11.874  65.816  1.00  0.00    -0.359 A  
HETATM   19  C   UNL     1     -12.163  12.445  66.265  1.00  0.00    -0.062 A  
HETATM   20  C   UNL     1     -12.399  12.593  67.629  1.00  0.00     0.351 A  
HETATM   21  C   UNL     1     -11.436  12.179  68.547  1.00  0.00    -0.349 A  
HETATM   22  C   UNL     1     -10.227  11.617  68.105  1.00  0.00    -0.206 A  
ENDBRANCH   5   8
TORSDOF 1
ENDMDL
MODEL      210
REMARK 921   NORMALIZED FREE ENERGY PREDICTED BY IDOCK:   14.98 KCAL/MOL
REMARK 922        TOTAL FREE ENERGY PREDICTED BY IDOCK:   15.01 KCAL/MOL
REMARK 923 INTER-LIGAND FREE ENERGY PREDICTED BY IDOCK:   15.49 KCAL/MOL
REMARK 924 INTRA-LIGAND FREE ENERGY PREDICTED BY IDOCK:   -0.48 KCAL/MOL
REMARK 927      BINDING AFFINITY PREDICTED BY RF-SCORE:    0.00 PKD
ROOT
HETATM    1  C   UNL     1     -10.988  18.567  71.629  1.00  0.00     3.574 C  
HETATM    2  N   UNL     1     -11.215  17.147  71.372  1.00  0.00     0.725 NA 
HETATM    3  C   UNL     1     -11.866  16.918  70.070  1.00  0.00     1.453 C  
HETATM    4  C   UNL     1     -10.971  17.189  68.849  1.00  0.00    -0.061 C  
HETATM    5  C   UNL     1      -9.659  16.418  68.920  1.00  0.00    -0.252 C  
HETATM    6  C   UNL     1      -9.968  16.366  71.444  1.00  0.00     3.419 C  
HETATM    7  C   UNL     1      -8.988  16.595  70.277  1.00  0.00     2.174 C  
ENDROOT
BRANCH   5   8
HETATM    8  C   UNL     1      -9.178  15.629  67.922  1.00  0.00    -0.190 A  
HETATM    9  C   UNL     1      -9.688  15.750  66.533  1.00  0.00    -0.285 A  
HETATM   10  C   UNL     1      -9.376  16.883  65.765  1.00  0.00     0.005 A  
HETATM   11  C   UNL     1      -9.829  16.991  64.452  1.00  0.00     4.265 A  
HETATM   12  C   UNL     1     -10.589  15.966  63.894  1.00  0.00     2.507 A  
HETATM   13  C   UNL     1     -10.885  14.825  64.644  1.00  0.00    -0.312 A  
HETATM   14  C   UNL     1     -10.420  14.691  65.960  1.00  0.00    -0.313 A  
HETATM   15  C   UNL     1     -10.753  13.453  66.694  1.00  0.00    -0.282 A  
HETATM   16  C   UNL     1      -9.967  12.803  67.571  1.00  0.00    -0.210 A  
HETATM   17  C   UNL     1      -8.605  13.191  67.990  1.00  0.00    -0.182 A  
HETATM   18  C   UNL     1      -7.667  12.173  68.222  1.00  0.00    -0.135 A  
HETATM   19  C   UNL     1      -6.359  12.482  68.607  1.00  0.00    -0.073 A  
HETATM   20  C   UNL     1      -5.974  13.809  68.776  1.00  0.00    -0.085 A  
HETATM   21  C   UNL     1      -6.899  14.831  68.569  1.00  0.00    -0.107 A  
HETATM   22  C   UNL     1      -8.219  14.530  68.196  1.00  0.00    -0.146 A  
ENDBRANCH   5   8
TORSDOF 1
ENDMDL
MODEL      211
REMARK 921   NORMALIZED FREE ENERGY PREDICTED BY IDOCK:   15.82 KCAL/MOL
REMARK 922        TOTAL FREE ENERGY PREDICTED BY IDOCK:   15.90 KCAL/MOL
REMARK 923 INTER-LIGAND FREE ENERGY PREDICTED BY IDOCK:   16.38 KCAL/MOL
REMARK 924 INTRA-LIGAND FREE ENERGY PREDICTED BY IDOCK:   -0.48 KCAL/MOL
REMARK 927      BINDING AFFINITY PREDICTED BY RF-SCORE:    0.00 PKD
ROOT
HETATM    1  C   UNL     1     -11.049  17.314  64.301  1.00  0.00     1.890 C  
HETATM    2  N   UNL     1     -11.319  17.868  65.626  1.00  0.00     0.656 NA 
HETATM    3  C   UNL     1     -12.202  16.996  66.420  1.00  0.00     3.698 C  
HETATM    4  C   UNL     1     -11.553  15.686  66.894  1.00  0.00     0.193 C  
HETATM    5  C   UNL     1     -10.250  15.932  67.644  1.00  0.00    -0.263 C  
HETATM    6  C   UNL     1     -10.079  18.131  66.378  1.00  0.00    -0.389 C  
HETATM    7  C   UNL     1      -9.336  16.873  66.868  1.00  0.00    -0.254 C  
ENDROOT
BRANCH   5   8
HETATM    8  C   UNL     1      -9.963  15.423  68.872  1.00  0.00    -0.219 A  
HETATM    9  C   UNL     1     -11.042  14.989  69.795  1.00  0.00    -0.297 A  
HETATM   10  C   UNL     1     -11.789  13.834  69.509  1.00  0.00    -0.394 A  
HETATM   11  C   UNL     1     -12.786  13.406  70.383  1.00  0.00    -0.136 A  
HETATM   12  C   UNL     1     -13.037  14.120  71.552  1.00  0.00    -0.424 A  
HETATM   13  C   UNL     1     -12.284  15.257  71.855  1.00  0.00    -0.433 A  
HETATM   14  C   UNL     1     -11.263  15.691  70.996  1.00  0.00    -0.411 A  
HETATM   15  C   UNL     1     -10.491  16.889  71.382  1.00  0.00     2.379 A  
HETATM   16  C   UNL     1      -9.178  17.100  71.175  1.00  0.00     6.423 A  
HETATM   17  C   UNL     1      -8.231  16.179  70.516  1.00  0.00     2.438 A  
HETATM   18  C   UNL     1      -6.921  16.107  71.014  1.00  0.00     2.525 A  
HETATM   19  C   UNL     1      -5.984  15.243  70.439  1.00  0.00    -0.094 A  
HETATM   20  C   UNL     1      -6.341  14.447  69.354  1.00  0.00    -0.122 A  
HETATM   21  C   UNL     1      -7.632  14.520  68.835  1.00  0.00    -0.138 A  
HETATM   22  C   UNL     1      -8.575  15.396  69.397  1.00  0.00    -0.249 A  
ENDBRANCH   5   8
TORSDOF 1
ENDMDL
MODEL      212
REMARK 921   NORMALIZED FREE ENERGY PREDICTED BY IDOCK:   16.77 KCAL/MOL
REMARK 922        TOTAL FREE ENERGY PREDICTED BY IDOCK:   16.90 KCAL/MOL
REMARK 923 INTER-LIGAND FREE ENERGY PREDICTED BY IDOCK:   17.36 KCAL/MOL
REMARK 924 INTRA-LIGAND FREE ENERGY PREDICTED BY IDOCK:   -0.45 KCAL/MOL
REMARK 927      BINDING AFFINITY PREDICTED BY RF-SCORE:    0.00 PKD
ROOT
HETATM    1  C   UNL     1      -8.395  14.652  71.587  1.00  0.00     4.957 C  
HETATM    2  N   UNL     1      -8.954  14.689  70.237  1.00  0.00     1.005 NA 
HETATM    3  C   UNL     1     -10.120  15.584  70.145  1.00  0.00    -0.144 C  
HETATM    4  C   UNL     1      -9.789  17.082  70.251  1.00  0.00     1.453 C  
HETATM    5  C   UNL     1      -8.725  17.505  69.247  1.00  0.00     0.254 C  
HETATM    6  C   UNL     1      -7.949  15.083  69.234  1.00  0.00    -0.190 C  
HETATM    7  C   UNL     1      -7.526  16.564  69.284  1.00  0.00    -0.183 C  
ENDROOT
BRANCH   5   8
HETATM    8  C   UNL     1      -8.854  18.552  68.389  1.00  0.00    -0.346 A  
HETATM    9  C   UNL     1     -10.172  19.188  68.143  1.00  0.00    -0.489 A  
HETATM   10  C   UNL     1     -10.780  19.958  69.148  1.00  0.00     0.486 A  
HETATM   11  C   UNL     1     -12.006  20.578  68.916  1.00  0.00     4.173 A  
HETATM   12  C   UNL     1     -12.628  20.443  67.678  1.00  0.00     4.780 A  
HETATM   13  C   UNL     1     -12.020  19.697  66.665  1.00  0.00     2.218 A  
HETATM   14  C   UNL     1     -10.778  19.082  66.875  1.00  0.00    -0.484 A  
HETATM   15  C   UNL     1     -10.179  18.322  65.759  1.00  0.00    -0.106 A  
HETATM   16  C   UNL     1      -8.872  18.244  65.450  1.00  0.00     1.480 A  
HETATM   17  C   UNL     1      -7.757  18.898  66.163  1.00  0.00    -0.281 A  
HETATM   18  C   UNL     1      -6.681  19.387  65.406  1.00  0.00    -0.300 A  
HETATM   19  C   UNL     1      -5.604  20.028  66.026  1.00  0.00    -0.179 A  
HETATM   20  C   UNL     1      -5.583  20.180  67.409  1.00  0.00    -0.192 A  
HETATM   21  C   UNL     1      -6.634  19.684  68.178  1.00  0.00    -0.295 A  
HETATM   22  C   UNL     1      -7.713  19.025  67.566  1.00  0.00    -0.262 A  
ENDBRANCH   5   8
TORSDOF 1
ENDMDL
MODEL      213
REMARK 921   NORMALIZED FREE ENERGY PREDICTED BY IDOCK:   25.10 KCAL/MOL
REMARK 922        TOTAL FREE ENERGY PREDICTED BY IDOCK:   25.73 KCAL/MOL
REMARK 923 INTER-LIGAND FREE ENERGY PREDICTED BY IDOCK:   26.17 KCAL/MOL
REMARK 924 INTRA-LIGAND FREE ENERGY PREDICTED BY IDOCK:   -0.45 KCAL/MOL
REMARK 927      BINDING AFFINITY PREDICTED BY RF-SCORE:    0.00 PKD
ROOT
HETATM    1  C   UNL     1      -7.198  14.829  64.853  1.00  0.00    13.599 C  
HETATM    2  N   UNL     1      -7.937  16.066  65.092  1.00  0.00     3.170 NA 
HETATM    3  C   UNL     1      -9.148  15.840  65.898  1.00  0.00    -0.265 C  
HETATM    4  C   UNL     1      -8.883  15.494  67.373  1.00  0.00    -0.203 C  
HETATM    5  C   UNL     1      -7.989  16.526  68.049  1.00  0.00    -0.161 C  
HETATM    6  C   UNL     1      -7.100  17.094  65.735  1.00  0.00     0.341 C  
HETATM    7  C   UNL     1      -6.750  16.818  67.210  1.00  0.00    -0.209 C  
ENDROOT
BRANCH   5   8
HETATM    8  C   UNL     1      -8.286  17.147  69.222  1.00  0.00     0.126 A  
HETATM    9  C   UNL     1      -9.637  17.042  69.827  1.00  0.00     0.599 A  
HETATM   10  C   UNL     1     -10.067  15.825  70.381  1.00  0.00     0.184 A  
HETATM   11  C   UNL     1     -11.324  15.726  70.974  1.00  0.00    -0.437 A  
HETATM   12  C   UNL     1     -12.157  16.841  71.025  1.00  0.00     1.313 A  
HETATM   13  C   UNL     1     -11.729  18.061  70.496  1.00  0.00     5.470 A  
HETATM   14  C   UNL     1     -10.459  18.184  69.914  1.00  0.00     1.003 A  
HETATM   15  C   UNL     1     -10.058  19.504  69.388  1.00  0.00    -0.180 A  
HETATM   16  C   UNL     1      -8.826  20.045  69.427  1.00  0.00     0.444 A  
HETATM   17  C   UNL     1      -7.612  19.431  70.000  1.00  0.00     0.527 A  
HETATM   18  C   UNL     1      -6.697  20.264  70.663  1.00  0.00     0.169 A  
HETATM   19  C   UNL     1      -5.538  19.736  71.238  1.00  0.00    -0.332 A  
HETATM   20  C   UNL     1      -5.271  18.373  71.150  1.00  0.00    -0.267 A  
HETATM   21  C   UNL     1      -6.159  17.535  70.478  1.00  0.00     0.403 A  
HETATM   22  C   UNL     1      -7.319  18.058  69.885  1.00  0.00     0.880 A  
ENDBRANCH   5   8
TORSDOF 1
ENDMDL
MODEL      214
REMARK 921   NORMALIZED FREE ENERGY PREDICTED BY IDOCK:   29.61 KCAL/MOL
REMARK 922        TOTAL FREE ENERGY PREDICTED BY IDOCK:   30.50 KCAL/MOL
REMARK 923 INTER-LIGAND FREE ENERGY PREDICTED BY IDOCK:   31.34 KCAL/MOL
REMARK 924 INTRA-LIGAND FREE ENERGY PREDICTED BY IDOCK:   -0.84 KCAL/MOL
REMARK 927      BINDING AFFINITY PREDICTED BY RF-SCORE:    0.00 PKD
ROOT
HETATM    1  C   UNL     1      -9.795  11.872  71.112  1.00  0.00     8.742 C  
HETATM    2  N   UNL     1      -8.554  12.498  70.662  1.00  0.00     6.104 NA 
HETATM    3  C   UNL     1      -8.423  12.474  69.195  1.00  0.00     0.639 C  
HETATM    4  C   UNL     1      -9.386  13.413  68.450  1.00  0.00    -0.165 C  
HETATM    5  C   UNL     1      -9.297  14.845  68.959  1.00  0.00    -0.179 C  
HETATM    6  C   UNL     1      -8.427  13.883  71.147  1.00  0.00     6.360 C  
HETATM    7  C   UNL     1      -9.379  14.896  70.481  1.00  0.00     1.263 C  
ENDROOT
BRANCH   5   8
HETATM    8  C   UNL     1      -9.112  15.933  68.164  1.00  0.00    -0.182 A  
HETATM    9  C   UNL     1      -7.750  16.420  67.833  1.00  0.00    -0.161 A  
HETATM   10  C   UNL     1      -6.924  15.674  66.976  1.00  0.00    -0.073 A  
HETATM   11  C   UNL     1      -5.654  16.138  66.640  1.00  0.00     0.672 A  
HETATM   12  C   UNL     1      -5.203  17.353  67.149  1.00  0.00    -0.160 A  
HETATM   13  C   UNL     1      -6.026  18.113  67.984  1.00  0.00    -0.168 A  
HETATM   14  C   UNL     1      -7.314  17.671  68.316  1.00  0.00    -0.234 A  
HETATM   15  C   UNL     1      -8.142  18.528  69.189  1.00  0.00    -0.006 A  
HETATM   16  C   UNL     1      -9.473  18.709  69.109  1.00  0.00    -0.119 A  
HETATM   17  C   UNL     1     -10.390  18.087  68.133  1.00  0.00    -0.398 A  
HETATM   18  C   UNL     1     -11.460  18.854  67.647  1.00  0.00     0.749 A  
HETATM   19  C   UNL     1     -12.352  18.323  66.711  1.00  0.00     5.102 A  
HETATM   20  C   UNL     1     -12.194  17.016  66.257  1.00  0.00     3.770 A  
HETATM   21  C   UNL     1     -11.148  16.235  66.745  1.00  0.00     0.081 A  
HETATM   22  C   UNL     1     -10.255  16.755  67.696  1.00  0.00    -0.289 A  
ENDBRANCH   5   8
TORSDOF 1
ENDMDL
MODEL      215
REMARK 921   NORMALIZED FREE ENERGY PREDICTED BY IDOCK:   37.59 KCAL/MOL
REMARK 922        TOTAL FREE ENERGY PREDICTED BY IDOCK:   38.94 KCAL/MOL
REMARK 923 INTER-LIGAND FREE ENERGY PREDICTED BY IDOCK:   39.77 KCAL/MOL
REMARK 924 INTRA-LIGAND FREE ENERGY PREDICTED BY IDOCK:   -0.83 KCAL/MOL
REMARK 927      BINDING AFFINITY PREDICTED BY RF-SCORE:    0.00 PKD
ROOT
HETATM    1  C   UNL     1      -6.452  17.559  63.900  1.00  0.00     6.505 C  
HETATM    2  N   UNL     1      -7.417  18.360  64.648  1.00  0.00     2.039 NA 
HETATM    3  C   UNL     1      -8.801  17.907  64.426  1.00  0.00     8.020 C  
HETATM    4  C   UNL     1      -9.145  16.553  65.069  1.00  0.00     2.248 C  
HETATM    5  C   UNL     1      -8.819  16.527  66.557  1.00  0.00    -0.317 C  
HETATM    6  C   UNL     1      -7.127  18.368  66.093  1.00  0.00    -0.265 C  
HETATM    7  C   UNL     1      -7.408  17.040  66.821  1.00  0.00    -0.266 C  
ENDROOT
BRANCH   5   8
HETATM    8  C   UNL     1      -9.693  16.149  67.527  1.00  0.00    -0.233 A  
HETATM    9  C   UNL     1      -9.923  14.717  67.840  1.00  0.00    -0.221 A  
HETATM   10  C   UNL     1      -8.920  13.966  68.474  1.00  0.00    -0.141 A  
HETATM   11  C   UNL     1      -9.137  12.628  68.795  1.00  0.00     0.163 A  
HETATM   12  C   UNL     1     -10.359  12.032  68.492  1.00  0.00    -0.228 A  
HETATM   13  C   UNL     1     -11.370  12.777  67.880  1.00  0.00    -0.339 A  
HETATM   14  C   UNL     1     -11.176  14.131  67.569  1.00  0.00    -0.323 A  
HETATM   15  C   UNL     1     -12.289  14.868  66.940  1.00  0.00     0.302 A  
HETATM   16  C   UNL     1     -12.625  16.154  67.154  1.00  0.00     2.722 A  
HETATM   17  C   UNL     1     -11.948  17.102  68.061  1.00  0.00     1.453 A  
HETATM   18  C   UNL     1     -12.737  18.025  68.763  1.00  0.00     8.012 A  
HETATM   19  C   UNL     1     -12.153  18.938  69.647  1.00  0.00     9.541 A  
HETATM   20  C   UNL     1     -10.774  18.946  69.833  1.00  0.00     1.673 A  
HETATM   21  C   UNL     1      -9.973  18.049  69.128  1.00  0.00    -0.201 A  
HETATM   22  C   UNL     1     -10.550  17.138  68.228  1.00  0.00    -0.375 A  
ENDBRANCH   5   8
TORSDOF 1
ENDMDL
