MODEL        1
REMARK 921   NORMALIZED FREE ENERGY PREDICTED BY IDOCK:   -7.11 KCAL/MOL
REMARK 922        TOTAL FREE ENERGY PREDICTED BY IDOCK:   -8.84 KCAL/MOL
REMARK 923 INTER-LIGAND FREE ENERGY PREDICTED BY IDOCK:   -8.36 KCAL/MOL
REMARK 924 INTRA-LIGAND FREE ENERGY PREDICTED BY IDOCK:   -0.48 KCAL/MOL
REMARK 927      BINDING AFFINITY PREDICTED BY RF-SCORE:    0.00 PKD
ROOT
HETATM    1  C   UNL     1     -11.314  12.174  65.708  1.00  0.00    -0.402 C  
HETATM    2  C   UNL     1      -9.941  11.851  65.481  1.00  0.00    -0.266 C  
HETATM    3  C   UNL     1      -9.995  13.378  65.452  1.00  0.00    -0.211 C  
HETATM    4  C   UNL     1     -10.818  14.815  65.678  1.00  0.00    -0.344 C  
HETATM    5  C   UNL     1     -11.048  15.299  64.215  1.00  0.00     0.053 C  
HETATM    6  C   UNL     1     -11.900  14.380  66.685  1.00  0.00    -0.417 C  
HETATM    7  C   UNL     1     -13.013  13.856  66.124  1.00  0.00     0.008 C  
HETATM    8  C   UNL     1     -11.142  13.995  67.960  1.00  0.00    -0.263 C  
HETATM    9 CL   UNL     1     -11.728  12.733  68.990  1.00  0.00    -0.353 Cl 
HETATM   10  C   UNL     1      -9.930  14.535  68.258  1.00  0.00    -0.229 C  
HETATM   11  C   UNL     1     -12.534  12.769  65.165  1.00  0.00    -0.501 C  
HETATM   12  C   UNL     1      -9.369  15.777  67.560  1.00  0.00    -0.210 C  
HETATM   13  O   UNL     1     -13.063  12.463  64.109  1.00  0.00    -0.762 OA 
HETATM   14  C   UNL     1      -9.149  16.891  68.639  1.00  0.00    -0.265 C  
HETATM   15  C   UNL     1      -7.714  16.731  69.196  1.00  0.00    -0.165 C  
HETATM   16  C   UNL     1      -6.996  18.036  68.929  1.00  0.00    -0.263 C  
HETATM   17  C   UNL     1      -7.786  18.733  67.805  1.00  0.00    -0.237 C  
HETATM   18  C   UNL     1     -10.401  16.122  66.521  1.00  0.00    -0.311 C  
HETATM   19  C   UNL     1     -10.328  18.596  67.093  1.00  0.00    -0.442 C  
HETATM   20  C   UNL     1      -9.257  18.403  68.207  1.00  0.00    -0.333 C  
HETATM   21  C   UNL     1     -10.371  17.550  65.951  1.00  0.00    -0.265 C  
HETATM   22  C   UNL     1      -9.725  19.274  69.417  1.00  0.00    -0.181 C  
ENDROOT
BRANCH  17  23
HETATM   23  O   UNL     1      -7.666  18.041  66.543  1.00  0.00    -0.222 OA 
BRANCH  23  24
HETATM   24  C   UNL     1      -6.606  18.233  65.731  1.00  0.00    -0.282 C  
HETATM   25  O   UNL     1      -6.592  18.974  64.755  1.00  0.00    -0.484 OA 
HETATM   26  C   UNL     1      -5.458  17.389  66.196  1.00  0.00    -0.170 C  
ENDBRANCH  23  24
ENDBRANCH  17  23
BRANCH  17  27
HETATM   27  C   UNL     1      -7.438  20.231  67.649  1.00  0.00    -0.309 C  
HETATM   28  C   UNL     1      -6.190  20.790  68.320  1.00  0.00    -0.373 C  
HETATM   29  O   UNL     1      -8.141  20.990  66.971  1.00  0.00    -0.154 OA 
ENDBRANCH  17  27
TORSDOF 3
ENDMDL
MODEL        2
REMARK 921   NORMALIZED FREE ENERGY PREDICTED BY IDOCK:   -6.60 KCAL/MOL
REMARK 922        TOTAL FREE ENERGY PREDICTED BY IDOCK:   -8.24 KCAL/MOL
REMARK 923 INTER-LIGAND FREE ENERGY PREDICTED BY IDOCK:   -7.50 KCAL/MOL
REMARK 924 INTRA-LIGAND FREE ENERGY PREDICTED BY IDOCK:   -0.74 KCAL/MOL
REMARK 927      BINDING AFFINITY PREDICTED BY RF-SCORE:    0.00 PKD
ROOT
HETATM    1  C   UNL     1     -11.410  13.890  66.739  1.00  0.00    -0.347 C  
HETATM    2  C   UNL     1     -12.281  12.988  66.056  1.00  0.00    -0.463 C  
HETATM    3  C   UNL     1     -11.228  12.094  66.711  1.00  0.00    -0.375 C  
HETATM    4  C   UNL     1      -9.929  11.883  67.740  1.00  0.00    -0.191 C  
HETATM    5  C   UNL     1      -8.751  11.653  66.747  1.00  0.00    -0.189 C  
HETATM    6  C   UNL     1     -10.110  13.081  68.694  1.00  0.00    -0.143 C  
HETATM    7  C   UNL     1      -9.551  14.232  68.261  1.00  0.00    -0.221 C  
HETATM    8  C   UNL     1     -11.424  12.819  69.436  1.00  0.00    -0.257 C  
HETATM    9 CL   UNL     1     -12.441  14.133  69.922  1.00  0.00    -0.368 Cl 
HETATM   10  C   UNL     1     -11.898  11.557  69.623  1.00  0.00    -0.421 C  
HETATM   11  C   UNL     1     -10.060  14.444  66.837  1.00  0.00    -0.259 C  
HETATM   12  C   UNL     1     -11.046  10.301  69.420  1.00  0.00    -0.299 C  
HETATM   13  O   UNL     1      -9.439  14.965  65.926  1.00  0.00    -0.307 OA 
HETATM   14  C   UNL     1     -10.971   9.532  70.783  1.00  0.00    -0.389 C  
HETATM   15  C   UNL     1     -12.161   8.544  70.833  1.00  0.00    -0.159 C  
HETATM   16  C   UNL     1     -11.570   7.160  70.990  1.00  0.00    -0.345 C  
HETATM   17  C   UNL     1     -10.106   7.268  70.523  1.00  0.00    -0.191 C  
HETATM   18  C   UNL     1      -9.721  10.822  68.934  1.00  0.00    -0.207 C  
HETATM   19  C   UNL     1      -8.413   9.298  70.490  1.00  0.00    -0.251 C  
HETATM   20  C   UNL     1      -9.697   8.659  71.097  1.00  0.00    -0.287 C  
HETATM   21  C   UNL     1      -8.510   9.881  69.057  1.00  0.00    -0.136 C  
HETATM   22  C   UNL     1      -9.461   8.591  72.641  1.00  0.00    -0.295 C  
ENDROOT
BRANCH  17  23
HETATM   23  O   UNL     1     -10.002   7.497  69.100  1.00  0.00    -0.171 OA 
BRANCH  23  24
HETATM   24  C   UNL     1     -10.587   6.671  68.208  1.00  0.00    -0.241 C  
HETATM   25  O   UNL     1     -10.908   5.509  68.430  1.00  0.00    -0.155 OA 
HETATM   26  C   UNL     1     -10.766   7.388  66.905  1.00  0.00    -0.324 C  
ENDBRANCH  23  24
ENDBRANCH  17  23
BRANCH  17  27
HETATM   27  C   UNL     1      -9.235   6.066  70.955  1.00  0.00    -0.154 C  
HETATM   28  C   UNL     1      -9.856   4.934  71.761  1.00  0.00    -0.240 C  
HETATM   29  O   UNL     1      -8.040   5.988  70.641  1.00  0.00    -0.111 OA 
ENDBRANCH  17  27
TORSDOF 3
ENDMDL
MODEL        3
REMARK 921   NORMALIZED FREE ENERGY PREDICTED BY IDOCK:   -6.45 KCAL/MOL
REMARK 922        TOTAL FREE ENERGY PREDICTED BY IDOCK:   -8.06 KCAL/MOL
REMARK 923 INTER-LIGAND FREE ENERGY PREDICTED BY IDOCK:   -7.43 KCAL/MOL
REMARK 924 INTRA-LIGAND FREE ENERGY PREDICTED BY IDOCK:   -0.63 KCAL/MOL
REMARK 927      BINDING AFFINITY PREDICTED BY RF-SCORE:    0.00 PKD
ROOT
HETATM    1  C   UNL     1     -11.639  14.459  66.737  1.00  0.00    -0.399 C  
HETATM    2  C   UNL     1     -12.640  13.637  66.137  1.00  0.00    -0.391 C  
HETATM    3  C   UNL     1     -11.572  12.659  66.627  1.00  0.00    -0.443 C  
HETATM    4  C   UNL     1     -10.174  12.333  67.481  1.00  0.00    -0.212 C  
HETATM    5  C   UNL     1      -9.141  12.078  66.343  1.00  0.00    -0.193 C  
HETATM    6  C   UNL     1     -10.164  13.499  68.489  1.00  0.00    -0.229 C  
HETATM    7  C   UNL     1      -9.592  14.634  68.030  1.00  0.00    -0.212 C  
HETATM    8  C   UNL     1     -11.393  13.283  69.378  1.00  0.00    -0.219 C  
HETATM    9 CL   UNL     1     -12.262  14.631  70.029  1.00  0.00    -0.372 Cl 
HETATM   10  C   UNL     1     -11.917  12.043  69.580  1.00  0.00    -0.346 C  
HETATM   11  C   UNL     1     -10.256  14.933  66.687  1.00  0.00    -0.261 C  
HETATM   12  C   UNL     1     -11.174  10.750  69.232  1.00  0.00    -0.333 C  
HETATM   13  O   UNL     1      -9.720  15.454  65.724  1.00  0.00    -0.329 OA 
HETATM   14  C   UNL     1     -10.982   9.924  70.549  1.00  0.00    -0.391 C  
HETATM   15  C   UNL     1     -12.215   9.003  70.711  1.00  0.00    -0.119 C  
HETATM   16  C   UNL     1     -11.695   7.582  70.748  1.00  0.00    -0.281 C  
HETATM   17  C   UNL     1     -10.295   7.626  70.108  1.00  0.00    -0.217 C  
HETATM   18  C   UNL     1      -9.888  11.215  68.604  1.00  0.00    -0.207 C  
HETATM   19  C   UNL     1      -8.497   9.557  69.935  1.00  0.00    -0.198 C  
HETATM   20  C   UNL     1      -9.735   8.968  70.674  1.00  0.00    -0.287 C  
HETATM   21  C   UNL     1      -8.731  10.203  68.546  1.00  0.00    -0.123 C  
HETATM   22  C   UNL     1      -9.319   8.824  72.174  1.00  0.00    -0.277 C  
ENDROOT
BRANCH  17  23
HETATM   23  O   UNL     1     -10.350   7.906  68.693  1.00  0.00    -0.203 OA 
BRANCH  23  24
HETATM   24  C   UNL     1     -10.402   6.916  67.779  1.00  0.00    -0.203 C  
HETATM   25  O   UNL     1     -11.282   6.065  67.712  1.00  0.00    -0.236 OA 
HETATM   26  C   UNL     1      -9.213   7.008  66.871  1.00  0.00    -0.174 C  
ENDBRANCH  23  24
ENDBRANCH  17  23
BRANCH  17  27
HETATM   27  C   UNL     1      -9.453   6.360  70.389  1.00  0.00    -0.162 C  
HETATM   28  C   UNL     1     -10.133   5.100  70.907  1.00  0.00    -0.302 C  
HETATM   29  O   UNL     1      -8.233   6.337  70.182  1.00  0.00    -0.117 OA 
ENDBRANCH  17  27
TORSDOF 3
ENDMDL
MODEL        4
REMARK 921   NORMALIZED FREE ENERGY PREDICTED BY IDOCK:   -6.30 KCAL/MOL
REMARK 922        TOTAL FREE ENERGY PREDICTED BY IDOCK:   -7.89 KCAL/MOL
REMARK 923 INTER-LIGAND FREE ENERGY PREDICTED BY IDOCK:   -7.27 KCAL/MOL
REMARK 924 INTRA-LIGAND FREE ENERGY PREDICTED BY IDOCK:   -0.62 KCAL/MOL
REMARK 927      BINDING AFFINITY PREDICTED BY RF-SCORE:    0.00 PKD
ROOT
HETATM    1  C   UNL     1      -7.373  19.710  66.494  1.00  0.00    -0.262 C  
HETATM    2  C   UNL     1      -6.603  19.086  65.467  1.00  0.00    -0.309 C  
HETATM    3  C   UNL     1      -6.999  17.946  66.406  1.00  0.00    -0.284 C  
HETATM    4  C   UNL     1      -7.870  17.364  67.707  1.00  0.00    -0.205 C  
HETATM    5  C   UNL     1      -6.764  17.173  68.788  1.00  0.00    -0.200 C  
HETATM    6  C   UNL     1      -9.039  18.367  67.753  1.00  0.00    -0.288 C  
HETATM    7  C   UNL     1      -8.786  19.493  68.455  1.00  0.00    -0.389 C  
HETATM    8  C   UNL     1      -9.818  18.148  66.451  1.00  0.00    -0.353 C  
HETATM    9 CL   UNL     1     -10.615  19.468  65.666  1.00  0.00    -0.528 Cl 
HETATM   10  C   UNL     1      -9.804  16.951  65.806  1.00  0.00    -0.166 C  
HETATM   11  C   UNL     1      -7.469  20.045  67.915  1.00  0.00    -0.295 C  
HETATM   12  C   UNL     1      -9.308  15.653  66.451  1.00  0.00    -0.332 C  
HETATM   13  O   UNL     1      -6.626  20.643  68.561  1.00  0.00    -0.279 OA 
HETATM   14  C   UNL     1     -10.495  14.632  66.476  1.00  0.00    -0.290 C  
HETATM   15  C   UNL     1     -10.450  13.825  65.157  1.00  0.00    -0.399 C  
HETATM   16  C   UNL     1     -10.303  12.368  65.543  1.00  0.00    -0.298 C  
HETATM   17  C   UNL     1      -9.754  12.364  66.982  1.00  0.00    -0.211 C  
HETATM   18  C   UNL     1      -8.827  16.073  67.813  1.00  0.00    -0.177 C  
HETATM   19  C   UNL     1      -9.970  14.111  68.954  1.00  0.00    -0.132 C  
HETATM   20  C   UNL     1     -10.544  13.549  67.620  1.00  0.00    -0.246 C  
HETATM   21  C   UNL     1      -8.681  14.970  68.875  1.00  0.00    -0.197 C  
HETATM   22  C   UNL     1     -12.025  13.150  67.918  1.00  0.00    -0.347 C  
ENDROOT
BRANCH  17  23
HETATM   23  O   UNL     1      -8.395  12.849  67.049  1.00  0.00    -0.174 OA 
BRANCH  23  24
HETATM   24  C   UNL     1      -7.343  12.008  66.990  1.00  0.00    -0.097 C  
HETATM   25  O   UNL     1      -7.127  11.212  66.083  1.00  0.00    -0.097 OA 
HETATM   26  C   UNL     1      -6.491  12.185  68.211  1.00  0.00    -0.055 C  
ENDBRANCH  23  24
ENDBRANCH  17  23
BRANCH  17  27
HETATM   27  C   UNL     1      -9.889  10.994  67.685  1.00  0.00    -0.172 C  
HETATM   28  C   UNL     1     -10.324   9.774  66.884  1.00  0.00    -0.301 C  
HETATM   29  O   UNL     1      -9.628  10.856  68.886  1.00  0.00    -0.192 OA 
ENDBRANCH  17  27
TORSDOF 3
ENDMDL
MODEL        5
REMARK 921   NORMALIZED FREE ENERGY PREDICTED BY IDOCK:   -6.12 KCAL/MOL
REMARK 922        TOTAL FREE ENERGY PREDICTED BY IDOCK:   -7.68 KCAL/MOL
REMARK 923 INTER-LIGAND FREE ENERGY PREDICTED BY IDOCK:   -6.79 KCAL/MOL
REMARK 924 INTRA-LIGAND FREE ENERGY PREDICTED BY IDOCK:   -0.89 KCAL/MOL
REMARK 927      BINDING AFFINITY PREDICTED BY RF-SCORE:    0.00 PKD
ROOT
HETATM    1  C   UNL     1      -7.964   7.311  65.298  1.00  0.00    -0.127 C  
HETATM    2  C   UNL     1      -9.142   6.873  65.974  1.00  0.00    -0.101 C  
HETATM    3  C   UNL     1      -8.845   8.254  66.558  1.00  0.00    -0.175 C  
HETATM    4  C   UNL     1      -7.984   9.685  66.556  1.00  0.00    -0.112 C  
HETATM    5  C   UNL     1      -7.083   9.533  67.819  1.00  0.00    -0.081 C  
HETATM    6  C   UNL     1      -7.512   9.743  65.090  1.00  0.00    -0.122 C  
HETATM    7  C   UNL     1      -6.363   9.077  64.843  1.00  0.00    -0.066 C  
HETATM    8  C   UNL     1      -8.788   9.890  64.255  1.00  0.00    -0.225 C  
HETATM    9 CL   UNL     1      -8.897   9.186  62.677  1.00  0.00    -0.211 Cl 
HETATM   10  C   UNL     1      -9.912  10.459  64.766  1.00  0.00    -0.409 C  
HETATM   11  C   UNL     1      -6.551   7.674  65.416  1.00  0.00    -0.045 C  
HETATM   12  C   UNL     1      -9.925  11.282  66.058  1.00  0.00    -0.273 C  
HETATM   13  O   UNL     1      -5.680   6.981  65.912  1.00  0.00    -0.029 OA 
HETATM   14  C   UNL     1     -10.406  12.732  65.712  1.00  0.00    -0.297 C  
HETATM   15  C   UNL     1     -11.947  12.762  65.846  1.00  0.00    -0.506 C  
HETATM   16  C   UNL     1     -12.273  13.814  66.884  1.00  0.00    -0.408 C  
HETATM   17  C   UNL     1     -10.984  14.016  67.703  1.00  0.00    -0.269 C  
HETATM   18  C   UNL     1      -8.511  11.207  66.563  1.00  0.00    -0.165 C  
HETATM   19  C   UNL     1      -8.434  13.693  67.082  1.00  0.00    -0.186 C  
HETATM   20  C   UNL     1      -9.892  13.935  66.591  1.00  0.00    -0.288 C  
HETATM   21  C   UNL     1      -8.074  12.271  67.584  1.00  0.00    -0.165 C  
HETATM   22  C   UNL     1      -9.852  15.244  65.737  1.00  0.00    -0.395 C  
ENDROOT
BRANCH  17  23
HETATM   23  O   UNL     1     -10.664  12.862  68.510  1.00  0.00    -0.242 OA 
BRANCH  23  24
HETATM   24  C   UNL     1     -11.567  12.316  69.351  1.00  0.00    -0.314 C  
HETATM   25  O   UNL     1     -12.172  12.925  70.226  1.00  0.00    -0.339 OA 
HETATM   26  C   UNL     1     -11.701  10.852  69.059  1.00  0.00    -0.391 C  
ENDBRANCH  23  24
ENDBRANCH  17  23
BRANCH  17  27
HETATM   27  C   UNL     1     -10.996  15.304  68.559  1.00  0.00    -0.266 C  
HETATM   28  C   UNL     1      -9.854  15.577  69.528  1.00  0.00    -0.284 C  
HETATM   29  O   UNL     1     -11.907  16.136  68.460  1.00  0.00    -0.300 OA 
ENDBRANCH  17  27
TORSDOF 3
ENDMDL
MODEL        6
REMARK 921   NORMALIZED FREE ENERGY PREDICTED BY IDOCK:   -6.04 KCAL/MOL
REMARK 922        TOTAL FREE ENERGY PREDICTED BY IDOCK:   -7.58 KCAL/MOL
REMARK 923 INTER-LIGAND FREE ENERGY PREDICTED BY IDOCK:   -6.87 KCAL/MOL
REMARK 924 INTRA-LIGAND FREE ENERGY PREDICTED BY IDOCK:   -0.71 KCAL/MOL
REMARK 927      BINDING AFFINITY PREDICTED BY RF-SCORE:    0.00 PKD
ROOT
HETATM    1  C   UNL     1     -10.131   7.545  71.885  1.00  0.00    -0.205 C  
HETATM    2  C   UNL     1      -9.404   8.461  72.704  1.00  0.00    -0.334 C  
HETATM    3  C   UNL     1      -9.329   9.050  71.296  1.00  0.00    -0.324 C  
HETATM    4  C   UNL     1      -9.792   9.057  69.690  1.00  0.00    -0.182 C  
HETATM    5  C   UNL     1      -8.512   8.530  68.974  1.00  0.00    -0.126 C  
HETATM    6  C   UNL     1     -11.158   8.350  69.773  1.00  0.00    -0.062 C  
HETATM    7  C   UNL     1     -11.097   7.000  69.727  1.00  0.00    -0.278 C  
HETATM    8  C   UNL     1     -12.056   9.286  70.589  1.00  0.00    -0.100 C  
HETATM    9 CL   UNL     1     -13.288   8.650  71.625  1.00  0.00    -0.371 Cl 
HETATM   10  C   UNL     1     -11.835  10.628  70.628  1.00  0.00    -0.463 C  
HETATM   11  C   UNL     1     -10.077   6.584  70.784  1.00  0.00    -0.185 C  
HETATM   12  C   UNL     1     -10.919  11.359  69.643  1.00  0.00    -0.174 C  
HETATM   13  O   UNL     1      -9.324   5.627  70.714  1.00  0.00    -0.158 OA 
HETATM   14  C   UNL     1     -11.777  12.409  68.859  1.00  0.00    -0.372 C  
HETATM   15  C   UNL     1     -11.741  13.735  69.655  1.00  0.00    -0.379 C  
HETATM   16  C   UNL     1     -11.157  14.782  68.730  1.00  0.00    -0.277 C  
HETATM   17  C   UNL     1     -10.397  14.006  67.637  1.00  0.00    -0.242 C  
HETATM   18  C   UNL     1     -10.348  10.265  68.782  1.00  0.00    -0.211 C  
HETATM   19  C   UNL     1     -10.735  11.580  66.642  1.00  0.00    -0.311 C  
HETATM   20  C   UNL     1     -11.353  12.797  67.392  1.00  0.00    -0.363 C  
HETATM   21  C   UNL     1      -9.747  10.681  67.429  1.00  0.00    -0.192 C  
HETATM   22  C   UNL     1     -12.609  13.224  66.566  1.00  0.00     0.005 C  
ENDROOT
BRANCH  17  23
HETATM   23  O   UNL     1      -9.220  13.347  68.154  1.00  0.00    -0.205 OA 
BRANCH  23  24
HETATM   24  C   UNL     1      -8.097  14.035  68.443  1.00  0.00    -0.148 C  
HETATM   25  O   UNL     1      -8.021  14.950  69.255  1.00  0.00    -0.176 OA 
HETATM   26  C   UNL     1      -6.964  13.519  67.607  1.00  0.00    -0.176 C  
ENDBRANCH  23  24
ENDBRANCH  17  23
BRANCH  17  27
HETATM   27  C   UNL     1     -10.052  14.868  66.402  1.00  0.00    -0.284 C  
HETATM   28  C   UNL     1     -10.151  16.385  66.488  1.00  0.00    -0.304 C  
HETATM   29  O   UNL     1      -9.673  14.355  65.342  1.00  0.00    -0.276 OA 
ENDBRANCH  17  27
TORSDOF 3
ENDMDL
MODEL        7
REMARK 921   NORMALIZED FREE ENERGY PREDICTED BY IDOCK:   -6.03 KCAL/MOL
REMARK 922        TOTAL FREE ENERGY PREDICTED BY IDOCK:   -7.57 KCAL/MOL
REMARK 923 INTER-LIGAND FREE ENERGY PREDICTED BY IDOCK:   -6.94 KCAL/MOL
REMARK 924 INTRA-LIGAND FREE ENERGY PREDICTED BY IDOCK:   -0.63 KCAL/MOL
REMARK 927      BINDING AFFINITY PREDICTED BY RF-SCORE:    0.00 PKD
ROOT
HETATM    1  C   UNL     1     -10.785   7.373  72.451  1.00  0.00    -0.295 C  
HETATM    2  C   UNL     1      -9.852   8.196  73.152  1.00  0.00    -0.267 C  
HETATM    3  C   UNL     1      -9.764   8.655  71.697  1.00  0.00    -0.348 C  
HETATM    4  C   UNL     1     -10.321   8.630  70.123  1.00  0.00    -0.219 C  
HETATM    5  C   UNL     1      -9.209   7.823  69.389  1.00  0.00    -0.149 C  
HETATM    6  C   UNL     1     -11.785   8.197  70.334  1.00  0.00     0.007 C  
HETATM    7  C   UNL     1     -11.973   6.861  70.398  1.00  0.00    -0.312 C  
HETATM    8  C   UNL     1     -12.443   9.342  71.113  1.00  0.00    -0.272 C  
HETATM    9 CL   UNL     1     -13.699   9.023  72.260  1.00  0.00    -0.506 Cl 
HETATM   10  C   UNL     1     -11.981  10.619  71.028  1.00  0.00    -0.442 C  
HETATM   11  C   UNL     1     -10.978   6.340  71.433  1.00  0.00    -0.275 C  
HETATM   12  C   UNL     1     -11.013  11.092  69.939  1.00  0.00    -0.218 C  
HETATM   13  O   UNL     1     -10.418   5.258  71.406  1.00  0.00    -0.220 OA 
HETATM   14  C   UNL     1     -11.716  12.223  69.114  1.00  0.00    -0.377 C  
HETATM   15  C   UNL     1     -11.388  13.574  69.793  1.00  0.00    -0.161 C  
HETATM   16  C   UNL     1     -10.686  14.423  68.754  1.00  0.00    -0.258 C  
HETATM   17  C   UNL     1     -10.153  13.441  67.694  1.00  0.00    -0.229 C  
HETATM   18  C   UNL     1     -10.708   9.851  69.145  1.00  0.00    -0.247 C  
HETATM   19  C   UNL     1     -10.989  11.054  66.925  1.00  0.00    -0.311 C  
HETATM   20  C   UNL     1     -11.326  12.417  67.600  1.00  0.00    -0.371 C  
HETATM   21  C   UNL     1     -10.131  10.047  67.733  1.00  0.00    -0.222 C  
HETATM   22  C   UNL     1     -12.536  13.008  66.806  1.00  0.00     0.121 C  
ENDROOT
BRANCH  17  23
HETATM   23  O   UNL     1      -9.084  12.615  68.203  1.00  0.00    -0.196 OA 
BRANCH  23  24
HETATM   24  C   UNL     1      -7.814  13.065  68.268  1.00  0.00    -0.143 C  
HETATM   25  O   UNL     1      -7.440  14.023  68.935  1.00  0.00    -0.120 OA 
HETATM   26  C   UNL     1      -6.939  12.226  67.387  1.00  0.00    -0.151 C  
ENDBRANCH  23  24
ENDBRANCH  17  23
BRANCH  17  27
HETATM   27  C   UNL     1      -9.739  14.131  66.374  1.00  0.00    -0.298 C  
HETATM   28  C   UNL     1      -9.382  15.612  66.375  1.00  0.00    -0.332 C  
HETATM   29  O   UNL     1      -9.667  13.502  65.311  1.00  0.00    -0.132 OA 
ENDBRANCH  17  27
TORSDOF 3
ENDMDL
MODEL        8
REMARK 921   NORMALIZED FREE ENERGY PREDICTED BY IDOCK:   -6.02 KCAL/MOL
REMARK 922        TOTAL FREE ENERGY PREDICTED BY IDOCK:   -7.56 KCAL/MOL
REMARK 923 INTER-LIGAND FREE ENERGY PREDICTED BY IDOCK:   -6.66 KCAL/MOL
REMARK 924 INTRA-LIGAND FREE ENERGY PREDICTED BY IDOCK:   -0.90 KCAL/MOL
REMARK 927      BINDING AFFINITY PREDICTED BY RF-SCORE:    0.00 PKD
ROOT
HETATM    1  C   UNL     1     -10.818  14.024  64.839  1.00  0.00    -0.421 C  
HETATM    2  C   UNL     1      -9.681  14.591  65.490  1.00  0.00    -0.232 C  
HETATM    3  C   UNL     1     -10.028  13.353  66.316  1.00  0.00    -0.298 C  
HETATM    4  C   UNL     1     -10.903  11.948  66.542  1.00  0.00    -0.317 C  
HETATM    5  C   UNL     1     -11.880  12.345  67.688  1.00  0.00    -0.363 C  
HETATM    6  C   UNL     1     -11.281  11.598  65.089  1.00  0.00    -0.262 C  
HETATM    7  C   UNL     1     -12.405  12.199  64.641  1.00  0.00    -0.356 C  
HETATM    8  C   UNL     1      -9.955  11.292  64.383  1.00  0.00    -0.288 C  
HETATM    9 CL   UNL     1      -9.738  11.669  62.708  1.00  0.00    -0.240 Cl 
HETATM   10  C   UNL     1      -8.871  10.838  65.069  1.00  0.00    -0.190 C  
HETATM   11  C   UNL     1     -12.238  13.688  64.935  1.00  0.00    -0.414 C  
HETATM   12  C   UNL     1      -8.949  10.288  66.496  1.00  0.00    -0.161 C  
HETATM   13  O   UNL     1     -13.132  14.464  65.227  1.00  0.00    -0.629 OA 
HETATM   14  C   UNL     1      -8.462   8.800  66.477  1.00  0.00    -0.120 C  
HETATM   15  C   UNL     1      -6.933   8.801  66.713  1.00  0.00    -0.080 C  
HETATM   16  C   UNL     1      -6.685   7.977  67.959  1.00  0.00    -0.065 C  
HETATM   17  C   UNL     1      -8.026   7.939  68.716  1.00  0.00    -0.124 C  
HETATM   18  C   UNL     1     -10.393  10.459  66.884  1.00  0.00    -0.297 C  
HETATM   19  C   UNL     1     -10.527   8.125  67.880  1.00  0.00    -0.259 C  
HETATM   20  C   UNL     1      -9.043   7.794  67.542  1.00  0.00    -0.136 C  
HETATM   21  C   UNL     1     -10.904   9.617  68.066  1.00  0.00    -0.250 C  
HETATM   22  C   UNL     1      -9.042   6.342  66.964  1.00  0.00    -0.125 C  
ENDROOT
BRANCH  17  23
HETATM   23  O   UNL     1      -8.385   9.229  69.256  1.00  0.00    -0.115 OA 
BRANCH  23  24
HETATM   24  C   UNL     1      -7.568   9.893  70.099  1.00  0.00    -0.175 C  
HETATM   25  O   UNL     1      -7.252   9.512  71.220  1.00  0.00    -0.325 OA 
HETATM   26  C   UNL     1      -7.122  11.174  69.460  1.00  0.00    -0.088 C  
ENDBRANCH  23  24
ENDBRANCH  17  23
BRANCH  17  27
HETATM   27  C   UNL     1      -8.081   6.846  69.809  1.00  0.00    -0.126 C  
HETATM   28  C   UNL     1      -6.875   5.947  70.039  1.00  0.00    -0.057 C  
HETATM   29  O   UNL     1      -9.081   6.697  70.523  1.00  0.00    -0.151 OA 
ENDBRANCH  17  27
TORSDOF 3
ENDMDL
MODEL        9
REMARK 921   NORMALIZED FREE ENERGY PREDICTED BY IDOCK:   -6.01 KCAL/MOL
REMARK 922        TOTAL FREE ENERGY PREDICTED BY IDOCK:   -7.55 KCAL/MOL
REMARK 923 INTER-LIGAND FREE ENERGY PREDICTED BY IDOCK:   -6.64 KCAL/MOL
REMARK 924 INTRA-LIGAND FREE ENERGY PREDICTED BY IDOCK:   -0.91 KCAL/MOL
REMARK 927      BINDING AFFINITY PREDICTED BY RF-SCORE:    0.00 PKD
ROOT
HETATM    1  C   UNL     1      -9.201   9.358  67.397  1.00  0.00    -0.145 C  
HETATM    2  C   UNL     1      -9.319   9.570  65.990  1.00  0.00    -0.273 C  
HETATM    3  C   UNL     1      -9.876  10.843  66.626  1.00  0.00    -0.237 C  
HETATM    4  C   UNL     1     -10.153  11.806  67.963  1.00  0.00    -0.198 C  
HETATM    5  C   UNL     1     -11.690  11.655  68.169  1.00  0.00    -0.365 C  
HETATM    6  C   UNL     1      -9.044  11.317  68.914  1.00  0.00    -0.064 C  
HETATM    7  C   UNL     1      -9.374  10.235  69.653  1.00  0.00    -0.167 C  
HETATM    8  C   UNL     1      -7.724  11.709  68.240  1.00  0.00    -0.128 C  
HETATM    9 CL   UNL     1      -6.313  10.724  68.421  1.00  0.00    -0.053 Cl 
HETATM   10  C   UNL     1      -7.648  12.761  67.382  1.00  0.00    -0.152 C  
HETATM   11  C   UNL     1      -9.902   9.193  68.670  1.00  0.00    -0.164 C  
HETATM   12  C   UNL     1      -8.742  13.827  67.258  1.00  0.00    -0.226 C  
HETATM   13  O   UNL     1     -10.778   8.376  68.896  1.00  0.00    -0.179 OA 
HETATM   14  C   UNL     1      -8.119  15.215  67.630  1.00  0.00    -0.177 C  
HETATM   15  C   UNL     1      -7.560  15.844  66.331  1.00  0.00     0.174 C  
HETATM   16  C   UNL     1      -8.273  17.166  66.146  1.00  0.00    -0.269 C  
HETATM   17  C   UNL     1      -9.559  17.076  66.989  1.00  0.00    -0.254 C  
HETATM   18  C   UNL     1      -9.821  13.365  68.198  1.00  0.00    -0.234 C  
HETATM   19  C   UNL     1     -10.146  15.692  69.164  1.00  0.00    -0.237 C  
HETATM   20  C   UNL     1      -9.048  16.323  68.257  1.00  0.00    -0.197 C  
HETATM   21  C   UNL     1     -10.853  14.413  68.649  1.00  0.00    -0.260 C  
HETATM   22  C   UNL     1      -8.210  17.266  69.179  1.00  0.00     0.008 C  
ENDROOT
BRANCH  17  23
HETATM   23  O   UNL     1     -10.503  16.128  66.447  1.00  0.00    -0.301 OA 
BRANCH  23  24
HETATM   24  C   UNL     1     -10.818  16.117  65.135  1.00  0.00    -0.361 C  
HETATM   25  O   UNL     1     -11.188  17.093  64.492  1.00  0.00    -1.104 OA 
HETATM   26  C   UNL     1     -10.662  14.729  64.593  1.00  0.00    -0.279 C  
ENDBRANCH  23  24
ENDBRANCH  17  23
BRANCH  17  27
HETATM   27  C   UNL     1     -10.230  18.448  67.231  1.00  0.00    -0.374 C  
HETATM   28  C   UNL     1      -9.538  19.720  66.760  1.00  0.00    -0.501 C  
HETATM   29  O   UNL     1     -11.334  18.539  67.782  1.00  0.00     0.076 OA 
ENDBRANCH  17  27
TORSDOF 3
ENDMDL
MODEL       10
REMARK 921   NORMALIZED FREE ENERGY PREDICTED BY IDOCK:   -5.88 KCAL/MOL
REMARK 922        TOTAL FREE ENERGY PREDICTED BY IDOCK:   -7.40 KCAL/MOL
REMARK 923 INTER-LIGAND FREE ENERGY PREDICTED BY IDOCK:   -6.50 KCAL/MOL
REMARK 924 INTRA-LIGAND FREE ENERGY PREDICTED BY IDOCK:   -0.90 KCAL/MOL
REMARK 927      BINDING AFFINITY PREDICTED BY RF-SCORE:    0.00 PKD
ROOT
HETATM    1  C   UNL     1     -11.984  12.591  66.826  1.00  0.00    -0.327 C  
HETATM    2  C   UNL     1     -12.729  13.613  66.163  1.00  0.00    -0.295 C  
HETATM    3  C   UNL     1     -11.821  14.360  67.139  1.00  0.00    -0.437 C  
HETATM    4  C   UNL     1     -10.563  14.381  68.238  1.00  0.00    -0.243 C  
HETATM    5  C   UNL     1     -11.307  14.580  69.592  1.00  0.00    -0.314 C  
HETATM    6  C   UNL     1      -9.766  13.136  67.799  1.00  0.00    -0.218 C  
HETATM    7  C   UNL     1     -10.193  11.975  68.343  1.00  0.00    -0.211 C  
HETATM    8  C   UNL     1      -9.249  13.456  66.392  1.00  0.00    -0.116 C  
HETATM    9 CL   UNL     1      -9.070  12.204  65.211  1.00  0.00     0.221 Cl 
HETATM   10  C   UNL     1      -9.038  14.737  65.985  1.00  0.00    -0.061 C  
HETATM   11  C   UNL     1     -11.698  11.914  68.091  1.00  0.00    -0.320 C  
HETATM   12  C   UNL     1      -8.974  15.926  66.949  1.00  0.00    -0.257 C  
HETATM   13  O   UNL     1     -12.527  11.411  68.829  1.00  0.00    -0.396 OA 
HETATM   14  C   UNL     1      -7.557  16.582  66.827  1.00  0.00    -0.298 C  
HETATM   15  C   UNL     1      -7.633  17.664  65.723  1.00  0.00    -0.005 C  
HETATM   16  C   UNL     1      -7.251  18.976  66.374  1.00  0.00    -0.254 C  
HETATM   17  C   UNL     1      -7.459  18.776  67.887  1.00  0.00    -0.242 C  
HETATM   18  C   UNL     1      -9.262  15.328  68.299  1.00  0.00    -0.189 C  
HETATM   19  C   UNL     1      -7.370  16.613  69.406  1.00  0.00    -0.095 C  
HETATM   20  C   UNL     1      -6.946  17.315  68.081  1.00  0.00    -0.181 C  
HETATM   21  C   UNL     1      -8.843  16.148  69.531  1.00  0.00     0.017 C  
HETATM   22  C   UNL     1      -5.386  17.248  68.033  1.00  0.00    -0.121 C  
ENDROOT
BRANCH  17  23
HETATM   23  O   UNL     1      -8.854  18.644  68.234  1.00  0.00    -0.307 OA 
BRANCH  23  24
HETATM   24  C   UNL     1      -9.786  19.486  67.742  1.00  0.00    -0.354 C  
HETATM   25  O   UNL     1      -9.709  20.709  67.759  1.00  0.00    -0.355 OA 
HETATM   26  C   UNL     1     -10.933  18.696  67.188  1.00  0.00    -0.189 C  
ENDBRANCH  23  24
ENDBRANCH  17  23
BRANCH  17  27
HETATM   27  C   UNL     1      -6.774  19.862  68.749  1.00  0.00    -0.323 C  
HETATM   28  C   UNL     1      -5.845  20.873  68.091  1.00  0.00    -0.384 C  
HETATM   29  O   UNL     1      -6.980  19.945  69.966  1.00  0.00    -0.249 OA 
ENDBRANCH  17  27
TORSDOF 3
ENDMDL
MODEL       11
REMARK 921   NORMALIZED FREE ENERGY PREDICTED BY IDOCK:   -5.88 KCAL/MOL
REMARK 922        TOTAL FREE ENERGY PREDICTED BY IDOCK:   -7.39 KCAL/MOL
REMARK 923 INTER-LIGAND FREE ENERGY PREDICTED BY IDOCK:   -6.52 KCAL/MOL
REMARK 924 INTRA-LIGAND FREE ENERGY PREDICTED BY IDOCK:   -0.88 KCAL/MOL
REMARK 927      BINDING AFFINITY PREDICTED BY RF-SCORE:    0.00 PKD
ROOT
HETATM    1  C   UNL     1     -10.567  15.557  66.985  1.00  0.00    -0.311 C  
HETATM    2  C   UNL     1     -11.056  15.644  68.323  1.00  0.00    -0.336 C  
HETATM    3  C   UNL     1     -11.172  14.164  67.959  1.00  0.00    -0.302 C  
HETATM    4  C   UNL     1     -10.872  12.889  66.923  1.00  0.00    -0.278 C  
HETATM    5  C   UNL     1     -12.282  12.610  66.321  1.00  0.00    -0.225 C  
HETATM    6  C   UNL     1      -9.633  13.407  66.166  1.00  0.00    -0.216 C  
HETATM    7  C   UNL     1      -9.914  14.182  65.095  1.00  0.00    -0.263 C  
HETATM    8  C   UNL     1      -8.524  13.511  67.217  1.00  0.00    -0.193 C  
HETATM    9 CL   UNL     1      -7.315  14.744  67.108  1.00  0.00    -0.134 Cl 
HETATM   10  C   UNL     1      -8.523  12.729  68.330  1.00  0.00    -0.115 C  
HETATM   11  C   UNL     1     -10.880  15.257  65.587  1.00  0.00    -0.363 C  
HETATM   12  C   UNL     1      -9.402  11.484  68.485  1.00  0.00    -0.171 C  
HETATM   13  O   UNL     1     -11.778  15.764  64.938  1.00  0.00    -0.144 OA 
HETATM   14  C   UNL     1      -8.467  10.243  68.680  1.00  0.00    -0.127 C  
HETATM   15  C   UNL     1      -8.214  10.077  70.198  1.00  0.00    -0.083 C  
HETATM   16  C   UNL     1      -8.711   8.697  70.573  1.00  0.00    -0.178 C  
HETATM   17  C   UNL     1      -9.687   8.279  69.457  1.00  0.00    -0.174 C  
HETATM   18  C   UNL     1     -10.221  11.446  67.223  1.00  0.00    -0.229 C  
HETATM   19  C   UNL     1      -9.838   8.955  66.905  1.00  0.00    -0.288 C  
HETATM   20  C   UNL     1      -8.964   8.830  68.188  1.00  0.00    -0.141 C  
HETATM   21  C   UNL     1     -10.876  10.105  66.854  1.00  0.00    -0.176 C  
HETATM   22  C   UNL     1      -7.741   7.938  67.798  1.00  0.00    -0.121 C  
ENDROOT
BRANCH  17  23
HETATM   23  O   UNL     1     -10.898   9.065  69.468  1.00  0.00    -0.229 OA 
BRANCH  23  24
HETATM   24  C   UNL     1     -11.639   9.204  70.586  1.00  0.00    -0.235 C  
HETATM   25  O   UNL     1     -11.996   8.284  71.313  1.00  0.00    -0.285 OA 
HETATM   26  C   UNL     1     -11.969  10.652  70.791  1.00  0.00    -0.477 C  
ENDBRANCH  23  24
ENDBRANCH  17  23
BRANCH  17  27
HETATM   27  C   UNL     1     -10.008   6.767  69.459  1.00  0.00    -0.162 C  
HETATM   28  C   UNL     1     -11.014   6.207  68.462  1.00  0.00    -0.404 C  
HETATM   29  O   UNL     1      -9.449   5.989  70.242  1.00  0.00    -0.159 OA 
ENDBRANCH  17  27
TORSDOF 3
ENDMDL
MODEL       12
REMARK 921   NORMALIZED FREE ENERGY PREDICTED BY IDOCK:   -5.85 KCAL/MOL
REMARK 922        TOTAL FREE ENERGY PREDICTED BY IDOCK:   -7.36 KCAL/MOL
REMARK 923 INTER-LIGAND FREE ENERGY PREDICTED BY IDOCK:   -6.51 KCAL/MOL
REMARK 924 INTRA-LIGAND FREE ENERGY PREDICTED BY IDOCK:   -0.85 KCAL/MOL
REMARK 927      BINDING AFFINITY PREDICTED BY RF-SCORE:    0.00 PKD
ROOT
HETATM    1  C   UNL     1      -9.316   7.866  70.989  1.00  0.00    -0.167 C  
HETATM    2  C   UNL     1      -8.478   8.821  71.642  1.00  0.00    -0.209 C  
HETATM    3  C   UNL     1      -8.677   9.374  70.231  1.00  0.00    -0.261 C  
HETATM    4  C   UNL     1      -9.423   9.328  68.737  1.00  0.00    -0.150 C  
HETATM    5  C   UNL     1      -8.281   8.812  67.811  1.00  0.00    -0.111 C  
HETATM    6  C   UNL     1     -10.732   8.592  69.083  1.00  0.00    -0.136 C  
HETATM    7  C   UNL     1     -10.643   7.244  69.055  1.00  0.00    -0.214 C  
HETATM    8  C   UNL     1     -11.491   9.529  70.029  1.00  0.00    -0.109 C  
HETATM    9 CL   UNL     1     -12.497   8.891  71.285  1.00  0.00    -0.336 Cl 
HETATM   10  C   UNL     1     -11.305  10.876  69.998  1.00  0.00    -0.386 C  
HETATM   11  C   UNL     1      -9.437   6.879  69.917  1.00  0.00    -0.156 C  
HETATM   12  C   UNL     1     -10.603  11.601  68.846  1.00  0.00    -0.224 C  
HETATM   13  O   UNL     1      -8.684   5.938  69.732  1.00  0.00    -0.126 OA 
HETATM   14  C   UNL     1     -11.617  12.611  68.210  1.00  0.00    -0.377 C  
HETATM   15  C   UNL     1     -11.474  13.958  68.958  1.00  0.00    -0.341 C  
HETATM   16  C   UNL     1     -11.097  14.993  67.919  1.00  0.00    -0.310 C  
HETATM   17  C   UNL     1     -10.527  14.207  66.723  1.00  0.00    -0.277 C  
HETATM   18  C   UNL     1     -10.168  10.499  67.920  1.00  0.00    -0.213 C  
HETATM   19  C   UNL     1     -10.973  11.748  65.859  1.00  0.00    -0.354 C  
HETATM   20  C   UNL     1     -11.478  12.970  66.682  1.00  0.00    -0.382 C  
HETATM   21  C   UNL     1      -9.834  10.893  66.471  1.00  0.00    -0.245 C  
HETATM   22  C   UNL     1     -12.875  13.347  66.090  1.00  0.00     0.051 C  
ENDROOT
BRANCH  17  23
HETATM   23  O   UNL     1      -9.258  13.589  67.030  1.00  0.00    -0.229 OA 
BRANCH  23  24
HETATM   24  C   UNL     1      -8.202  14.317  67.449  1.00  0.00    -0.202 C  
HETATM   25  O   UNL     1      -7.797  15.342  66.913  1.00  0.00    -0.209 OA 
HETATM   26  C   UNL     1      -7.595  13.669  68.656  1.00  0.00    -0.115 C  
ENDBRANCH  23  24
ENDBRANCH  17  23
BRANCH  17  27
HETATM   27  C   UNL     1     -10.436  15.044  65.427  1.00  0.00    -0.384 C  
HETATM   28  C   UNL     1     -10.694  16.544  65.477  1.00  0.00    -0.267 C  
HETATM   29  O   UNL     1     -10.134  14.527  64.344  1.00  0.00    -0.067 OA 
ENDBRANCH  17  27
TORSDOF 3
ENDMDL
MODEL       13
REMARK 921   NORMALIZED FREE ENERGY PREDICTED BY IDOCK:   -5.85 KCAL/MOL
REMARK 922        TOTAL FREE ENERGY PREDICTED BY IDOCK:   -7.36 KCAL/MOL
REMARK 923 INTER-LIGAND FREE ENERGY PREDICTED BY IDOCK:   -6.66 KCAL/MOL
REMARK 924 INTRA-LIGAND FREE ENERGY PREDICTED BY IDOCK:   -0.69 KCAL/MOL
REMARK 927      BINDING AFFINITY PREDICTED BY RF-SCORE:    0.00 PKD
ROOT
HETATM    1  C   UNL     1      -9.763  16.556  67.885  1.00  0.00    -0.236 C  
HETATM    2  C   UNL     1     -10.163  16.370  69.242  1.00  0.00    -0.278 C  
HETATM    3  C   UNL     1     -10.520  15.057  68.545  1.00  0.00    -0.232 C  
HETATM    4  C   UNL     1     -10.470  14.052  67.211  1.00  0.00    -0.268 C  
HETATM    5  C   UNL     1     -11.935  14.124  66.686  1.00  0.00    -0.470 C  
HETATM    6  C   UNL     1      -9.208  14.574  66.496  1.00  0.00    -0.282 C  
HETATM    7  C   UNL     1      -9.423  15.622  65.671  1.00  0.00    -0.272 C  
HETATM    8  C   UNL     1      -8.043  14.262  67.441  1.00  0.00    -0.196 C  
HETATM    9 CL   UNL     1      -6.669  15.311  67.526  1.00  0.00    -0.201 Cl 
HETATM   10  C   UNL     1      -8.102  13.233  68.330  1.00  0.00    -0.156 C  
HETATM   11  C   UNL     1     -10.189  16.659  66.489  1.00  0.00    -0.310 C  
HETATM   12  C   UNL     1      -9.151  12.119  68.257  1.00  0.00    -0.191 C  
HETATM   13  O   UNL     1     -11.033  17.427  66.060  1.00  0.00    -0.052 OA 
HETATM   14  C   UNL     1      -8.405  10.755  68.067  1.00  0.00    -0.120 C  
HETATM   15  C   UNL     1      -8.102  10.183  69.473  1.00  0.00    -0.176 C  
HETATM   16  C   UNL     1      -8.781   8.832  69.548  1.00  0.00    -0.138 C  
HETATM   17  C   UNL     1      -9.865   8.840  68.453  1.00  0.00    -0.171 C  
HETATM   18  C   UNL     1     -10.029  12.507  67.099  1.00  0.00    -0.217 C  
HETATM   19  C   UNL     1     -10.044  10.146  66.161  1.00  0.00    -0.314 C  
HETATM   20  C   UNL     1      -9.134   9.589  67.296  1.00  0.00    -0.146 C  
HETATM   21  C   UNL     1     -10.898  11.401  66.478  1.00  0.00    -0.334 C  
HETATM   22  C   UNL     1      -8.082   8.668  66.598  1.00  0.00    -0.100 C  
ENDROOT
BRANCH  17  23
HETATM   23  O   UNL     1     -10.942   9.753  68.758  1.00  0.00    -0.213 OA 
BRANCH  23  24
HETATM   24  C   UNL     1     -11.532   9.769  69.970  1.00  0.00    -0.180 C  
HETATM   25  O   UNL     1     -11.743   8.781  70.664  1.00  0.00    -0.260 OA 
HETATM   26  C   UNL     1     -11.903  11.177  70.328  1.00  0.00    -0.455 C  
ENDBRANCH  23  24
ENDBRANCH  17  23
BRANCH  17  27
HETATM   27  C   UNL     1     -10.411   7.432  68.121  1.00  0.00    -0.192 C  
HETATM   28  C   UNL     1     -10.117   6.268  69.058  1.00  0.00    -0.206 C  
HETATM   29  O   UNL     1     -11.105   7.229  67.117  1.00  0.00    -0.295 OA 
ENDBRANCH  17  27
TORSDOF 3
ENDMDL
MODEL       14
REMARK 921   NORMALIZED FREE ENERGY PREDICTED BY IDOCK:   -5.84 KCAL/MOL
REMARK 922        TOTAL FREE ENERGY PREDICTED BY IDOCK:   -7.35 KCAL/MOL
REMARK 923 INTER-LIGAND FREE ENERGY PREDICTED BY IDOCK:   -6.46 KCAL/MOL
REMARK 924 INTRA-LIGAND FREE ENERGY PREDICTED BY IDOCK:   -0.89 KCAL/MOL
REMARK 927      BINDING AFFINITY PREDICTED BY RF-SCORE:    0.00 PKD
ROOT
HETATM    1  C   UNL     1      -7.192   7.905  69.237  1.00  0.00    -0.080 C  
HETATM    2  C   UNL     1      -6.696   7.838  67.900  1.00  0.00    -0.067 C  
HETATM    3  C   UNL     1      -8.040   8.555  67.784  1.00  0.00    -0.115 C  
HETATM    4  C   UNL     1      -9.371   9.283  68.483  1.00  0.00    -0.143 C  
HETATM    5  C   UNL     1     -10.497   8.238  68.222  1.00  0.00    -0.211 C  
HETATM    6  C   UNL     1      -8.797   9.696  69.852  1.00  0.00    -0.240 C  
HETATM    7  C   UNL     1      -8.854   8.734  70.799  1.00  0.00    -0.228 C  
HETATM    8  C   UNL     1      -7.719  10.741  69.546  1.00  0.00    -0.066 C  
HETATM    9 CL   UNL     1      -6.305  10.868  70.536  1.00  0.00    -0.090 Cl 
HETATM   10  C   UNL     1      -7.770  11.510  68.425  1.00  0.00    -0.129 C  
HETATM   11  C   UNL     1      -8.233   7.486  70.176  1.00  0.00    -0.132 C  
HETATM   12  C   UNL     1      -9.025  11.649  67.558  1.00  0.00    -0.165 C  
HETATM   13  O   UNL     1      -8.563   6.334  70.400  1.00  0.00    -0.138 OA 
HETATM   14  C   UNL     1      -9.453  13.155  67.550  1.00  0.00    -0.212 C  
HETATM   15  C   UNL     1      -8.732  13.844  66.366  1.00  0.00     0.197 C  
HETATM   16  C   UNL     1      -9.812  14.410  65.470  1.00  0.00    -0.299 C  
HETATM   17  C   UNL     1     -11.100  13.640  65.818  1.00  0.00    -0.287 C  
HETATM   18  C   UNL     1     -10.026  10.727  68.198  1.00  0.00    -0.176 C  
HETATM   19  C   UNL     1     -11.891  12.446  68.040  1.00  0.00    -0.376 C  
HETATM   20  C   UNL     1     -10.977  13.513  67.368  1.00  0.00    -0.286 C  
HETATM   21  C   UNL     1     -11.508  10.955  67.854  1.00  0.00    -0.344 C  
HETATM   22  C   UNL     1     -11.298  14.868  68.078  1.00  0.00    -0.337 C  
ENDROOT
BRANCH  17  23
HETATM   23  O   UNL     1     -11.038  12.258  65.406  1.00  0.00    -0.293 OA 
BRANCH  23  24
HETATM   24  C   UNL     1     -10.882  11.914  64.111  1.00  0.00    -0.356 C  
HETATM   25  O   UNL     1     -11.571  12.328  63.185  1.00  0.00    -0.364 OA 
HETATM   26  C   UNL     1      -9.751  10.939  63.984  1.00  0.00    -0.351 C  
ENDBRANCH  23  24
ENDBRANCH  17  23
BRANCH  17  27
HETATM   27  C   UNL     1     -12.383  14.320  65.286  1.00  0.00    -0.424 C  
HETATM   28  C   UNL     1     -12.274  15.585  64.446  1.00  0.00    -0.087 C  
HETATM   29  O   UNL     1     -13.504  13.846  65.508  1.00  0.00    -0.657 OA 
ENDBRANCH  17  27
TORSDOF 3
ENDMDL
MODEL       15
REMARK 921   NORMALIZED FREE ENERGY PREDICTED BY IDOCK:   -5.77 KCAL/MOL
REMARK 922        TOTAL FREE ENERGY PREDICTED BY IDOCK:   -7.27 KCAL/MOL
REMARK 923 INTER-LIGAND FREE ENERGY PREDICTED BY IDOCK:   -6.34 KCAL/MOL
REMARK 924 INTRA-LIGAND FREE ENERGY PREDICTED BY IDOCK:   -0.93 KCAL/MOL
REMARK 927      BINDING AFFINITY PREDICTED BY RF-SCORE:    0.00 PKD
ROOT
HETATM    1  C   UNL     1      -8.346   7.017  65.414  1.00  0.00    -0.121 C  
HETATM    2  C   UNL     1      -9.608   6.702  66.003  1.00  0.00     0.072 C  
HETATM    3  C   UNL     1      -9.183   8.012  66.666  1.00  0.00    -0.225 C  
HETATM    4  C   UNL     1      -8.156   9.325  66.778  1.00  0.00    -0.112 C  
HETATM    5  C   UNL     1      -7.360   9.014  68.080  1.00  0.00    -0.083 C  
HETATM    6  C   UNL     1      -7.592   9.382  65.344  1.00  0.00    -0.100 C  
HETATM    7  C   UNL     1      -6.519   8.589  65.131  1.00  0.00    -0.063 C  
HETATM    8  C   UNL     1      -8.788   9.717  64.447  1.00  0.00    -0.230 C  
HETATM    9 CL   UNL     1      -8.885   9.093  62.835  1.00  0.00    -0.186 Cl 
HETATM   10  C   UNL     1      -9.865  10.400  64.920  1.00  0.00    -0.400 C  
HETATM   11  C   UNL     1      -6.910   7.200  65.627  1.00  0.00    -0.052 C  
HETATM   12  C   UNL     1      -9.857  11.167  66.246  1.00  0.00    -0.253 C  
HETATM   13  O   UNL     1      -6.161   6.386  66.139  1.00  0.00    -0.031 OA 
HETATM   14  C   UNL     1     -10.138  12.678  65.941  1.00  0.00    -0.276 C  
HETATM   15  C   UNL     1     -11.670  12.892  65.990  1.00  0.00    -0.456 C  
HETATM   16  C   UNL     1     -11.929  13.935  67.056  1.00  0.00    -0.459 C  
HETATM   17  C   UNL     1     -10.677  13.944  67.954  1.00  0.00    -0.240 C  
HETATM   18  C   UNL     1      -8.496  10.899  66.825  1.00  0.00    -0.139 C  
HETATM   19  C   UNL     1      -8.152  13.335  67.461  1.00  0.00    -0.187 C  
HETATM   20  C   UNL     1      -9.538  13.774  66.901  1.00  0.00    -0.263 C  
HETATM   21  C   UNL     1      -7.997  11.861  67.917  1.00  0.00    -0.144 C  
HETATM   22  C   UNL     1      -9.288  15.099  66.113  1.00  0.00    -0.346 C  
ENDROOT
BRANCH  17  23
HETATM   23  O   UNL     1     -10.548  12.729  68.724  1.00  0.00    -0.240 OA 
BRANCH  23  24
HETATM   24  C   UNL     1     -11.543  12.291  69.522  1.00  0.00    -0.298 C  
HETATM   25  O   UNL     1     -12.062  12.941  70.422  1.00  0.00    -0.361 OA 
HETATM   26  C   UNL     1     -11.902  10.884  69.149  1.00  0.00    -0.389 C  
ENDBRANCH  23  24
ENDBRANCH  17  23
BRANCH  17  27
HETATM   27  C   UNL     1     -10.586  15.189  68.865  1.00  0.00    -0.242 C  
HETATM   28  C   UNL     1     -11.731  16.194  68.888  1.00  0.00    -0.250 C  
HETATM   29  O   UNL     1      -9.610  15.382  69.600  1.00  0.00    -0.262 OA 
ENDBRANCH  17  27
TORSDOF 3
ENDMDL
MODEL       16
REMARK 921   NORMALIZED FREE ENERGY PREDICTED BY IDOCK:   -5.67 KCAL/MOL
REMARK 922        TOTAL FREE ENERGY PREDICTED BY IDOCK:   -7.14 KCAL/MOL
REMARK 923 INTER-LIGAND FREE ENERGY PREDICTED BY IDOCK:   -6.26 KCAL/MOL
REMARK 924 INTRA-LIGAND FREE ENERGY PREDICTED BY IDOCK:   -0.89 KCAL/MOL
REMARK 927      BINDING AFFINITY PREDICTED BY RF-SCORE:    0.00 PKD
ROOT
HETATM    1  C   UNL     1      -9.524   8.640  66.626  1.00  0.00    -0.267 C  
HETATM    2  C   UNL     1     -10.779   8.787  67.291  1.00  0.00    -0.217 C  
HETATM    3  C   UNL     1      -9.973  10.021  67.698  1.00  0.00    -0.214 C  
HETATM    4  C   UNL     1      -8.627  10.999  67.548  1.00  0.00    -0.128 C  
HETATM    5  C   UNL     1      -7.851  10.702  68.866  1.00  0.00    -0.129 C  
HETATM    6  C   UNL     1      -8.172  10.659  66.115  1.00  0.00    -0.156 C  
HETATM    7  C   UNL     1      -7.368   9.577  66.022  1.00  0.00    -0.097 C  
HETATM    8  C   UNL     1      -9.296  11.157  65.200  1.00  0.00    -0.213 C  
HETATM    9 CL   UNL     1      -9.671  10.325  63.729  1.00  0.00    -0.351 Cl 
HETATM   10  C   UNL     1     -10.114  12.179  65.568  1.00  0.00    -0.275 C  
HETATM   11  C   UNL     1      -8.080   8.452  66.769  1.00  0.00    -0.098 C  
HETATM   12  C   UNL     1      -9.807  13.124  66.733  1.00  0.00    -0.251 C  
HETATM   13  O   UNL     1      -7.541   7.560  67.402  1.00  0.00    -0.103 OA 
HETATM   14  C   UNL     1      -9.694  14.581  66.168  1.00  0.00    -0.340 C  
HETATM   15  C   UNL     1     -11.105  15.214  66.213  1.00  0.00    -0.309 C  
HETATM   16  C   UNL     1     -10.999  16.450  67.081  1.00  0.00    -0.082 C  
HETATM   17  C   UNL     1      -9.730  16.263  67.933  1.00  0.00    -0.233 C  
HETATM   18  C   UNL     1      -8.529  12.591  67.320  1.00  0.00    -0.185 C  
HETATM   19  C   UNL     1      -7.502  14.908  67.500  1.00  0.00    -0.224 C  
HETATM   20  C   UNL     1      -8.756  15.612  66.902  1.00  0.00    -0.283 C  
HETATM   21  C   UNL     1      -7.714  13.546  68.209  1.00  0.00    -0.137 C  
HETATM   22  C   UNL     1      -8.218  16.667  65.883  1.00  0.00     0.076 C  
ENDROOT
BRANCH  17  23
HETATM   23  O   UNL     1      -9.876  15.206  68.905  1.00  0.00    -0.212 OA 
BRANCH  23  24
HETATM   24  C   UNL     1     -10.897  15.194  69.787  1.00  0.00    -0.284 C  
HETATM   25  O   UNL     1     -11.142  16.084  70.593  1.00  0.00    -0.348 OA 
HETATM   26  C   UNL     1     -11.672  13.919  69.638  1.00  0.00    -0.370 C  
ENDBRANCH  23  24
ENDBRANCH  17  23
BRANCH  17  27
HETATM   27  C   UNL     1      -9.244  17.569  68.604  1.00  0.00    -0.267 C  
HETATM   28  C   UNL     1     -10.123  18.812  68.562  1.00  0.00    -0.444 C  
HETATM   29  O   UNL     1      -8.161  17.625  69.199  1.00  0.00    -0.117 OA 
ENDBRANCH  17  27
TORSDOF 3
ENDMDL
MODEL       17
REMARK 921   NORMALIZED FREE ENERGY PREDICTED BY IDOCK:   -5.60 KCAL/MOL
REMARK 922        TOTAL FREE ENERGY PREDICTED BY IDOCK:   -7.06 KCAL/MOL
REMARK 923 INTER-LIGAND FREE ENERGY PREDICTED BY IDOCK:   -6.20 KCAL/MOL
REMARK 924 INTRA-LIGAND FREE ENERGY PREDICTED BY IDOCK:   -0.86 KCAL/MOL
REMARK 927      BINDING AFFINITY PREDICTED BY RF-SCORE:    0.00 PKD
ROOT
HETATM    1  C   UNL     1      -9.842  18.388  67.952  1.00  0.00    -0.348 C  
HETATM    2  C   UNL     1     -10.785  18.244  66.889  1.00  0.00    -0.272 C  
HETATM    3  C   UNL     1      -9.926  16.982  66.824  1.00  0.00    -0.297 C  
HETATM    4  C   UNL     1      -8.751  15.982  67.464  1.00  0.00    -0.193 C  
HETATM    5  C   UNL     1      -7.550  16.219  66.499  1.00  0.00    -0.218 C  
HETATM    6  C   UNL     1      -8.822  16.360  68.956  1.00  0.00    -0.240 C  
HETATM    7  C   UNL     1      -8.069  17.428  69.302  1.00  0.00     0.154 C  
HETATM    8  C   UNL     1     -10.211  15.916  69.426  1.00  0.00    -0.262 C  
HETATM    9 CL   UNL     1     -11.056  16.804  70.648  1.00  0.00     0.020 Cl 
HETATM   10  C   UNL     1     -10.878  14.899  68.817  1.00  0.00    -0.254 C  
HETATM   11  C   UNL     1      -8.436  18.542  68.324  1.00  0.00    -0.318 C  
HETATM   12  C   UNL     1     -10.208  13.910  67.859  1.00  0.00    -0.241 C  
HETATM   13  O   UNL     1      -7.681  19.401  67.902  1.00  0.00    -0.269 OA 
HETATM   14  C   UNL     1     -10.347  12.471  68.462  1.00  0.00    -0.233 C  
HETATM   15  C   UNL     1     -11.670  11.865  67.935  1.00  0.00    -0.368 C  
HETATM   16  C   UNL     1     -11.302  10.599  67.191  1.00  0.00    -0.046 C  
HETATM   17  C   UNL     1      -9.808  10.731  66.840  1.00  0.00    -0.187 C  
HETATM   18  C   UNL     1      -8.789  14.397  67.750  1.00  0.00    -0.186 C  
HETATM   19  C   UNL     1      -7.836  12.055  68.001  1.00  0.00    -0.145 C  
HETATM   20  C   UNL     1      -9.242  11.396  68.133  1.00  0.00    -0.178 C  
HETATM   21  C   UNL     1      -7.742  13.396  67.231  1.00  0.00    -0.092 C  
HETATM   22  C   UNL     1      -9.132  10.365  69.302  1.00  0.00    -0.188 C  
ENDROOT
BRANCH  17  23
HETATM   23  O   UNL     1      -9.568  11.759  65.853  1.00  0.00    -0.224 OA 
BRANCH  23  24
HETATM   24  C   UNL     1     -10.344  11.878  64.756  1.00  0.00    -0.281 C  
HETATM   25  O   UNL     1     -10.628  10.963  63.992  1.00  0.00    -0.372 OA 
HETATM   26  C   UNL     1     -10.787  13.302  64.609  1.00  0.00    -0.396 C  
ENDBRANCH  23  24
ENDBRANCH  17  23
BRANCH  17  27
HETATM   27  C   UNL     1      -9.157   9.394  66.416  1.00  0.00    -0.161 C  
HETATM   28  C   UNL     1      -9.941   8.096  66.553  1.00  0.00    -0.302 C  
HETATM   29  O   UNL     1      -8.015   9.354  65.943  1.00  0.00    -0.104 OA 
ENDBRANCH  17  27
TORSDOF 3
ENDMDL
MODEL       18
REMARK 921   NORMALIZED FREE ENERGY PREDICTED BY IDOCK:   -5.59 KCAL/MOL
REMARK 922        TOTAL FREE ENERGY PREDICTED BY IDOCK:   -7.05 KCAL/MOL
REMARK 923 INTER-LIGAND FREE ENERGY PREDICTED BY IDOCK:   -6.23 KCAL/MOL
REMARK 924 INTRA-LIGAND FREE ENERGY PREDICTED BY IDOCK:   -0.82 KCAL/MOL
REMARK 927      BINDING AFFINITY PREDICTED BY RF-SCORE:    0.00 PKD
ROOT
HETATM    1  C   UNL     1      -9.168   5.850  72.108  1.00  0.00    -0.151 C  
HETATM    2  C   UNL     1      -8.562   5.351  70.915  1.00  0.00    -0.129 C  
HETATM    3  C   UNL     1      -9.536   6.428  70.438  1.00  0.00    -0.172 C  
HETATM    4  C   UNL     1     -10.598   7.678  70.753  1.00  0.00    -0.224 C  
HETATM    5  C   UNL     1     -11.979   7.028  70.440  1.00  0.00    -0.256 C  
HETATM    6  C   UNL     1     -10.095   8.153  72.130  1.00  0.00    -0.320 C  
HETATM    7  C   UNL     1     -10.612   7.479  73.181  1.00  0.00    -0.442 C  
HETATM    8  C   UNL     1      -8.685   8.702  71.884  1.00  0.00    -0.185 C  
HETATM    9 CL   UNL     1      -7.458   8.561  73.097  1.00  0.00    -0.092 Cl 
HETATM   10  C   UNL     1      -8.315   9.197  70.673  1.00  0.00    -0.239 C  
HETATM   11  C   UNL     1     -10.401   5.997  72.881  1.00  0.00    -0.197 C  
HETATM   12  C   UNL     1      -9.316   9.556  69.570  1.00  0.00    -0.199 C  
HETATM   13  O   UNL     1     -11.146   5.088  73.207  1.00  0.00    -0.289 OA 
HETATM   14  C   UNL     1      -9.174  11.084  69.256  1.00  0.00     0.063 C  
HETATM   15  C   UNL     1      -8.110  11.241  68.144  1.00  0.00    -0.134 C  
HETATM   16  C   UNL     1      -8.793  11.931  66.983  1.00  0.00    -0.190 C  
HETATM   17  C   UNL     1     -10.304  11.713  67.189  1.00  0.00    -0.217 C  
HETATM   18  C   UNL     1     -10.653   9.165  70.137  1.00  0.00    -0.258 C  
HETATM   19  C   UNL     1     -11.746  11.327  69.371  1.00  0.00    -0.409 C  
HETATM   20  C   UNL     1     -10.434  11.875  68.735  1.00  0.00    -0.207 C  
HETATM   21  C   UNL     1     -11.899   9.788  69.485  1.00  0.00     0.204 C  
HETATM   22  C   UNL     1     -10.339  13.376  69.161  1.00  0.00     0.099 C  
ENDROOT
BRANCH  17  23
HETATM   23  O   UNL     1     -10.687  10.333  67.006  1.00  0.00    -0.253 OA 
BRANCH  23  24
HETATM   24  C   UNL     1     -10.203   9.596  65.985  1.00  0.00    -0.185 C  
HETATM   25  O   UNL     1     -10.082   9.987  64.830  1.00  0.00    -0.316 OA 
HETATM   26  C   UNL     1      -9.854   8.224  66.479  1.00  0.00    -0.323 C  
ENDBRANCH  23  24
ENDBRANCH  17  23
BRANCH  17  27
HETATM   27  C   UNL     1     -11.181  12.649  66.326  1.00  0.00    -0.311 C  
HETATM   28  C   UNL     1     -10.526  13.742  65.492  1.00  0.00    -0.327 C  
HETATM   29  O   UNL     1     -12.411  12.519  66.277  1.00  0.00    -0.570 OA 
ENDBRANCH  17  27
TORSDOF 3
ENDMDL
MODEL       19
REMARK 921   NORMALIZED FREE ENERGY PREDICTED BY IDOCK:   -5.58 KCAL/MOL
REMARK 922        TOTAL FREE ENERGY PREDICTED BY IDOCK:   -7.04 KCAL/MOL
REMARK 923 INTER-LIGAND FREE ENERGY PREDICTED BY IDOCK:   -6.10 KCAL/MOL
REMARK 924 INTRA-LIGAND FREE ENERGY PREDICTED BY IDOCK:   -0.95 KCAL/MOL
REMARK 927      BINDING AFFINITY PREDICTED BY RF-SCORE:    0.00 PKD
ROOT
HETATM    1  C   UNL     1     -10.650  15.689  66.611  1.00  0.00    -0.307 C  
HETATM    2  C   UNL     1      -9.475  15.747  65.802  1.00  0.00    -0.334 C  
HETATM    3  C   UNL     1      -9.292  14.503  66.672  1.00  0.00    -0.301 C  
HETATM    4  C   UNL     1      -9.882  13.389  67.769  1.00  0.00    -0.234 C  
HETATM    5  C   UNL     1      -9.122  13.774  69.074  1.00  0.00     0.267 C  
HETATM    6  C   UNL     1     -11.398  13.502  67.518  1.00  0.00    -0.335 C  
HETATM    7  C   UNL     1     -12.012  14.483  68.217  1.00  0.00    -0.303 C  
HETATM    8  C   UNL     1     -11.615  13.003  66.086  1.00  0.00    -0.366 C  
HETATM    9 CL   UNL     1     -12.865  13.676  65.095  1.00  0.00    -0.438 Cl 
HETATM   10  C   UNL     1     -10.762  12.118  65.503  1.00  0.00    -0.321 C  
HETATM   11  C   UNL     1     -11.208  15.755  67.961  1.00  0.00    -0.338 C  
HETATM   12  C   UNL     1      -9.732  11.301  66.290  1.00  0.00    -0.246 C  
HETATM   13  O   UNL     1     -11.036  16.664  68.755  1.00  0.00    -0.328 OA 
HETATM   14  C   UNL     1     -10.053   9.781  66.089  1.00  0.00    -0.315 C  
HETATM   15  C   UNL     1      -9.275   9.296  64.843  1.00  0.00    -0.206 C  
HETATM   16  C   UNL     1      -8.370   8.174  65.305  1.00  0.00    -0.160 C  
HETATM   17  C   UNL     1      -8.227   8.345  66.829  1.00  0.00    -0.102 C  
HETATM   18  C   UNL     1      -9.879  11.780  67.708  1.00  0.00    -0.186 C  
HETATM   19  C   UNL     1      -9.828   9.417  68.640  1.00  0.00    -0.174 C  
HETATM   20  C   UNL     1      -9.674   8.765  67.233  1.00  0.00    -0.238 C  
HETATM   21  C   UNL     1      -9.320  10.871  68.816  1.00  0.00    -0.190 C  
HETATM   22  C   UNL     1     -10.649   7.544  67.210  1.00  0.00    -0.394 C  
ENDROOT
BRANCH  17  23
HETATM   23  O   UNL     1      -7.471   9.525  67.178  1.00  0.00    -0.090 OA 
BRANCH  23  24
HETATM   24  C   UNL     1      -6.250   9.760  66.657  1.00  0.00    -0.064 C  
HETATM   25  O   UNL     1      -5.340   8.941  66.598  1.00  0.00    -0.037 OA 
HETATM   26  C   UNL     1      -6.173  11.178  66.179  1.00  0.00    -0.071 C  
ENDBRANCH  23  24
ENDBRANCH  17  23
BRANCH  17  27
HETATM   27  C   UNL     1      -7.655   7.093  67.535  1.00  0.00    -0.110 C  
HETATM   28  C   UNL     1      -7.334   5.847  66.720  1.00  0.00    -0.079 C  
HETATM   29  O   UNL     1      -7.430   7.084  68.751  1.00  0.00    -0.094 OA 
ENDBRANCH  17  27
TORSDOF 3
ENDMDL
MODEL       20
REMARK 921   NORMALIZED FREE ENERGY PREDICTED BY IDOCK:   -5.49 KCAL/MOL
REMARK 922        TOTAL FREE ENERGY PREDICTED BY IDOCK:   -6.93 KCAL/MOL
REMARK 923 INTER-LIGAND FREE ENERGY PREDICTED BY IDOCK:   -6.02 KCAL/MOL
REMARK 924 INTRA-LIGAND FREE ENERGY PREDICTED BY IDOCK:   -0.91 KCAL/MOL
REMARK 927      BINDING AFFINITY PREDICTED BY RF-SCORE:    0.00 PKD
ROOT
HETATM    1  C   UNL     1     -10.746  13.779  64.971  1.00  0.00    -0.391 C  
HETATM    2  C   UNL     1      -9.612  14.253  65.698  1.00  0.00    -0.139 C  
HETATM    3  C   UNL     1      -9.979  12.928  66.365  1.00  0.00    -0.267 C  
HETATM    4  C   UNL     1     -10.867  11.513  66.410  1.00  0.00    -0.334 C  
HETATM    5  C   UNL     1     -11.855  11.778  67.585  1.00  0.00    -0.241 C  
HETATM    6  C   UNL     1     -11.229  11.344  64.921  1.00  0.00    -0.180 C  
HETATM    7  C   UNL     1     -12.343  12.005  64.536  1.00  0.00    -0.300 C  
HETATM    8  C   UNL     1      -9.898  11.114  64.199  1.00  0.00    -0.291 C  
HETATM    9 CL   UNL     1      -9.658  11.688  62.584  1.00  0.00    -0.138 Cl 
HETATM   10  C   UNL     1      -8.826  10.571  64.837  1.00  0.00    -0.207 C  
HETATM   11  C   UNL     1     -12.170  13.446  65.010  1.00  0.00    -0.424 C  
HETATM   12  C   UNL     1      -8.926   9.854  66.187  1.00  0.00    -0.177 C  
HETATM   13  O   UNL     1     -13.061  14.189  65.383  1.00  0.00    -0.743 OA 
HETATM   14  C   UNL     1      -8.449   8.374  65.993  1.00  0.00    -0.142 C  
HETATM   15  C   UNL     1      -6.923   8.333  66.245  1.00  0.00    -0.066 C  
HETATM   16  C   UNL     1      -6.697   7.363  67.385  1.00  0.00    -0.069 C  
HETATM   17  C   UNL     1      -8.047   7.246  68.117  1.00  0.00    -0.124 C  
HETATM   18  C   UNL     1     -10.372   9.990  66.576  1.00  0.00    -0.268 C  
HETATM   19  C   UNL     1     -10.536   7.554  67.281  1.00  0.00    -0.394 C  
HETATM   20  C   UNL     1      -9.051   7.253  66.923  1.00  0.00    -0.162 C  
HETATM   21  C   UNL     1     -10.904   9.016  67.642  1.00  0.00    -0.133 C  
HETATM   22  C   UNL     1      -9.054   5.881  66.174  1.00  0.00    -0.160 C  
ENDROOT
BRANCH  17  23
HETATM   23  O   UNL     1      -8.403   8.465  68.805  1.00  0.00    -0.115 OA 
BRANCH  23  24
HETATM   24  C   UNL     1      -7.560   9.055  69.677  1.00  0.00    -0.077 C  
HETATM   25  O   UNL     1      -6.857   8.463  70.487  1.00  0.00    -0.036 OA 
HETATM   26  C   UNL     1      -7.631  10.544  69.513  1.00  0.00    -0.148 C  
ENDBRANCH  23  24
ENDBRANCH  17  23
BRANCH  17  27
HETATM   27  C   UNL     1      -8.124   6.031  69.070  1.00  0.00    -0.107 C  
HETATM   28  C   UNL     1      -6.961   5.050  69.138  1.00  0.00    -0.055 C  
HETATM   29  O   UNL     1      -9.105   5.844  69.801  1.00  0.00    -0.135 OA 
ENDBRANCH  17  27
TORSDOF 3
ENDMDL
MODEL       21
REMARK 921   NORMALIZED FREE ENERGY PREDICTED BY IDOCK:   -5.47 KCAL/MOL
REMARK 922        TOTAL FREE ENERGY PREDICTED BY IDOCK:   -6.91 KCAL/MOL
REMARK 923 INTER-LIGAND FREE ENERGY PREDICTED BY IDOCK:   -6.47 KCAL/MOL
REMARK 924 INTRA-LIGAND FREE ENERGY PREDICTED BY IDOCK:   -0.44 KCAL/MOL
REMARK 927      BINDING AFFINITY PREDICTED BY RF-SCORE:    0.00 PKD
ROOT
HETATM    1  C   UNL     1      -7.845   6.526  67.875  1.00  0.00    -0.108 C  
HETATM    2  C   UNL     1      -7.545   7.072  69.159  1.00  0.00    -0.100 C  
HETATM    3  C   UNL     1      -7.723   8.287  68.249  1.00  0.00    -0.106 C  
HETATM    4  C   UNL     1      -8.159   8.962  66.784  1.00  0.00    -0.111 C  
HETATM    5  C   UNL     1      -6.781   9.366  66.181  1.00  0.00    -0.077 C  
HETATM    6  C   UNL     1      -9.124   7.890  66.241  1.00  0.00    -0.224 C  
HETATM    7  C   UNL     1      -8.523   6.881  65.572  1.00  0.00    -0.122 C  
HETATM    8  C   UNL     1     -10.317   7.888  67.201  1.00  0.00    -0.328 C  
HETATM    9 CL   UNL     1     -11.181   6.425  67.534  1.00  0.00    -0.383 Cl 
HETATM   10  C   UNL     1     -10.657   8.993  67.918  1.00  0.00    -0.256 C  
HETATM   11  C   UNL     1      -7.415   6.364  66.486  1.00  0.00    -0.086 C  
HETATM   12  C   UNL     1     -10.119  10.393  67.608  1.00  0.00    -0.223 C  
HETATM   13  O   UNL     1      -6.341   5.914  66.125  1.00  0.00    -0.039 OA 
HETATM   14  C   UNL     1     -11.333  11.321  67.262  1.00  0.00    -0.329 C  
HETATM   15  C   UNL     1     -11.830  11.959  68.582  1.00  0.00    -0.365 C  
HETATM   16  C   UNL     1     -11.724  13.459  68.406  1.00  0.00    -0.390 C  
HETATM   17  C   UNL     1     -10.723  13.682  67.257  1.00  0.00    -0.279 C  
HETATM   18  C   UNL     1      -9.161  10.183  66.468  1.00  0.00    -0.182 C  
HETATM   19  C   UNL     1     -10.059  12.182  65.183  1.00  0.00    -0.288 C  
HETATM   20  C   UNL     1     -11.112  12.531  66.277  1.00  0.00    -0.336 C  
HETATM   21  C   UNL     1      -8.787  11.417  65.630  1.00  0.00    -0.080 C  
HETATM   22  C   UNL     1     -12.439  12.854  65.518  1.00  0.00    -0.462 C  
ENDROOT
BRANCH  17  23
HETATM   23  O   UNL     1      -9.377  13.310  67.625  1.00  0.00    -0.196 OA 
BRANCH  23  24
HETATM   24  C   UNL     1      -8.563  14.164  68.278  1.00  0.00    -0.175 C  
HETATM   25  O   UNL     1      -8.861  14.787  69.290  1.00  0.00    -0.135 OA 
HETATM   26  C   UNL     1      -7.247  14.246  67.564  1.00  0.00    -0.197 C  
ENDBRANCH  23  24
ENDBRANCH  17  23
BRANCH  17  27
HETATM   27  C   UNL     1     -10.763  15.116  66.680  1.00  0.00    -0.310 C  
HETATM   28  C   UNL     1     -10.186  15.389  65.297  1.00  0.00    -0.390 C  
HETATM   29  O   UNL     1     -11.275  16.050  67.307  1.00  0.00    -0.196 OA 
ENDBRANCH  17  27
TORSDOF 3
ENDMDL
MODEL       22
REMARK 921   NORMALIZED FREE ENERGY PREDICTED BY IDOCK:   -5.45 KCAL/MOL
REMARK 922        TOTAL FREE ENERGY PREDICTED BY IDOCK:   -6.88 KCAL/MOL
REMARK 923 INTER-LIGAND FREE ENERGY PREDICTED BY IDOCK:   -6.03 KCAL/MOL
REMARK 924 INTRA-LIGAND FREE ENERGY PREDICTED BY IDOCK:   -0.86 KCAL/MOL
REMARK 927      BINDING AFFINITY PREDICTED BY RF-SCORE:    0.00 PKD
ROOT
HETATM    1  C   UNL     1     -10.947   7.492  72.943  1.00  0.00    -0.434 C  
HETATM    2  C   UNL     1      -9.630   7.887  73.328  1.00  0.00    -0.351 C  
HETATM    3  C   UNL     1      -9.531   7.602  71.830  1.00  0.00    -0.178 C  
HETATM    4  C   UNL     1     -10.245   7.251  70.361  1.00  0.00    -0.200 C  
HETATM    5  C   UNL     1      -9.840   5.763  70.141  1.00  0.00    -0.240 C  
HETATM    6  C   UNL     1     -11.669   7.795  70.587  1.00  0.00    -0.191 C  
HETATM    7  C   UNL     1     -12.515   6.925  71.180  1.00  0.00    -0.398 C  
HETATM    8  C   UNL     1     -11.507   9.310  70.752  1.00  0.00    -0.292 C  
HETATM    9 CL   UNL     1     -12.560  10.202  71.798  1.00  0.00    -0.506 Cl 
HETATM   10  C   UNL     1     -10.465   9.981  70.192  1.00  0.00    -0.338 C  
HETATM   11  C   UNL     1     -11.799   6.419  72.430  1.00  0.00    -0.213 C  
HETATM   12  C   UNL     1      -9.566   9.381  69.106  1.00  0.00    -0.163 C  
HETATM   13  O   UNL     1     -11.898   5.303  72.910  1.00  0.00    -0.271 OA 
HETATM   14  C   UNL     1      -9.687  10.270  67.822  1.00  0.00    -0.178 C  
HETATM   15  C   UNL     1      -8.605  11.373  67.908  1.00  0.00    -0.140 C  
HETATM   16  C   UNL     1      -7.726  11.216  66.686  1.00  0.00    -0.155 C  
HETATM   17  C   UNL     1      -7.948   9.776  66.186  1.00  0.00    -0.110 C  
HETATM   18  C   UNL     1     -10.076   7.976  68.932  1.00  0.00    -0.209 C  
HETATM   19  C   UNL     1     -10.011   8.136  66.397  1.00  0.00    -0.238 C  
HETATM   20  C   UNL     1      -9.482   9.601  66.410  1.00  0.00    -0.244 C  
HETATM   21  C   UNL     1      -9.697   7.250  67.630  1.00  0.00    -0.173 C  
HETATM   22  C   UNL     1     -10.306  10.371  65.327  1.00  0.00    -0.267 C  
ENDROOT
BRANCH  17  23
HETATM   23  O   UNL     1      -7.406   8.793  67.095  1.00  0.00    -0.079 OA 
BRANCH  23  24
HETATM   24  C   UNL     1      -6.107   8.807  67.457  1.00  0.00    -0.051 C  
HETATM   25  O   UNL     1      -5.159   8.747  66.683  1.00  0.00    -0.033 OA 
HETATM   26  C   UNL     1      -6.004   8.889  68.951  1.00  0.00    -0.044 C  
ENDBRANCH  23  24
ENDBRANCH  17  23
BRANCH  17  27
HETATM   27  C   UNL     1      -7.434   9.541  64.747  1.00  0.00    -0.112 C  
HETATM   28  C   UNL     1      -7.543   8.157  64.122  1.00  0.00    -0.128 C  
HETATM   29  O   UNL     1      -6.953  10.462  64.075  1.00  0.00    -0.088 OA 
ENDBRANCH  17  27
TORSDOF 3
ENDMDL
MODEL       23
REMARK 921   NORMALIZED FREE ENERGY PREDICTED BY IDOCK:   -5.41 KCAL/MOL
REMARK 922        TOTAL FREE ENERGY PREDICTED BY IDOCK:   -6.84 KCAL/MOL
REMARK 923 INTER-LIGAND FREE ENERGY PREDICTED BY IDOCK:   -6.60 KCAL/MOL
REMARK 924 INTRA-LIGAND FREE ENERGY PREDICTED BY IDOCK:   -0.24 KCAL/MOL
REMARK 927      BINDING AFFINITY PREDICTED BY RF-SCORE:    0.00 PKD
ROOT
HETATM    1  C   UNL     1     -11.284  12.172  67.196  1.00  0.00    -0.372 C  
HETATM    2  C   UNL     1     -12.242  12.877  67.986  1.00  0.00    -0.020 C  
HETATM    3  C   UNL     1     -10.954  13.689  68.117  1.00  0.00    -0.273 C  
HETATM    4  C   UNL     1      -9.376  14.004  67.669  1.00  0.00    -0.203 C  
HETATM    5  C   UNL     1      -8.573  13.508  68.908  1.00  0.00     0.209 C  
HETATM    6  C   UNL     1      -9.345  13.401  66.250  1.00  0.00    -0.137 C  
HETATM    7  C   UNL     1      -9.070  12.079  66.207  1.00  0.00    -0.165 C  
HETATM    8  C   UNL     1     -10.314  14.253  65.422  1.00  0.00    -0.370 C  
HETATM    9 CL   UNL     1     -11.233  13.548  64.137  1.00  0.00    -0.378 Cl 
HETATM   10  C   UNL     1     -10.579  15.547  65.746  1.00  0.00    -0.370 C  
HETATM   11  C   UNL     1     -10.035  11.411  67.184  1.00  0.00    -0.192 C  
HETATM   12  C   UNL     1      -9.726  16.361  66.724  1.00  0.00    -0.263 C  
HETATM   13  O   UNL     1      -9.799  10.424  67.860  1.00  0.00    -0.151 OA 
HETATM   14  C   UNL     1      -9.138  17.593  65.956  1.00  0.00    -0.041 C  
HETATM   15  C   UNL     1     -10.147  18.758  66.089  1.00  0.00    -0.421 C  
HETATM   16  C   UNL     1      -9.410  19.897  66.760  1.00  0.00    -0.494 C  
HETATM   17  C   UNL     1      -8.197  19.261  67.465  1.00  0.00    -0.288 C  
HETATM   18  C   UNL     1      -8.689  15.388  67.215  1.00  0.00    -0.215 C  
HETATM   19  C   UNL     1      -6.806  17.073  66.948  1.00  0.00    -0.247 C  
HETATM   20  C   UNL     1      -7.755  18.190  66.420  1.00  0.00    -0.295 C  
HETATM   21  C   UNL     1      -7.423  15.980  67.857  1.00  0.00    -0.142 C  
HETATM   22  C   UNL     1      -7.021  18.848  65.207  1.00  0.00    -0.019 C  
ENDROOT
BRANCH  17  23
HETATM   23  O   UNL     1      -8.587  18.435  68.583  1.00  0.00    -0.326 OA 
BRANCH  23  24
HETATM   24  C   UNL     1      -9.693  18.704  69.308  1.00  0.00    -0.053 C  
HETATM   25  O   UNL     1     -10.054  19.824  69.651  1.00  0.00    -0.276 OA 
HETATM   26  C   UNL     1     -10.397  17.424  69.641  1.00  0.00     0.114 C  
ENDBRANCH  23  24
ENDBRANCH  17  23
BRANCH  17  27
HETATM   27  C   UNL     1      -7.124  20.292  67.886  1.00  0.00    -0.292 C  
HETATM   28  C   UNL     1      -6.182  19.973  69.040  1.00  0.00    -0.347 C  
HETATM   29  O   UNL     1      -6.994  21.368  67.290  1.00  0.00    -0.573 OA 
ENDBRANCH  17  27
TORSDOF 3
ENDMDL
MODEL       24
REMARK 921   NORMALIZED FREE ENERGY PREDICTED BY IDOCK:   -5.37 KCAL/MOL
REMARK 922        TOTAL FREE ENERGY PREDICTED BY IDOCK:   -6.80 KCAL/MOL
REMARK 923 INTER-LIGAND FREE ENERGY PREDICTED BY IDOCK:   -5.92 KCAL/MOL
REMARK 924 INTRA-LIGAND FREE ENERGY PREDICTED BY IDOCK:   -0.88 KCAL/MOL
REMARK 927      BINDING AFFINITY PREDICTED BY RF-SCORE:    0.00 PKD
ROOT
HETATM    1  C   UNL     1     -10.044  13.829  66.423  1.00  0.00    -0.297 C  
HETATM    2  C   UNL     1      -8.647  13.826  66.716  1.00  0.00    -0.058 C  
HETATM    3  C   UNL     1      -9.279  12.975  67.817  1.00  0.00    -0.200 C  
HETATM    4  C   UNL     1     -10.595  12.185  68.477  1.00  0.00    -0.252 C  
HETATM    5  C   UNL     1     -10.948  13.090  69.695  1.00  0.00     0.140 C  
HETATM    6  C   UNL     1     -11.459  11.951  67.222  1.00  0.00    -0.385 C  
HETATM    7  C   UNL     1     -12.269  12.983  66.897  1.00  0.00    -0.233 C  
HETATM    8  C   UNL     1     -10.650  10.993  66.341  1.00  0.00    -0.251 C  
HETATM    9 CL   UNL     1     -10.740  11.090  64.615  1.00  0.00    -0.367 Cl 
HETATM   10  C   UNL     1      -9.746  10.127  66.873  1.00  0.00    -0.233 C  
HETATM   11  C   UNL     1     -11.383  14.225  66.861  1.00  0.00    -0.343 C  
HETATM   12  C   UNL     1      -9.681   9.793  68.367  1.00  0.00    -0.162 C  
HETATM   13  O   UNL     1     -11.722  15.355  67.169  1.00  0.00    -0.157 OA 
HETATM   14  C   UNL     1      -9.936   8.257  68.538  1.00  0.00    -0.206 C  
HETATM   15  C   UNL     1      -8.566   7.540  68.463  1.00  0.00    -0.129 C  
HETATM   16  C   UNL     1      -8.394   6.796  69.770  1.00  0.00    -0.132 C  
HETATM   17  C   UNL     1      -9.355   7.465  70.770  1.00  0.00    -0.159 C  
HETATM   18  C   UNL     1     -10.734  10.666  68.992  1.00  0.00    -0.257 C  
HETATM   19  C   UNL     1     -11.630   8.768  70.424  1.00  0.00    -0.105 C  
HETATM   20  C   UNL     1     -10.600   7.739  69.870  1.00  0.00    -0.239 C  
HETATM   21  C   UNL     1     -11.235  10.266  70.390  1.00  0.00    -0.407 C  
HETATM   22  C   UNL     1     -11.402   6.426  69.593  1.00  0.00    -0.479 C  
ENDROOT
BRANCH  17  23
HETATM   23  O   UNL     1      -8.942   8.806  71.112  1.00  0.00    -0.182 OA 
BRANCH  23  24
HETATM   24  C   UNL     1      -7.734   9.054  71.658  1.00  0.00     0.076 C  
HETATM   25  O   UNL     1      -7.379   8.695  72.775  1.00  0.00    -0.316 OA 
HETATM   26  C   UNL     1      -6.903   9.848  70.696  1.00  0.00    -0.087 C  
ENDBRANCH  23  24
ENDBRANCH  17  23
BRANCH  17  27
HETATM   27  C   UNL     1      -9.602   6.621  72.042  1.00  0.00    -0.148 C  
HETATM   28  C   UNL     1      -8.923   5.266  72.192  1.00  0.00    -0.138 C  
HETATM   29  O   UNL     1     -10.325   7.030  72.958  1.00  0.00    -0.213 OA 
ENDBRANCH  17  27
TORSDOF 3
ENDMDL
MODEL       25
REMARK 921   NORMALIZED FREE ENERGY PREDICTED BY IDOCK:   -5.36 KCAL/MOL
REMARK 922        TOTAL FREE ENERGY PREDICTED BY IDOCK:   -6.78 KCAL/MOL
REMARK 923 INTER-LIGAND FREE ENERGY PREDICTED BY IDOCK:   -7.06 KCAL/MOL
REMARK 924 INTRA-LIGAND FREE ENERGY PREDICTED BY IDOCK:    0.28 KCAL/MOL
REMARK 927      BINDING AFFINITY PREDICTED BY RF-SCORE:    0.00 PKD
ROOT
HETATM    1  C   UNL     1     -11.224  11.904  67.454  1.00  0.00    -0.366 C  
HETATM    2  C   UNL     1     -11.281  12.064  68.872  1.00  0.00    -0.315 C  
HETATM    3  C   UNL     1     -10.081  12.902  68.431  1.00  0.00    -0.227 C  
HETATM    4  C   UNL     1      -9.141  13.586  67.231  1.00  0.00    -0.225 C  
HETATM    5  C   UNL     1      -7.851  12.714  67.282  1.00  0.00    -0.155 C  
HETATM    6  C   UNL     1     -10.153  13.666  66.072  1.00  0.00    -0.320 C  
HETATM    7  C   UNL     1     -10.245  12.542  65.328  1.00  0.00    -0.302 C  
HETATM    8  C   UNL     1     -11.228  14.655  66.534  1.00  0.00    -0.346 C  
HETATM    9 CL   UNL     1     -12.877  14.460  66.046  1.00  0.00    -0.189 Cl 
HETATM   10  C   UNL     1     -10.954  15.635  67.438  1.00  0.00    -0.293 C  
HETATM   11  C   UNL     1     -10.464  11.396  66.312  1.00  0.00    -0.255 C  
HETATM   12  C   UNL     1      -9.530  16.050  67.821  1.00  0.00    -0.217 C  
HETATM   13  O   UNL     1     -10.055  10.255  66.184  1.00  0.00    -0.230 OA 
HETATM   14  C   UNL     1      -9.341  17.559  67.445  1.00  0.00    -0.249 C  
HETATM   15  C   UNL     1      -9.765  18.407  68.668  1.00  0.00    -0.387 C  
HETATM   16  C   UNL     1      -8.558  19.231  69.064  1.00  0.00    -0.256 C  
HETATM   17  C   UNL     1      -7.338  18.519  68.450  1.00  0.00    -0.283 C  
HETATM   18  C   UNL     1      -8.646  15.108  67.051  1.00  0.00    -0.265 C  
HETATM   19  C   UNL     1      -7.087  16.976  66.318  1.00  0.00    -0.236 C  
HETATM   20  C   UNL     1      -7.901  18.075  67.065  1.00  0.00    -0.236 C  
HETATM   21  C   UNL     1      -7.178  15.526  66.858  1.00  0.00     0.008 C  
HETATM   22  C   UNL     1      -8.007  19.283  66.079  1.00  0.00    -0.257 C  
ENDROOT
BRANCH  17  23
HETATM   23  O   UNL     1      -7.073  17.247  69.080  1.00  0.00    -0.244 OA 
BRANCH  23  24
HETATM   24  C   UNL     1      -6.041  17.083  69.933  1.00  0.00    -0.185 C  
HETATM   25  O   UNL     1      -5.735  17.864  70.826  1.00  0.00    -0.142 OA 
HETATM   26  C   UNL     1      -5.320  15.810  69.607  1.00  0.00    -0.114 C  
ENDBRANCH  23  24
ENDBRANCH  17  23
BRANCH  17  27
HETATM   27  C   UNL     1      -6.066  19.399  68.423  1.00  0.00    -0.228 C  
HETATM   28  C   UNL     1      -5.917  20.542  69.417  1.00  0.00    -0.375 C  
HETATM   29  O   UNL     1      -5.149  19.182  67.621  1.00  0.00    -0.169 OA 
ENDBRANCH  17  27
TORSDOF 3
ENDMDL
MODEL       26
REMARK 921   NORMALIZED FREE ENERGY PREDICTED BY IDOCK:   -5.33 KCAL/MOL
REMARK 922        TOTAL FREE ENERGY PREDICTED BY IDOCK:   -6.75 KCAL/MOL
REMARK 923 INTER-LIGAND FREE ENERGY PREDICTED BY IDOCK:   -5.87 KCAL/MOL
REMARK 924 INTRA-LIGAND FREE ENERGY PREDICTED BY IDOCK:   -0.88 KCAL/MOL
REMARK 927      BINDING AFFINITY PREDICTED BY RF-SCORE:    0.00 PKD
ROOT
HETATM    1  C   UNL     1     -10.429   4.872  72.722  1.00  0.00    -0.257 C  
HETATM    2  C   UNL     1     -11.768   5.365  72.673  1.00  0.00    -0.214 C  
HETATM    3  C   UNL     1     -10.898   6.551  72.256  1.00  0.00    -0.262 C  
HETATM    4  C   UNL     1      -9.417   7.196  71.832  1.00  0.00    -0.157 C  
HETATM    5  C   UNL     1      -9.048   8.038  73.090  1.00  0.00    -0.341 C  
HETATM    6  C   UNL     1      -8.685   5.942  71.316  1.00  0.00    -0.132 C  
HETATM    7  C   UNL     1      -8.069   5.216  72.275  1.00  0.00    -0.110 C  
HETATM    8  C   UNL     1      -9.453   5.505  70.064  1.00  0.00    -0.159 C  
HETATM    9 CL   UNL     1      -9.585   3.830  69.647  1.00  0.00    -0.264 Cl 
HETATM   10  C   UNL     1     -10.160   6.395  69.316  1.00  0.00    -0.203 C  
HETATM   11  C   UNL     1      -9.115   4.966  73.358  1.00  0.00    -0.117 C  
HETATM   12  C   UNL     1     -10.000   7.912  69.441  1.00  0.00    -0.189 C  
HETATM   13  O   UNL     1      -8.901   4.884  74.555  1.00  0.00    -0.111 OA 
HETATM   14  C   UNL     1      -9.517   8.471  68.059  1.00  0.00    -0.154 C  
HETATM   15  C   UNL     1     -10.774   8.816  67.225  1.00  0.00    -0.217 C  
HETATM   16  C   UNL     1     -10.685  10.291  66.895  1.00  0.00    -0.252 C  
HETATM   17  C   UNL     1      -9.712  10.898  67.923  1.00  0.00    -0.165 C  
HETATM   18  C   UNL     1      -9.009   8.093  70.558  1.00  0.00    -0.145 C  
HETATM   19  C   UNL     1      -7.696   9.849  69.273  1.00  0.00    -0.109 C  
HETATM   20  C   UNL     1      -8.633   9.776  68.031  1.00  0.00    -0.122 C  
HETATM   21  C   UNL     1      -8.294   9.452  70.647  1.00  0.00    -0.217 C  
HETATM   22  C   UNL     1      -7.698   9.763  66.780  1.00  0.00    -0.098 C  
ENDROOT
BRANCH  17  23
HETATM   23  O   UNL     1     -10.262  10.905  69.258  1.00  0.00    -0.217 OA 
BRANCH  23  24
HETATM   24  C   UNL     1     -11.500  11.377  69.508  1.00  0.00    -0.312 C  
HETATM   25  O   UNL     1     -11.998  12.363  68.977  1.00  0.00    -0.296 OA 
HETATM   26  C   UNL     1     -12.163  10.522  70.545  1.00  0.00    -0.435 C  
ENDBRANCH  23  24
ENDBRANCH  17  23
BRANCH  17  27
HETATM   27  C   UNL     1      -9.201  12.303  67.527  1.00  0.00    -0.181 C  
HETATM   28  C   UNL     1      -9.683  12.945  66.233  1.00  0.00    -0.268 C  
HETATM   29  O   UNL     1      -8.422  12.934  68.251  1.00  0.00    -0.168 OA 
ENDBRANCH  17  27
TORSDOF 3
ENDMDL
MODEL       27
REMARK 921   NORMALIZED FREE ENERGY PREDICTED BY IDOCK:   -5.31 KCAL/MOL
REMARK 922        TOTAL FREE ENERGY PREDICTED BY IDOCK:   -6.73 KCAL/MOL
REMARK 923 INTER-LIGAND FREE ENERGY PREDICTED BY IDOCK:   -5.96 KCAL/MOL
REMARK 924 INTRA-LIGAND FREE ENERGY PREDICTED BY IDOCK:   -0.76 KCAL/MOL
REMARK 927      BINDING AFFINITY PREDICTED BY RF-SCORE:    0.00 PKD
ROOT
HETATM    1  C   UNL     1      -9.411   7.576  70.366  1.00  0.00    -0.161 C  
HETATM    2  C   UNL     1     -10.317   8.251  71.239  1.00  0.00    -0.256 C  
HETATM    3  C   UNL     1      -9.672   9.361  70.409  1.00  0.00    -0.315 C  
HETATM    4  C   UNL     1      -8.704   9.863  69.143  1.00  0.00    -0.159 C  
HETATM    5  C   UNL     1      -7.440  10.396  69.882  1.00  0.00    -0.134 C  
HETATM    6  C   UNL     1      -8.778   8.637  68.212  1.00  0.00    -0.142 C  
HETATM    7  C   UNL     1      -7.878   7.667  68.487  1.00  0.00    -0.121 C  
HETATM    8  C   UNL     1     -10.240   8.552  67.762  1.00  0.00    -0.225 C  
HETATM    9 CL   UNL     1     -10.982   7.019  67.455  1.00  0.00    -0.359 Cl 
HETATM   10  C   UNL     1     -11.035   9.654  67.713  1.00  0.00    -0.203 C  
HETATM   11  C   UNL     1      -8.016   7.368  69.977  1.00  0.00    -0.119 C  
HETATM   12  C   UNL     1     -10.493  11.085  67.775  1.00  0.00    -0.232 C  
HETATM   13  O   UNL     1      -7.114   7.035  70.727  1.00  0.00    -0.064 OA 
HETATM   14  C   UNL     1     -10.890  11.819  66.449  1.00  0.00    -0.325 C  
HETATM   15  C   UNL     1     -12.269  12.484  66.673  1.00  0.00    -0.012 C  
HETATM   16  C   UNL     1     -12.080  13.967  66.439  1.00  0.00    -0.483 C  
HETATM   17  C   UNL     1     -10.570  14.232  66.594  1.00  0.00    -0.278 C  
HETATM   18  C   UNL     1      -9.010  10.916  67.964  1.00  0.00    -0.145 C  
HETATM   19  C   UNL     1      -8.463  12.680  66.220  1.00  0.00     0.368 C  
HETATM   20  C   UNL     1      -9.961  12.971  65.907  1.00  0.00    -0.270 C  
HETATM   21  C   UNL     1      -8.119  12.122  67.625  1.00  0.00    -0.158 C  
HETATM   22  C   UNL     1     -10.071  13.061  64.351  1.00  0.00    -0.245 C  
ENDROOT
BRANCH  17  23
HETATM   23  O   UNL     1     -10.124  14.066  67.958  1.00  0.00    -0.227 OA 
BRANCH  23  24
HETATM   24  C   UNL     1     -10.653  14.789  68.966  1.00  0.00    -0.248 C  
HETATM   25  O   UNL     1     -10.542  16.002  69.097  1.00  0.00    -0.225 OA 
HETATM   26  C   UNL     1     -11.383  13.877  69.906  1.00  0.00    -0.176 C  
ENDBRANCH  23  24
ENDBRANCH  17  23
BRANCH  17  27
HETATM   27  C   UNL     1     -10.127  15.601  66.029  1.00  0.00    -0.333 C  
HETATM   28  C   UNL     1      -8.692  16.071  66.227  1.00  0.00    -0.372 C  
HETATM   29  O   UNL     1     -10.908  16.322  65.396  1.00  0.00    -0.343 OA 
ENDBRANCH  17  27
TORSDOF 3
ENDMDL
MODEL       28
REMARK 921   NORMALIZED FREE ENERGY PREDICTED BY IDOCK:   -5.31 KCAL/MOL
REMARK 922        TOTAL FREE ENERGY PREDICTED BY IDOCK:   -6.72 KCAL/MOL
REMARK 923 INTER-LIGAND FREE ENERGY PREDICTED BY IDOCK:   -6.05 KCAL/MOL
REMARK 924 INTRA-LIGAND FREE ENERGY PREDICTED BY IDOCK:   -0.67 KCAL/MOL
REMARK 927      BINDING AFFINITY PREDICTED BY RF-SCORE:    0.00 PKD
ROOT
HETATM    1  C   UNL     1     -10.318   7.878  68.966  1.00  0.00    -0.223 C  
HETATM    2  C   UNL     1     -10.631   7.882  67.573  1.00  0.00    -0.312 C  
HETATM    3  C   UNL     1     -10.998   9.283  68.060  1.00  0.00    -0.076 C  
HETATM    4  C   UNL     1     -11.005  10.461  69.246  1.00  0.00    -0.287 C  
HETATM    5  C   UNL     1     -12.500  10.484  69.683  1.00  0.00    -0.062 C  
HETATM    6  C   UNL     1      -9.801  10.024  70.103  1.00  0.00    -0.205 C  
HETATM    7  C   UNL     1     -10.090   9.102  71.049  1.00  0.00    -0.373 C  
HETATM    8  C   UNL     1      -8.574  10.186  69.200  1.00  0.00    -0.165 C  
HETATM    9 CL   UNL     1      -7.222   9.114  69.346  1.00  0.00    -0.066 Cl 
HETATM   10  C   UNL     1      -8.556  11.083  68.178  1.00  0.00    -0.140 C  
HETATM   11  C   UNL     1     -10.829   7.975  70.333  1.00  0.00    -0.247 C  
HETATM   12  C   UNL     1      -9.580  12.212  68.032  1.00  0.00    -0.204 C  
HETATM   13  O   UNL     1     -11.716   7.285  70.808  1.00  0.00    -0.299 OA 
HETATM   14  C   UNL     1      -8.815  13.578  68.081  1.00  0.00    -0.179 C  
HETATM   15  C   UNL     1      -8.415  13.947  66.632  1.00  0.00     0.128 C  
HETATM   16  C   UNL     1      -9.056  15.284  66.331  1.00  0.00    -0.347 C  
HETATM   17  C   UNL     1     -10.204  15.443  67.346  1.00  0.00    -0.249 C  
HETATM   18  C   UNL     1     -10.536  12.000  69.174  1.00  0.00    -0.005 C  
HETATM   19  C   UNL     1     -10.551  14.468  69.778  1.00  0.00    -0.013 C  
HETATM   20  C   UNL     1      -9.562  14.850  68.638  1.00  0.00    -0.222 C  
HETATM   21  C   UNL     1     -11.414  13.195  69.583  1.00  0.00    -0.261 C  
HETATM   22  C   UNL     1      -8.532  15.842  69.269  1.00  0.00    -0.258 C  
ENDROOT
BRANCH  17  23
HETATM   23  O   UNL     1     -11.282  14.513  67.101  1.00  0.00    -0.310 OA 
BRANCH  23  24
HETATM   24  C   UNL     1     -11.737  14.273  65.855  1.00  0.00    -0.372 C  
HETATM   25  O   UNL     1     -11.863  15.118  64.976  1.00  0.00    -0.290 OA 
HETATM   26  C   UNL     1     -12.079  12.820  65.718  1.00  0.00    -0.505 C  
ENDBRANCH  23  24
ENDBRANCH  17  23
BRANCH  17  27
HETATM   27  C   UNL     1     -10.735  16.892  67.448  1.00  0.00    -0.241 C  
HETATM   28  C   UNL     1     -10.350  17.914  66.388  1.00  0.00    -0.365 C  
HETATM   29  O   UNL     1     -11.490  17.239  68.365  1.00  0.00     0.097 OA 
ENDBRANCH  17  27
TORSDOF 3
ENDMDL
MODEL       29
REMARK 921   NORMALIZED FREE ENERGY PREDICTED BY IDOCK:   -5.31 KCAL/MOL
REMARK 922        TOTAL FREE ENERGY PREDICTED BY IDOCK:   -6.72 KCAL/MOL
REMARK 923 INTER-LIGAND FREE ENERGY PREDICTED BY IDOCK:   -6.25 KCAL/MOL
REMARK 924 INTRA-LIGAND FREE ENERGY PREDICTED BY IDOCK:   -0.47 KCAL/MOL
REMARK 927      BINDING AFFINITY PREDICTED BY RF-SCORE:    0.00 PKD
ROOT
HETATM    1  C   UNL     1      -8.563   7.617  70.991  1.00  0.00    -0.131 C  
HETATM    2  C   UNL     1      -8.250   8.653  71.922  1.00  0.00    -0.167 C  
HETATM    3  C   UNL     1      -8.243   9.339  70.556  1.00  0.00    -0.219 C  
HETATM    4  C   UNL     1      -8.535   9.319  68.911  1.00  0.00    -0.129 C  
HETATM    5  C   UNL     1      -7.095   9.281  68.318  1.00  0.00    -0.076 C  
HETATM    6  C   UNL     1      -9.600   8.209  68.814  1.00  0.00    -0.149 C  
HETATM    7  C   UNL     1      -9.101   6.957  68.718  1.00  0.00    -0.133 C  
HETATM    8  C   UNL     1     -10.823   8.748  69.565  1.00  0.00    -0.142 C  
HETATM    9 CL   UNL     1     -11.870   7.677  70.432  1.00  0.00    -0.095 Cl 
HETATM   10  C   UNL     1     -11.054  10.083  69.684  1.00  0.00    -0.300 C  
HETATM   11  C   UNL     1      -8.101   6.809  69.863  1.00  0.00    -0.126 C  
HETATM   12  C   UNL     1     -10.339  11.139  68.836  1.00  0.00    -0.220 C  
HETATM   13  O   UNL     1      -7.076   6.149  69.836  1.00  0.00    -0.067 OA 
HETATM   14  C   UNL     1     -11.416  11.917  68.008  1.00  0.00    -0.389 C  
HETATM   15  C   UNL     1     -11.884  13.123  68.857  1.00  0.00    -0.361 C  
HETATM   16  C   UNL     1     -11.590  14.366  68.046  1.00  0.00    -0.357 C  
HETATM   17  C   UNL     1     -10.524  13.957  67.012  1.00  0.00    -0.278 C  
HETATM   18  C   UNL     1      -9.368  10.351  67.998  1.00  0.00    -0.145 C  
HETATM   19  C   UNL     1      -9.965  11.631  65.886  1.00  0.00    -0.264 C  
HETATM   20  C   UNL     1     -11.010  12.529  66.613  1.00  0.00    -0.303 C  
HETATM   21  C   UNL     1      -8.814  11.037  66.738  1.00  0.00    -0.158 C  
HETATM   22  C   UNL     1     -12.257  12.594  65.673  1.00  0.00    -0.474 C  
ENDROOT
BRANCH  17  23
HETATM   23  O   UNL     1      -9.249  13.670  67.627  1.00  0.00    -0.195 OA 
BRANCH  23  24
HETATM   24  C   UNL     1      -8.541  14.627  68.261  1.00  0.00    -0.167 C  
HETATM   25  O   UNL     1      -8.872  15.172  69.307  1.00  0.00    -0.222 OA 
HETATM   26  C   UNL     1      -7.298  14.931  67.480  1.00  0.00    -0.229 C  
ENDBRANCH  23  24
ENDBRANCH  17  23
BRANCH  17  27
HETATM   27  C   UNL     1     -10.367  14.974  65.859  1.00  0.00    -0.313 C  
HETATM   28  C   UNL     1     -10.751  16.431  66.079  1.00  0.00    -0.194 C  
HETATM   29  O   UNL     1      -9.911  14.638  64.759  1.00  0.00    -0.247 OA 
ENDBRANCH  17  27
TORSDOF 3
ENDMDL
MODEL       30
REMARK 921   NORMALIZED FREE ENERGY PREDICTED BY IDOCK:   -5.29 KCAL/MOL
REMARK 922        TOTAL FREE ENERGY PREDICTED BY IDOCK:   -6.70 KCAL/MOL
REMARK 923 INTER-LIGAND FREE ENERGY PREDICTED BY IDOCK:   -5.76 KCAL/MOL
REMARK 924 INTRA-LIGAND FREE ENERGY PREDICTED BY IDOCK:   -0.95 KCAL/MOL
REMARK 927      BINDING AFFINITY PREDICTED BY RF-SCORE:    0.00 PKD
ROOT
HETATM    1  C   UNL     1      -6.990  10.657  66.280  1.00  0.00    -0.133 C  
HETATM    2  C   UNL     1      -6.212   9.463  66.182  1.00  0.00    -0.067 C  
HETATM    3  C   UNL     1      -6.837   9.410  67.576  1.00  0.00    -0.076 C  
HETATM    4  C   UNL     1      -7.893  10.004  68.725  1.00  0.00    -0.094 C  
HETATM    5  C   UNL     1      -6.928  10.666  69.754  1.00  0.00    -0.145 C  
HETATM    6  C   UNL     1      -8.925  10.724  67.835  1.00  0.00    -0.139 C  
HETATM    7  C   UNL     1      -8.598  11.994  67.510  1.00  0.00    -0.167 C  
HETATM    8  C   UNL     1      -9.599   9.619  67.014  1.00  0.00    -0.173 C  
HETATM    9 CL   UNL     1     -10.143   9.926  65.399  1.00  0.00    -0.351 Cl 
HETATM   10  C   UNL     1      -9.676   8.340  67.469  1.00  0.00    -0.212 C  
HETATM   11  C   UNL     1      -7.176  11.941  66.956  1.00  0.00    -0.118 C  
HETATM   12  C   UNL     1      -9.412   7.949  68.926  1.00  0.00    -0.150 C  
HETATM   13  O   UNL     1      -6.328  12.808  67.076  1.00  0.00    -0.219 OA 
HETATM   14  C   UNL     1     -10.717   7.304  69.506  1.00  0.00    -0.244 C  
HETATM   15  C   UNL     1     -10.651   5.782  69.235  1.00  0.00    -0.376 C  
HETATM   16  C   UNL     1     -10.727   5.097  70.583  1.00  0.00    -0.133 C  
HETATM   17  C   UNL     1     -10.322   6.159  71.622  1.00  0.00    -0.216 C  
HETATM   18  C   UNL     1      -9.013   9.237  69.593  1.00  0.00    -0.164 C  
HETATM   19  C   UNL     1     -10.498   8.797  71.606  1.00  0.00    -0.387 C  
HETATM   20  C   UNL     1     -11.011   7.436  71.049  1.00  0.00    -0.268 C  
HETATM   21  C   UNL     1      -9.109   9.291  71.127  1.00  0.00    -0.197 C  
HETATM   22  C   UNL     1     -12.553   7.414  71.304  1.00  0.00    -0.376 C  
ENDROOT
BRANCH  17  23
HETATM   23  O   UNL     1      -8.925   6.512  71.525  1.00  0.00    -0.140 OA 
BRANCH  23  24
HETATM   24  C   UNL     1      -7.955   5.576  71.574  1.00  0.00    -0.116 C  
HETATM   25  O   UNL     1      -7.853   4.713  72.437  1.00  0.00    -0.087 OA 
HETATM   26  C   UNL     1      -7.016   5.767  70.421  1.00  0.00    -0.065 C  
ENDBRANCH  23  24
ENDBRANCH  17  23
BRANCH  17  27
HETATM   27  C   UNL     1     -10.695   5.772  73.072  1.00  0.00    -0.257 C  
HETATM   28  C   UNL     1     -11.363   4.431  73.346  1.00  0.00    -0.353 C  
HETATM   29  O   UNL     1     -10.444   6.519  74.025  1.00  0.00    -0.331 OA 
ENDBRANCH  17  27
TORSDOF 3
ENDMDL
MODEL       31
REMARK 921   NORMALIZED FREE ENERGY PREDICTED BY IDOCK:   -5.29 KCAL/MOL
REMARK 922        TOTAL FREE ENERGY PREDICTED BY IDOCK:   -6.70 KCAL/MOL
REMARK 923 INTER-LIGAND FREE ENERGY PREDICTED BY IDOCK:   -5.79 KCAL/MOL
REMARK 924 INTRA-LIGAND FREE ENERGY PREDICTED BY IDOCK:   -0.91 KCAL/MOL
REMARK 927      BINDING AFFINITY PREDICTED BY RF-SCORE:    0.00 PKD
ROOT
HETATM    1  C   UNL     1      -8.188   5.943  70.483  1.00  0.00    -0.119 C  
HETATM    2  C   UNL     1      -7.443   5.828  69.270  1.00  0.00    -0.083 C  
HETATM    3  C   UNL     1      -8.620   6.738  68.921  1.00  0.00    -0.130 C  
HETATM    4  C   UNL     1      -9.950   7.642  69.374  1.00  0.00    -0.180 C  
HETATM    5  C   UNL     1     -11.134   6.780  68.844  1.00  0.00    -0.243 C  
HETATM    6  C   UNL     1      -9.616   7.941  70.849  1.00  0.00    -0.172 C  
HETATM    7  C   UNL     1     -10.001   6.980  71.718  1.00  0.00    -0.187 C  
HETATM    8  C   UNL     1      -8.362   8.820  70.815  1.00  0.00    -0.160 C  
HETATM    9 CL   UNL     1      -7.177   8.718  72.073  1.00  0.00    -0.070 Cl 
HETATM   10  C   UNL     1      -8.074   9.609  69.745  1.00  0.00    -0.160 C  
HETATM   11  C   UNL     1      -9.447   5.666  71.173  1.00  0.00    -0.158 C  
HETATM   12  C   UNL     1      -9.091   9.947  68.652  1.00  0.00    -0.132 C  
HETATM   13  O   UNL     1      -9.975   4.571  71.271  1.00  0.00    -0.187 OA 
HETATM   14  C   UNL     1      -9.292  11.500  68.630  1.00  0.00    -0.142 C  
HETATM   15  C   UNL     1      -8.254  12.096  67.650  1.00  0.00    -0.163 C  
HETATM   16  C   UNL     1      -9.037  12.832  66.583  1.00  0.00    -0.188 C  
HETATM   17  C   UNL     1     -10.464  12.255  66.630  1.00  0.00    -0.222 C  
HETATM   18  C   UNL     1     -10.323   9.172  69.034  1.00  0.00    -0.229 C  
HETATM   19  C   UNL     1     -11.854  11.149  68.589  1.00  0.00    -0.357 C  
HETATM   20  C   UNL     1     -10.681  12.083  68.165  1.00  0.00    -0.246 C  
HETATM   21  C   UNL     1     -11.655   9.622  68.412  1.00  0.00     0.504 C  
HETATM   22  C   UNL     1     -10.945  13.457  68.860  1.00  0.00    -0.284 C  
ENDROOT
BRANCH  17  23
HETATM   23  O   UNL     1     -10.515  10.886  66.172  1.00  0.00    -0.247 OA 
BRANCH  23  24
HETATM   24  C   UNL     1     -10.098  10.539  64.937  1.00  0.00    -0.333 C  
HETATM   25  O   UNL     1     -10.458  11.076  63.896  1.00  0.00    -0.357 OA 
HETATM   26  C   UNL     1      -9.143   9.388  65.036  1.00  0.00    -0.271 C  
ENDBRANCH  23  24
ENDBRANCH  17  23
BRANCH  17  27
HETATM   27  C   UNL     1     -11.502  13.126  65.885  1.00  0.00    -0.333 C  
HETATM   28  C   UNL     1     -11.095  14.490  65.346  1.00  0.00    -0.345 C  
HETATM   29  O   UNL     1     -12.659  12.731  65.695  1.00  0.00    -0.596 OA 
ENDBRANCH  17  27
TORSDOF 3
ENDMDL
MODEL       32
REMARK 921   NORMALIZED FREE ENERGY PREDICTED BY IDOCK:   -5.25 KCAL/MOL
REMARK 922        TOTAL FREE ENERGY PREDICTED BY IDOCK:   -6.65 KCAL/MOL
REMARK 923 INTER-LIGAND FREE ENERGY PREDICTED BY IDOCK:   -5.79 KCAL/MOL
REMARK 924 INTRA-LIGAND FREE ENERGY PREDICTED BY IDOCK:   -0.85 KCAL/MOL
REMARK 927      BINDING AFFINITY PREDICTED BY RF-SCORE:    0.00 PKD
ROOT
HETATM    1  C   UNL     1     -10.300  11.140  66.789  1.00  0.00    -0.284 C  
HETATM    2  C   UNL     1     -11.471  11.351  67.579  1.00  0.00    -0.336 C  
HETATM    3  C   UNL     1     -11.026   9.927  67.910  1.00  0.00    -0.281 C  
HETATM    4  C   UNL     1      -9.915   8.684  67.808  1.00  0.00    -0.240 C  
HETATM    5  C   UNL     1     -10.623   7.682  66.847  1.00  0.00    -0.359 C  
HETATM    6  C   UNL     1      -8.618   9.469  67.527  1.00  0.00    -0.126 C  
HETATM    7  C   UNL     1      -8.399   9.743  66.222  1.00  0.00    -0.117 C  
HETATM    8  C   UNL     1      -8.366  10.307  68.785  1.00  0.00    -0.125 C  
HETATM    9 CL   UNL     1      -7.622  11.865  68.675  1.00  0.00    -0.126 Cl 
HETATM   10  C   UNL     1      -8.829   9.918  70.004  1.00  0.00    -0.194 C  
HETATM   11  C   UNL     1      -9.682  10.386  65.700  1.00  0.00    -0.236 C  
HETATM   12  C   UNL     1      -9.336   8.503  70.298  1.00  0.00    -0.171 C  
HETATM   13  O   UNL     1     -10.132  10.271  64.573  1.00  0.00    -0.338 OA 
HETATM   14  C   UNL     1      -8.435   7.880  71.418  1.00  0.00    -0.133 C  
HETATM   15  C   UNL     1      -9.066   8.237  72.784  1.00  0.00    -0.332 C  
HETATM   16  C   UNL     1      -9.367   6.927  73.480  1.00  0.00    -0.197 C  
HETATM   17  C   UNL     1      -9.407   5.858  72.371  1.00  0.00    -0.143 C  
HETATM   18  C   UNL     1      -9.253   7.793  68.975  1.00  0.00    -0.143 C  
HETATM   19  C   UNL     1      -8.217   5.719  70.015  1.00  0.00    -0.115 C  
HETATM   20  C   UNL     1      -8.233   6.318  71.452  1.00  0.00    -0.122 C  
HETATM   21  C   UNL     1      -9.262   6.255  69.003  1.00  0.00    -0.127 C  
HETATM   22  C   UNL     1      -6.846   5.970  72.084  1.00  0.00    -0.073 C  
ENDROOT
BRANCH  17  23
HETATM   23  O   UNL     1     -10.544   6.021  71.496  1.00  0.00    -0.226 OA 
BRANCH  23  24
HETATM   24  C   UNL     1     -11.801   6.100  71.979  1.00  0.00    -0.280 C  
HETATM   25  O   UNL     1     -12.258   5.394  72.870  1.00  0.00    -0.112 OA 
HETATM   26  C   UNL     1     -12.552   7.171  71.248  1.00  0.00    -0.421 C  
ENDBRANCH  23  24
ENDBRANCH  17  23
BRANCH  17  27
HETATM   27  C   UNL     1      -9.327   4.411  72.912  1.00  0.00    -0.126 C  
HETATM   28  C   UNL     1      -9.537   3.238  71.964  1.00  0.00    -0.215 C  
HETATM   29  O   UNL     1      -9.074   4.180  74.101  1.00  0.00    -0.094 OA 
ENDBRANCH  17  27
TORSDOF 3
ENDMDL
MODEL       33
REMARK 921   NORMALIZED FREE ENERGY PREDICTED BY IDOCK:   -5.23 KCAL/MOL
REMARK 922        TOTAL FREE ENERGY PREDICTED BY IDOCK:   -6.64 KCAL/MOL
REMARK 923 INTER-LIGAND FREE ENERGY PREDICTED BY IDOCK:   -5.80 KCAL/MOL
REMARK 924 INTRA-LIGAND FREE ENERGY PREDICTED BY IDOCK:   -0.83 KCAL/MOL
REMARK 927      BINDING AFFINITY PREDICTED BY RF-SCORE:    0.00 PKD
ROOT
HETATM    1  C   UNL     1     -10.530   5.421  71.759  1.00  0.00    -0.288 C  
HETATM    2  C   UNL     1     -11.838   5.983  71.861  1.00  0.00    -0.242 C  
HETATM    3  C   UNL     1     -10.932   7.161  71.502  1.00  0.00    -0.261 C  
HETATM    4  C   UNL     1      -9.449   7.772  71.036  1.00  0.00    -0.165 C  
HETATM    5  C   UNL     1      -8.946   8.457  72.342  1.00  0.00    -0.309 C  
HETATM    6  C   UNL     1      -8.828   6.544  70.342  1.00  0.00    -0.151 C  
HETATM    7  C   UNL     1      -8.190   5.692  71.174  1.00  0.00    -0.121 C  
HETATM    8  C   UNL     1      -9.706   6.281  69.113  1.00  0.00    -0.135 C  
HETATM    9 CL   UNL     1      -9.961   4.668  68.539  1.00  0.00    -0.174 Cl 
HETATM   10  C   UNL     1     -10.410   7.278  68.514  1.00  0.00    -0.210 C  
HETATM   11  C   UNL     1      -9.172   5.382  72.301  1.00  0.00    -0.142 C  
HETATM   12  C   UNL     1     -10.155   8.765  68.780  1.00  0.00    -0.213 C  
HETATM   13  O   UNL     1      -8.879   5.163  73.465  1.00  0.00    -0.116 OA 
HETATM   14  C   UNL     1      -9.738   9.441  67.430  1.00  0.00    -0.205 C  
HETATM   15  C   UNL     1     -11.028   9.934  66.732  1.00  0.00     0.009 C  
HETATM   16  C   UNL     1     -10.878  11.429  66.547  1.00  0.00    -0.334 C  
HETATM   17  C   UNL     1      -9.802  11.876  67.556  1.00  0.00    -0.188 C  
HETATM   18  C   UNL     1      -9.080   8.777  69.833  1.00  0.00    -0.158 C  
HETATM   19  C   UNL     1      -7.761  10.590  68.638  1.00  0.00    -0.106 C  
HETATM   20  C   UNL     1      -8.785  10.696  67.469  1.00  0.00    -0.125 C  
HETATM   21  C   UNL     1      -8.284  10.082  70.005  1.00  0.00    -0.139 C  
HETATM   22  C   UNL     1      -7.941  10.768  66.156  1.00  0.00    -0.157 C  
ENDROOT
BRANCH  17  23
HETATM   23  O   UNL     1     -10.257  11.769  68.922  1.00  0.00    -0.188 OA 
BRANCH  23  24
HETATM   24  C   UNL     1     -11.472  12.218  69.298  1.00  0.00    -0.292 C  
HETATM   25  O   UNL     1     -11.921  13.330  69.045  1.00  0.00    -0.310 OA 
HETATM   26  C   UNL     1     -12.177  11.156  70.086  1.00  0.00    -0.417 C  
ENDBRANCH  23  24
ENDBRANCH  17  23
BRANCH  17  27
HETATM   27  C   UNL     1      -9.241  13.287  67.267  1.00  0.00    -0.222 C  
HETATM   28  C   UNL     1      -8.279  13.933  68.255  1.00  0.00    -0.158 C  
HETATM   29  O   UNL     1      -9.537  13.902  66.235  1.00  0.00    -0.283 OA 
ENDBRANCH  17  27
TORSDOF 3
ENDMDL
MODEL       34
REMARK 921   NORMALIZED FREE ENERGY PREDICTED BY IDOCK:   -5.16 KCAL/MOL
REMARK 922        TOTAL FREE ENERGY PREDICTED BY IDOCK:   -6.55 KCAL/MOL
REMARK 923 INTER-LIGAND FREE ENERGY PREDICTED BY IDOCK:   -5.59 KCAL/MOL
REMARK 924 INTRA-LIGAND FREE ENERGY PREDICTED BY IDOCK:   -0.95 KCAL/MOL
REMARK 927      BINDING AFFINITY PREDICTED BY RF-SCORE:    0.00 PKD
ROOT
HETATM    1  C   UNL     1     -11.861  13.789  67.034  1.00  0.00    -0.445 C  
HETATM    2  C   UNL     1     -12.115  12.787  68.018  1.00  0.00    -0.174 C  
HETATM    3  C   UNL     1     -11.486  12.034  66.847  1.00  0.00    -0.402 C  
HETATM    4  C   UNL     1     -10.718  12.022  65.363  1.00  0.00    -0.330 C  
HETATM    5  C   UNL     1     -11.840  11.511  64.411  1.00  0.00    -0.063 C  
HETATM    6  C   UNL     1     -10.069  13.420  65.355  1.00  0.00    -0.270 C  
HETATM    7  C   UNL     1     -10.873  14.410  64.906  1.00  0.00    -0.430 C  
HETATM    8  C   UNL     1      -9.038  13.400  66.489  1.00  0.00    -0.113 C  
HETATM    9 CL   UNL     1      -8.694  14.834  67.396  1.00  0.00    -0.195 Cl 
HETATM   10  C   UNL     1      -8.458  12.242  66.903  1.00  0.00    -0.159 C  
HETATM   11  C   UNL     1     -12.174  14.294  65.697  1.00  0.00    -0.400 C  
HETATM   12  C   UNL     1      -8.514  10.939  66.100  1.00  0.00    -0.171 C  
HETATM   13  O   UNL     1     -13.290  14.553  65.280  1.00  0.00    -0.464 OA 
HETATM   14  C   UNL     1      -7.048  10.518  65.743  1.00  0.00    -0.124 C  
HETATM   15  C   UNL     1      -6.522   9.622  66.889  1.00  0.00    -0.067 C  
HETATM   16  C   UNL     1      -6.153   8.292  66.267  1.00  0.00    -0.045 C  
HETATM   17  C   UNL     1      -6.916   8.223  64.930  1.00  0.00    -0.074 C  
HETATM   18  C   UNL     1      -9.367  11.272  64.907  1.00  0.00    -0.181 C  
HETATM   19  C   UNL     1      -7.780  10.113  63.296  1.00  0.00    -0.151 C  
HETATM   20  C   UNL     1      -6.792   9.694  64.424  1.00  0.00    -0.111 C  
HETATM   21  C   UNL     1      -9.263  10.338  63.689  1.00  0.00    -0.315 C  
HETATM   22  C   UNL     1      -5.358   9.989  63.878  1.00  0.00    -0.101 C  
ENDROOT
BRANCH  17  23
HETATM   23  O   UNL     1      -8.342   8.099  65.120  1.00  0.00    -0.148 OA 
BRANCH  23  24
HETATM   24  C   UNL     1      -8.867   7.140  65.910  1.00  0.00    -0.103 C  
HETATM   25  O   UNL     1      -8.566   5.952  65.871  1.00  0.00    -0.135 OA 
HETATM   26  C   UNL     1      -9.884   7.748  66.828  1.00  0.00    -0.312 C  
ENDBRANCH  23  24
ENDBRANCH  17  23
BRANCH  17  27
HETATM   27  C   UNL     1      -6.386   7.125  63.979  1.00  0.00    -0.044 C  
HETATM   28  C   UNL     1      -5.184   6.285  64.390  1.00  0.00    -0.017 C  
HETATM   29  O   UNL     1      -6.932   6.894  62.893  1.00  0.00    -0.049 OA 
ENDBRANCH  17  27
TORSDOF 3
ENDMDL
MODEL       35
REMARK 921   NORMALIZED FREE ENERGY PREDICTED BY IDOCK:   -5.13 KCAL/MOL
REMARK 922        TOTAL FREE ENERGY PREDICTED BY IDOCK:   -6.52 KCAL/MOL
REMARK 923 INTER-LIGAND FREE ENERGY PREDICTED BY IDOCK:   -6.25 KCAL/MOL
REMARK 924 INTRA-LIGAND FREE ENERGY PREDICTED BY IDOCK:   -0.27 KCAL/MOL
REMARK 927      BINDING AFFINITY PREDICTED BY RF-SCORE:    0.00 PKD
ROOT
HETATM    1  C   UNL     1      -7.762   8.320  67.800  1.00  0.00    -0.103 C  
HETATM    2  C   UNL     1      -6.871   9.160  68.535  1.00  0.00    -0.063 C  
HETATM    3  C   UNL     1      -7.461  10.066  67.454  1.00  0.00    -0.091 C  
HETATM    4  C   UNL     1      -8.550  10.345  66.218  1.00  0.00    -0.147 C  
HETATM    5  C   UNL     1      -7.637  10.312  64.957  1.00  0.00    -0.124 C  
HETATM    6  C   UNL     1      -9.665   9.342  66.575  1.00  0.00    -0.305 C  
HETATM    7  C   UNL     1      -9.473   8.094  66.094  1.00  0.00    -0.217 C  
HETATM    8  C   UNL     1     -10.240   9.826  67.910  1.00  0.00    -0.194 C  
HETATM    9 CL   UNL     1     -10.843   8.696  69.074  1.00  0.00    -0.114 Cl 
HETATM   10  C   UNL     1     -10.180  11.134  68.279  1.00  0.00    -0.197 C  
HETATM   11  C   UNL     1      -8.064   7.686  66.517  1.00  0.00    -0.119 C  
HETATM   12  C   UNL     1      -9.852  12.268  67.304  1.00  0.00    -0.208 C  
HETATM   13  O   UNL     1      -7.304   6.973  65.883  1.00  0.00    -0.072 OA 
HETATM   14  C   UNL     1     -11.074  13.247  67.257  1.00  0.00    -0.301 C  
HETATM   15  C   UNL     1     -10.862  14.319  68.353  1.00  0.00    -0.263 C  
HETATM   16  C   UNL     1     -10.844  15.660  67.650  1.00  0.00    -0.307 C  
HETATM   17  C   UNL     1     -10.527  15.361  66.173  1.00  0.00    -0.316 C  
HETATM   18  C   UNL     1      -9.571  11.571  66.000  1.00  0.00    -0.251 C  
HETATM   19  C   UNL     1     -10.967  13.229  64.673  1.00  0.00    -0.384 C  
HETATM   20  C   UNL     1     -11.351  14.058  65.935  1.00  0.00    -0.317 C  
HETATM   21  C   UNL     1      -9.644  12.422  64.721  1.00  0.00     0.117 C  
HETATM   22  C   UNL     1     -12.878  14.366  65.805  1.00  0.00    -0.179 C  
ENDROOT
BRANCH  17  23
HETATM   23  O   UNL     1      -9.174  14.889  65.989  1.00  0.00    -0.277 OA 
BRANCH  23  24
HETATM   24  C   UNL     1      -8.117  15.574  66.470  1.00  0.00    -0.064 C  
HETATM   25  O   UNL     1      -7.844  16.736  66.191  1.00  0.00    -0.312 OA 
HETATM   26  C   UNL     1      -7.321  14.691  67.382  1.00  0.00    -0.195 C  
ENDBRANCH  23  24
ENDBRANCH  17  23
BRANCH  17  27
HETATM   27  C   UNL     1     -10.833  16.547  65.229  1.00  0.00    -0.221 C  
HETATM   28  C   UNL     1     -10.618  17.974  65.715  1.00  0.00    -0.174 C  
HETATM   29  O   UNL     1     -11.230  16.365  64.071  1.00  0.00    -0.849 OA 
ENDBRANCH  17  27
TORSDOF 3
ENDMDL
MODEL       36
REMARK 921   NORMALIZED FREE ENERGY PREDICTED BY IDOCK:   -5.08 KCAL/MOL
REMARK 922        TOTAL FREE ENERGY PREDICTED BY IDOCK:   -6.46 KCAL/MOL
REMARK 923 INTER-LIGAND FREE ENERGY PREDICTED BY IDOCK:   -6.43 KCAL/MOL
REMARK 924 INTRA-LIGAND FREE ENERGY PREDICTED BY IDOCK:   -0.03 KCAL/MOL
REMARK 927      BINDING AFFINITY PREDICTED BY RF-SCORE:    0.00 PKD
ROOT
HETATM    1  C   UNL     1     -10.535  10.964  66.527  1.00  0.00    -0.308 C  
HETATM    2  C   UNL     1     -10.867  11.459  65.230  1.00  0.00    -0.297 C  
HETATM    3  C   UNL     1     -10.936  12.681  66.145  1.00  0.00    -0.313 C  
HETATM    4  C   UNL     1     -10.685  13.411  67.626  1.00  0.00    -0.257 C  
HETATM    5  C   UNL     1     -12.137  13.573  68.168  1.00  0.00    -0.290 C  
HETATM    6  C   UNL     1      -9.578  12.514  68.214  1.00  0.00    -0.209 C  
HETATM    7  C   UNL     1     -10.028  11.415  68.857  1.00  0.00    -0.146 C  
HETATM    8  C   UNL     1      -8.360  12.720  67.306  1.00  0.00    -0.187 C  
HETATM    9 CL   UNL     1      -7.248  11.426  67.014  1.00  0.00    -0.133 Cl 
HETATM   10  C   UNL     1      -8.181  13.871  66.604  1.00  0.00     0.349 C  
HETATM   11  C   UNL     1     -10.991  10.723  67.896  1.00  0.00    -0.289 C  
HETATM   12  C   UNL     1      -8.961  15.158  66.887  1.00  0.00    -0.277 C  
HETATM   13  O   UNL     1     -11.989  10.096  68.210  1.00  0.00    -0.014 OA 
HETATM   14  C   UNL     1      -7.937  16.275  67.285  1.00  0.00    -0.195 C  
HETATM   15  C   UNL     1      -7.498  16.996  65.988  1.00  0.00    -0.115 C  
HETATM   16  C   UNL     1      -7.864  18.455  66.156  1.00  0.00    -0.241 C  
HETATM   17  C   UNL     1      -8.937  18.499  67.259  1.00  0.00    -0.270 C  
HETATM   18  C   UNL     1      -9.918  14.782  67.985  1.00  0.00    -0.218 C  
HETATM   19  C   UNL     1      -9.428  16.897  69.304  1.00  0.00    -0.051 C  
HETATM   20  C   UNL     1      -8.403  17.425  68.257  1.00  0.00    -0.248 C  
HETATM   21  C   UNL     1     -10.532  15.930  68.803  1.00  0.00    -0.237 C  
HETATM   22  C   UNL     1      -7.184  17.963  69.074  1.00  0.00    -0.211 C  
ENDROOT
BRANCH  17  23
HETATM   23  O   UNL     1     -10.184  17.907  66.833  1.00  0.00    -0.328 OA 
BRANCH  23  24
HETATM   24  C   UNL     1     -10.712  18.172  65.620  1.00  0.00    -0.032 C  
HETATM   25  O   UNL     1     -10.921  17.339  64.746  1.00  0.00    -0.950 OA 
HETATM   26  C   UNL     1     -10.985  19.641  65.503  1.00  0.00    -0.140 C  
ENDBRANCH  23  24
ENDBRANCH  17  23
BRANCH  17  27
HETATM   27  C   UNL     1      -9.166  19.915  67.836  1.00  0.00    -0.328 C  
HETATM   28  C   UNL     1     -10.266  20.144  68.863  1.00  0.00    -0.280 C  
HETATM   29  O   UNL     1      -8.458  20.872  67.497  1.00  0.00    -0.214 OA 
ENDBRANCH  17  27
TORSDOF 3
ENDMDL
MODEL       37
REMARK 921   NORMALIZED FREE ENERGY PREDICTED BY IDOCK:   -5.03 KCAL/MOL
REMARK 922        TOTAL FREE ENERGY PREDICTED BY IDOCK:   -6.39 KCAL/MOL
REMARK 923 INTER-LIGAND FREE ENERGY PREDICTED BY IDOCK:   -5.68 KCAL/MOL
REMARK 924 INTRA-LIGAND FREE ENERGY PREDICTED BY IDOCK:   -0.72 KCAL/MOL
REMARK 927      BINDING AFFINITY PREDICTED BY RF-SCORE:    0.00 PKD
ROOT
HETATM    1  C   UNL     1      -7.736   9.221  66.767  1.00  0.00    -0.094 C  
HETATM    2  C   UNL     1      -6.454   9.843  66.861  1.00  0.00    -0.066 C  
HETATM    3  C   UNL     1      -7.402  10.963  66.435  1.00  0.00    -0.141 C  
HETATM    4  C   UNL     1      -8.943  11.540  66.146  1.00  0.00    -0.201 C  
HETATM    5  C   UNL     1      -8.979  11.627  64.591  1.00  0.00     0.342 C  
HETATM    6  C   UNL     1      -9.782  10.602  67.036  1.00  0.00    -0.207 C  
HETATM    7  C   UNL     1     -10.132   9.436  66.450  1.00  0.00    -0.332 C  
HETATM    8  C   UNL     1      -9.358  10.915  68.475  1.00  0.00    -0.181 C  
HETATM    9 CL   UNL     1      -9.336   9.673  69.680  1.00  0.00    -0.207 Cl 
HETATM   10  C   UNL     1      -8.865  12.135  68.823  1.00  0.00     0.108 C  
HETATM   11  C   UNL     1      -8.844   8.835  65.893  1.00  0.00    -0.186 C  
HETATM   12  C   UNL     1      -8.989  13.376  67.935  1.00  0.00    -0.201 C  
HETATM   13  O   UNL     1      -8.747   8.166  64.878  1.00  0.00    -0.072 OA 
HETATM   14  C   UNL     1      -9.808  14.459  68.715  1.00  0.00    -0.214 C  
HETATM   15  C   UNL     1      -8.806  15.315  69.526  1.00  0.00    -0.181 C  
HETATM   16  C   UNL     1      -8.976  16.744  69.058  1.00  0.00    -0.188 C  
HETATM   17  C   UNL     1      -9.656  16.661  67.678  1.00  0.00    -0.239 C  
HETATM   18  C   UNL     1      -9.663  12.876  66.686  1.00  0.00    -0.254 C  
HETATM   19  C   UNL     1     -11.260  14.851  66.612  1.00  0.00    -0.340 C  
HETATM   20  C   UNL     1     -10.670  15.497  67.900  1.00  0.00    -0.294 C  
HETATM   21  C   UNL     1     -10.331  13.927  65.783  1.00  0.00    -0.326 C  
HETATM   22  C   UNL     1     -11.894  15.963  68.752  1.00  0.00    -0.277 C  
ENDROOT
BRANCH  17  23
HETATM   23  O   UNL     1      -8.783  16.100  66.673  1.00  0.00    -0.210 OA 
BRANCH  23  24
HETATM   24  C   UNL     1      -7.584  16.651  66.393  1.00  0.00    -0.262 C  
HETATM   25  O   UNL     1      -7.417  17.701  65.783  1.00  0.00    -0.512 OA 
HETATM   26  C   UNL     1      -6.493  15.773  66.925  1.00  0.00     0.279 C  
ENDBRANCH  23  24
ENDBRANCH  17  23
BRANCH  17  27
HETATM   27  C   UNL     1     -10.251  18.007  67.206  1.00  0.00    -0.364 C  
HETATM   28  C   UNL     1     -10.375  19.164  68.188  1.00  0.00    -0.465 C  
HETATM   29  O   UNL     1     -10.611  18.179  66.035  1.00  0.00    -0.390 OA 
ENDBRANCH  17  27
TORSDOF 3
ENDMDL
MODEL       38
REMARK 921   NORMALIZED FREE ENERGY PREDICTED BY IDOCK:   -5.01 KCAL/MOL
REMARK 922        TOTAL FREE ENERGY PREDICTED BY IDOCK:   -6.38 KCAL/MOL
REMARK 923 INTER-LIGAND FREE ENERGY PREDICTED BY IDOCK:   -5.49 KCAL/MOL
REMARK 924 INTRA-LIGAND FREE ENERGY PREDICTED BY IDOCK:   -0.89 KCAL/MOL
REMARK 927      BINDING AFFINITY PREDICTED BY RF-SCORE:    0.00 PKD
ROOT
HETATM    1  C   UNL     1      -9.576  12.820  67.513  1.00  0.00    -0.192 C  
HETATM    2  C   UNL     1      -8.184  12.706  67.807  1.00  0.00    -0.171 C  
HETATM    3  C   UNL     1      -8.785  11.368  68.236  1.00  0.00    -0.160 C  
HETATM    4  C   UNL     1     -10.067  10.300  68.305  1.00  0.00    -0.176 C  
HETATM    5  C   UNL     1     -10.479  10.372  69.806  1.00  0.00    -0.284 C  
HETATM    6  C   UNL     1     -10.904  10.764  67.097  1.00  0.00    -0.335 C  
HETATM    7  C   UNL     1     -11.761  11.775  67.362  1.00  0.00    -0.304 C  
HETATM    8  C   UNL     1     -10.039  10.477  65.865  1.00  0.00    -0.260 C  
HETATM    9 CL   UNL     1     -10.114  11.504  64.474  1.00  0.00    -0.304 Cl 
HETATM   10  C   UNL     1      -9.099   9.494  65.868  1.00  0.00    -0.230 C  
HETATM   11  C   UNL     1     -10.937  12.863  68.047  1.00  0.00    -0.247 C  
HETATM   12  C   UNL     1      -9.034   8.396  66.934  1.00  0.00    -0.168 C  
HETATM   13  O   UNL     1     -11.336  13.624  68.911  1.00  0.00    -0.256 OA 
HETATM   14  C   UNL     1      -9.214   7.011  66.225  1.00  0.00    -0.166 C  
HETATM   15  C   UNL     1      -7.810   6.503  65.820  1.00  0.00    -0.104 C  
HETATM   16  C   UNL     1      -7.615   5.169  66.510  1.00  0.00    -0.088 C  
HETATM   17  C   UNL     1      -8.621   5.144  67.676  1.00  0.00    -0.104 C  
HETATM   18  C   UNL     1     -10.137   8.743  67.896  1.00  0.00    -0.257 C  
HETATM   19  C   UNL     1     -10.953   6.340  68.018  1.00  0.00    -0.418 C  
HETATM   20  C   UNL     1      -9.867   5.823  67.029  1.00  0.00    -0.171 C  
HETATM   21  C   UNL     1     -10.633   7.624  68.827  1.00  0.00    -0.169 C  
HETATM   22  C   UNL     1     -10.599   4.851  66.048  1.00  0.00    -0.312 C  
ENDROOT
BRANCH  17  23
HETATM   23  O   UNL     1      -8.278   6.089  68.713  1.00  0.00    -0.103 OA 
BRANCH  23  24
HETATM   24  C   UNL     1      -7.038   6.138  69.241  1.00  0.00    -0.066 C  
HETATM   25  O   UNL     1      -6.422   5.175  69.682  1.00  0.00    -0.035 OA 
HETATM   26  C   UNL     1      -6.541   7.552  69.221  1.00  0.00    -0.040 C  
ENDBRANCH  23  24
ENDBRANCH  17  23
BRANCH  17  27
HETATM   27  C   UNL     1      -8.839   3.731  68.266  1.00  0.00    -0.112 C  
HETATM   28  C   UNL     1      -9.623   3.566  69.561  1.00  0.00    -0.179 C  
HETATM   29  O   UNL     1      -8.410   2.720  67.697  1.00  0.00    -0.078 OA 
ENDBRANCH  17  27
TORSDOF 3
ENDMDL
MODEL       39
REMARK 921   NORMALIZED FREE ENERGY PREDICTED BY IDOCK:   -4.93 KCAL/MOL
REMARK 922        TOTAL FREE ENERGY PREDICTED BY IDOCK:   -6.28 KCAL/MOL
REMARK 923 INTER-LIGAND FREE ENERGY PREDICTED BY IDOCK:   -5.56 KCAL/MOL
REMARK 924 INTRA-LIGAND FREE ENERGY PREDICTED BY IDOCK:   -0.71 KCAL/MOL
REMARK 927      BINDING AFFINITY PREDICTED BY RF-SCORE:    0.00 PKD
ROOT
HETATM    1  C   UNL     1     -11.504  14.829  66.652  1.00  0.00    -0.339 C  
HETATM    2  C   UNL     1     -12.157  14.547  67.890  1.00  0.00    -0.261 C  
HETATM    3  C   UNL     1     -11.651  13.192  67.396  1.00  0.00    -0.403 C  
HETATM    4  C   UNL     1     -10.756  12.269  66.330  1.00  0.00    -0.293 C  
HETATM    5  C   UNL     1     -11.863  11.580  65.476  1.00  0.00     0.324 C  
HETATM    6  C   UNL     1      -9.723  13.302  65.839  1.00  0.00    -0.188 C  
HETATM    7  C   UNL     1     -10.138  14.060  64.800  1.00  0.00    -0.224 C  
HETATM    8  C   UNL     1      -8.883  13.658  67.069  1.00  0.00    -0.223 C  
HETATM    9 CL   UNL     1      -8.233  15.250  67.266  1.00  0.00    -0.210 Cl 
HETATM   10  C   UNL     1      -8.726  12.786  68.101  1.00  0.00    -0.193 C  
HETATM   11  C   UNL     1     -11.496  14.630  65.203  1.00  0.00    -0.375 C  
HETATM   12  C   UNL     1      -9.076  11.298  68.005  1.00  0.00    -0.156 C  
HETATM   13  O   UNL     1     -12.428  14.858  64.451  1.00  0.00    -0.558 OA 
HETATM   14  C   UNL     1      -7.772  10.469  68.259  1.00  0.00    -0.101 C  
HETATM   15  C   UNL     1      -7.672  10.201  69.780  1.00  0.00    -0.176 C  
HETATM   16  C   UNL     1      -7.648   8.697  69.955  1.00  0.00    -0.068 C  
HETATM   17  C   UNL     1      -8.238   8.109  68.660  1.00  0.00    -0.125 C  
HETATM   18  C   UNL     1      -9.648  11.137  66.623  1.00  0.00    -0.215 C  
HETATM   19  C   UNL     1      -8.305   9.026  66.181  1.00  0.00    -0.124 C  
HETATM   20  C   UNL     1      -7.623   9.054  67.581  1.00  0.00    -0.093 C  
HETATM   21  C   UNL     1      -9.688   9.713  66.043  1.00  0.00    -0.331 C  
HETATM   22  C   UNL     1      -6.114   8.733  67.336  1.00  0.00    -0.051 C  
ENDROOT
BRANCH  17  23
HETATM   23  O   UNL     1      -9.648   8.389  68.525  1.00  0.00    -0.146 OA 
BRANCH  23  24
HETATM   24  C   UNL     1     -10.558   7.849  69.361  1.00  0.00    -0.205 C  
HETATM   25  O   UNL     1     -10.960   6.692  69.311  1.00  0.00    -0.261 OA 
HETATM   26  C   UNL     1     -11.010   8.884  70.346  1.00  0.00    -0.275 C  
ENDBRANCH  23  24
ENDBRANCH  17  23
BRANCH  17  27
HETATM   27  C   UNL     1      -7.954   6.599  68.488  1.00  0.00    -0.118 C  
HETATM   28  C   UNL     1      -7.285   5.823  69.615  1.00  0.00    -0.069 C  
HETATM   29  O   UNL     1      -8.281   5.993  67.460  1.00  0.00    -0.106 OA 
ENDBRANCH  17  27
TORSDOF 3
ENDMDL
MODEL       40
REMARK 921   NORMALIZED FREE ENERGY PREDICTED BY IDOCK:   -4.82 KCAL/MOL
REMARK 922        TOTAL FREE ENERGY PREDICTED BY IDOCK:   -6.15 KCAL/MOL
REMARK 923 INTER-LIGAND FREE ENERGY PREDICTED BY IDOCK:   -5.21 KCAL/MOL
REMARK 924 INTRA-LIGAND FREE ENERGY PREDICTED BY IDOCK:   -0.94 KCAL/MOL
REMARK 927      BINDING AFFINITY PREDICTED BY RF-SCORE:    0.00 PKD
ROOT
HETATM    1  C   UNL     1      -9.908  10.501  66.981  1.00  0.00    -0.223 C  
HETATM    2  C   UNL     1     -10.535   9.393  66.335  1.00  0.00    -0.165 C  
HETATM    3  C   UNL     1      -9.705   8.773  67.460  1.00  0.00    -0.214 C  
HETATM    4  C   UNL     1      -8.756   8.923  68.826  1.00  0.00    -0.137 C  
HETATM    5  C   UNL     1      -7.339   8.562  68.288  1.00  0.00    -0.094 C  
HETATM    6  C   UNL     1      -9.218  10.295  69.357  1.00  0.00    -0.206 C  
HETATM    7  C   UNL     1      -8.571  11.352  68.819  1.00  0.00    -0.085 C  
HETATM    8  C   UNL     1     -10.688  10.109  69.748  1.00  0.00    -0.279 C  
HETATM    9 CL   UNL     1     -11.817  11.411  69.586  1.00  0.00    -0.393 Cl 
HETATM   10  C   UNL     1     -11.180   8.894  70.110  1.00  0.00    -0.175 C  
HETATM   11  C   UNL     1      -8.650  11.175  67.305  1.00  0.00    -0.140 C  
HETATM   12  C   UNL     1     -10.292   7.702  70.476  1.00  0.00    -0.211 C  
HETATM   13  O   UNL     1      -7.799  11.512  66.499  1.00  0.00    -0.144 OA 
HETATM   14  C   UNL     1     -10.605   7.290  71.954  1.00  0.00    -0.238 C  
HETATM   15  C   UNL     1     -11.747   6.246  71.921  1.00  0.00    -0.370 C  
HETATM   16  C   UNL     1     -11.210   4.994  72.581  1.00  0.00    -0.239 C  
HETATM   17  C   UNL     1      -9.675   5.109  72.525  1.00  0.00    -0.151 C  
HETATM   18  C   UNL     1      -8.889   8.200  70.259  1.00  0.00    -0.141 C  
HETATM   19  C   UNL     1      -8.068   7.207  72.449  1.00  0.00    -0.108 C  
HETATM   20  C   UNL     1      -9.466   6.627  72.818  1.00  0.00    -0.153 C  
HETATM   21  C   UNL     1      -7.755   7.420  70.946  1.00  0.00    -0.088 C  
HETATM   22  C   UNL     1      -9.684   6.950  74.332  1.00  0.00    -0.264 C  
ENDROOT
BRANCH  17  23
HETATM   23  O   UNL     1      -9.168   4.999  71.177  1.00  0.00    -0.138 OA 
BRANCH  23  24
HETATM   24  C   UNL     1      -9.499   3.962  70.381  1.00  0.00    -0.181 C  
HETATM   25  O   UNL     1      -9.459   2.782  70.710  1.00  0.00    -0.141 OA 
HETATM   26  C   UNL     1      -9.905   4.474  69.033  1.00  0.00    -0.202 C  
ENDBRANCH  23  24
ENDBRANCH  17  23
BRANCH  17  27
HETATM   27  C   UNL     1      -8.952   4.122  73.470  1.00  0.00    -0.095 C  
HETATM   28  C   UNL     1      -9.761   3.294  74.460  1.00  0.00    -0.153 C  
HETATM   29  O   UNL     1      -7.725   3.970  73.429  1.00  0.00    -0.080 OA 
ENDBRANCH  17  27
TORSDOF 3
ENDMDL
MODEL       41
REMARK 921   NORMALIZED FREE ENERGY PREDICTED BY IDOCK:   -4.73 KCAL/MOL
REMARK 922        TOTAL FREE ENERGY PREDICTED BY IDOCK:   -6.05 KCAL/MOL
REMARK 923 INTER-LIGAND FREE ENERGY PREDICTED BY IDOCK:   -5.39 KCAL/MOL
REMARK 924 INTRA-LIGAND FREE ENERGY PREDICTED BY IDOCK:   -0.66 KCAL/MOL
REMARK 927      BINDING AFFINITY PREDICTED BY RF-SCORE:    0.00 PKD
ROOT
HETATM    1  C   UNL     1      -7.381   8.482  65.667  1.00  0.00    -0.084 C  
HETATM    2  C   UNL     1      -7.237   9.156  64.416  1.00  0.00    -0.099 C  
HETATM    3  C   UNL     1      -8.265   9.981  65.189  1.00  0.00    -0.146 C  
HETATM    4  C   UNL     1      -9.100  10.328  66.594  1.00  0.00    -0.163 C  
HETATM    5  C   UNL     1     -10.533   9.814  66.264  1.00  0.00    -0.160 C  
HETATM    6  C   UNL     1      -8.139   9.759  67.657  1.00  0.00    -0.113 C  
HETATM    7  C   UNL     1      -8.300   8.441  67.912  1.00  0.00    -0.131 C  
HETATM    8  C   UNL     1      -6.873  10.616  67.566  1.00  0.00    -0.078 C  
HETATM    9 CL   UNL     1      -5.315   9.929  67.879  1.00  0.00    -0.039 Cl 
HETATM   10  C   UNL     1      -6.913  11.899  67.115  1.00  0.00    -0.142 C  
HETATM   11  C   UNL     1      -8.271   7.738  66.557  1.00  0.00    -0.124 C  
HETATM   12  C   UNL     1      -8.210  12.701  66.975  1.00  0.00    -0.110 C  
HETATM   13  O   UNL     1      -8.902   6.739  66.256  1.00  0.00    -0.140 OA 
HETATM   14  C   UNL     1      -8.114  13.958  67.905  1.00  0.00    -0.158 C  
HETATM   15  C   UNL     1      -7.483  15.106  67.082  1.00  0.00    -0.176 C  
HETATM   16  C   UNL     1      -8.486  16.240  67.076  1.00  0.00    -0.232 C  
HETATM   17  C   UNL     1      -9.847  15.603  67.419  1.00  0.00    -0.225 C  
HETATM   18  C   UNL     1      -9.293  11.731  67.361  1.00  0.00    -0.174 C  
HETATM   19  C   UNL     1     -10.482  13.446  68.810  1.00  0.00    -0.203 C  
HETATM   20  C   UNL     1      -9.438  14.563  68.508  1.00  0.00    -0.211 C  
HETATM   21  C   UNL     1     -10.656  12.324  67.755  1.00  0.00    -0.241 C  
HETATM   22  C   UNL     1      -9.137  15.258  69.875  1.00  0.00     0.099 C  
ENDROOT
BRANCH  17  23
HETATM   23  O   UNL     1     -10.331  14.747  66.363  1.00  0.00    -0.278 OA 
BRANCH  23  24
HETATM   24  C   UNL     1     -10.983  15.245  65.292  1.00  0.00    -0.393 C  
HETATM   25  O   UNL     1     -10.604  16.195  64.617  1.00  0.00    -0.597 OA 
HETATM   26  C   UNL     1     -12.247  14.471  65.070  1.00  0.00    -0.376 C  
ENDBRANCH  23  24
ENDBRANCH  17  23
BRANCH  17  27
HETATM   27  C   UNL     1     -10.921  16.638  67.829  1.00  0.00    -0.234 C  
HETATM   28  C   UNL     1     -10.700  18.114  67.531  1.00  0.00    -0.365 C  
HETATM   29  O   UNL     1     -11.974  16.292  68.378  1.00  0.00    -0.095 OA 
ENDBRANCH  17  27
TORSDOF 3
ENDMDL
MODEL       42
REMARK 921   NORMALIZED FREE ENERGY PREDICTED BY IDOCK:   -4.73 KCAL/MOL
REMARK 922        TOTAL FREE ENERGY PREDICTED BY IDOCK:   -6.04 KCAL/MOL
REMARK 923 INTER-LIGAND FREE ENERGY PREDICTED BY IDOCK:   -5.62 KCAL/MOL
REMARK 924 INTRA-LIGAND FREE ENERGY PREDICTED BY IDOCK:   -0.42 KCAL/MOL
REMARK 927      BINDING AFFINITY PREDICTED BY RF-SCORE:    0.00 PKD
ROOT
HETATM    1  C   UNL     1     -11.387  15.084  66.707  1.00  0.00    -0.293 C  
HETATM    2  C   UNL     1     -11.776  15.074  68.081  1.00  0.00    -0.335 C  
HETATM    3  C   UNL     1     -11.277  13.656  67.805  1.00  0.00    -0.310 C  
HETATM    4  C   UNL     1     -10.534  12.538  66.811  1.00  0.00    -0.243 C  
HETATM    5  C   UNL     1     -11.729  11.644  66.364  1.00  0.00    -0.008 C  
HETATM    6  C   UNL     1      -9.687  13.460  65.911  1.00  0.00    -0.197 C  
HETATM    7  C   UNL     1     -10.340  13.950  64.835  1.00  0.00    -0.430 C  
HETATM    8  C   UNL     1      -8.658  14.109  66.843  1.00  0.00    -0.133 C  
HETATM    9 CL   UNL     1      -8.097  15.721  66.555  1.00  0.00    -0.284 Cl 
HETATM   10  C   UNL     1      -8.250  13.499  67.989  1.00  0.00    -0.163 C  
HETATM   11  C   UNL     1     -11.636  14.560  65.364  1.00  0.00    -0.355 C  
HETATM   12  C   UNL     1      -8.506  12.020  68.291  1.00  0.00    -0.167 C  
HETATM   13  O   UNL     1     -12.705  14.586  64.781  1.00  0.00    -0.606 OA 
HETATM   14  C   UNL     1      -7.122  11.305  68.457  1.00  0.00    -0.083 C  
HETATM   15  C   UNL     1      -6.722  11.394  69.949  1.00  0.00    -0.032 C  
HETATM   16  C   UNL     1      -6.560   9.971  70.440  1.00  0.00    -0.132 C  
HETATM   17  C   UNL     1      -7.338   9.087  69.447  1.00  0.00    -0.075 C  
HETATM   18  C   UNL     1      -9.314  11.533  67.119  1.00  0.00    -0.177 C  
HETATM   19  C   UNL     1      -7.932   9.413  66.892  1.00  0.00    -0.109 C  
HETATM   20  C   UNL     1      -7.004   9.778  68.088  1.00  0.00    -0.077 C  
HETATM   21  C   UNL     1      -9.361  10.014  66.884  1.00  0.00    -0.188 C  
HETATM   22  C   UNL     1      -5.548   9.449  67.626  1.00  0.00    -0.037 C  
ENDROOT
BRANCH  17  23
HETATM   23  O   UNL     1      -8.765   9.292  69.536  1.00  0.00    -0.130 OA 
BRANCH  23  24
HETATM   24  C   UNL     1      -9.431   9.118  70.696  1.00  0.00    -0.261 C  
HETATM   25  O   UNL     1      -8.938   9.217  71.813  1.00  0.00    -0.345 OA 
HETATM   26  C   UNL     1     -10.860   8.769  70.404  1.00  0.00    -0.256 C  
ENDBRANCH  23  24
ENDBRANCH  17  23
BRANCH  17  27
HETATM   27  C   UNL     1      -6.986   7.586  69.557  1.00  0.00    -0.060 C  
HETATM   28  C   UNL     1      -7.876   6.550  68.883  1.00  0.00    -0.110 C  
HETATM   29  O   UNL     1      -5.980   7.201  70.166  1.00  0.00    -0.024 OA 
ENDBRANCH  17  27
TORSDOF 3
ENDMDL
MODEL       43
REMARK 921   NORMALIZED FREE ENERGY PREDICTED BY IDOCK:   -4.69 KCAL/MOL
REMARK 922        TOTAL FREE ENERGY PREDICTED BY IDOCK:   -5.99 KCAL/MOL
REMARK 923 INTER-LIGAND FREE ENERGY PREDICTED BY IDOCK:   -5.24 KCAL/MOL
REMARK 924 INTRA-LIGAND FREE ENERGY PREDICTED BY IDOCK:   -0.75 KCAL/MOL
REMARK 927      BINDING AFFINITY PREDICTED BY RF-SCORE:    0.00 PKD
ROOT
HETATM    1  C   UNL     1     -10.494  16.238  67.448  1.00  0.00    -0.304 C  
HETATM    2  C   UNL     1     -10.826  15.925  66.095  1.00  0.00    -0.208 C  
HETATM    3  C   UNL     1      -9.776  14.888  66.490  1.00  0.00    -0.294 C  
HETATM    4  C   UNL     1      -8.811  14.151  67.638  1.00  0.00    -0.194 C  
HETATM    5  C   UNL     1      -7.393  14.681  67.271  1.00  0.00    -0.122 C  
HETATM    6  C   UNL     1      -9.602  14.453  68.926  1.00  0.00    -0.123 C  
HETATM    7  C   UNL     1      -9.322  15.649  69.490  1.00  0.00    -0.263 C  
HETATM    8  C   UNL     1     -10.927  13.697  68.780  1.00  0.00    -0.264 C  
HETATM    9 CL   UNL     1     -12.387  14.333  69.458  1.00  0.00    -0.330 Cl 
HETATM   10  C   UNL     1     -11.028  12.579  68.012  1.00  0.00    -0.266 C  
HETATM   11  C   UNL     1      -9.458  16.686  68.379  1.00  0.00    -0.231 C  
HETATM   12  C   UNL     1      -9.814  11.796  67.504  1.00  0.00    -0.195 C  
HETATM   13  O   UNL     1      -8.798  17.706  68.267  1.00  0.00    -0.260 OA 
HETATM   14  C   UNL     1      -9.889  10.342  68.082  1.00  0.00    -0.166 C  
HETATM   15  C   UNL     1     -10.688   9.477  67.078  1.00  0.00    -0.220 C  
HETATM   16  C   UNL     1      -9.773   8.349  66.651  1.00  0.00    -0.320 C  
HETATM   17  C   UNL     1      -8.341   8.822  66.968  1.00  0.00    -0.103 C  
HETATM   18  C   UNL     1      -8.629  12.589  67.984  1.00  0.00    -0.185 C  
HETATM   19  C   UNL     1      -7.404  10.509  68.775  1.00  0.00    -0.092 C  
HETATM   20  C   UNL     1      -8.549   9.551  68.332  1.00  0.00    -0.120 C  
HETATM   21  C   UNL     1      -7.274  11.863  68.033  1.00  0.00    -0.090 C  
HETATM   22  C   UNL     1      -8.740   8.530  69.500  1.00  0.00    -0.136 C  
ENDROOT
BRANCH  17  23
HETATM   23  O   UNL     1      -7.923   9.910  66.116  1.00  0.00    -0.105 OA 
BRANCH  23  24
HETATM   24  C   UNL     1      -7.592   9.707  64.824  1.00  0.00    -0.122 C  
HETATM   25  O   UNL     1      -8.323   9.203  63.980  1.00  0.00    -0.163 OA 
HETATM   26  C   UNL     1      -6.188  10.177  64.588  1.00  0.00    -0.130 C  
ENDBRANCH  23  24
ENDBRANCH  17  23
BRANCH  17  27
HETATM   27  C   UNL     1      -7.302   7.677  66.955  1.00  0.00    -0.090 C  
HETATM   28  C   UNL     1      -7.714   6.287  66.490  1.00  0.00    -0.099 C  
HETATM   29  O   UNL     1      -6.127   7.868  67.295  1.00  0.00    -0.050 OA 
ENDBRANCH  17  27
TORSDOF 3
ENDMDL
MODEL       44
REMARK 921   NORMALIZED FREE ENERGY PREDICTED BY IDOCK:   -4.65 KCAL/MOL
REMARK 922        TOTAL FREE ENERGY PREDICTED BY IDOCK:   -5.95 KCAL/MOL
REMARK 923 INTER-LIGAND FREE ENERGY PREDICTED BY IDOCK:   -5.06 KCAL/MOL
REMARK 924 INTRA-LIGAND FREE ENERGY PREDICTED BY IDOCK:   -0.89 KCAL/MOL
REMARK 927      BINDING AFFINITY PREDICTED BY RF-SCORE:    0.00 PKD
ROOT
HETATM    1  C   UNL     1      -9.932  13.549  66.863  1.00  0.00    -0.256 C  
HETATM    2  C   UNL     1      -8.601  13.708  67.353  1.00  0.00    -0.212 C  
HETATM    3  C   UNL     1      -9.152  12.496  68.104  1.00  0.00    -0.204 C  
HETATM    4  C   UNL     1     -10.339  11.345  68.345  1.00  0.00    -0.209 C  
HETATM    5  C   UNL     1     -10.991  11.813  69.680  1.00  0.00    -0.056 C  
HETATM    6  C   UNL     1     -11.006  11.312  66.956  1.00  0.00    -0.352 C  
HETATM    7  C   UNL     1     -11.973  12.239  66.775  1.00  0.00    -0.230 C  
HETATM    8  C   UNL     1      -9.934  10.780  65.999  1.00  0.00    -0.242 C  
HETATM    9 CL   UNL     1      -9.868  11.321  64.356  1.00  0.00    -0.292 Cl 
HETATM   10  C   UNL     1      -8.930   9.971  66.433  1.00  0.00    -0.164 C  
HETATM   11  C   UNL     1     -11.361  13.578  67.178  1.00  0.00    -0.321 C  
HETATM   12  C   UNL     1      -8.948   9.264  67.791  1.00  0.00    -0.131 C  
HETATM   13  O   UNL     1     -11.953  14.508  67.699  1.00  0.00    -0.374 OA 
HETATM   14  C   UNL     1      -8.900   7.718  67.541  1.00  0.00    -0.124 C  
HETATM   15  C   UNL     1      -7.412   7.294  67.500  1.00  0.00    -0.101 C  
HETATM   16  C   UNL     1      -7.223   6.266  68.596  1.00  0.00    -0.085 C  
HETATM   17  C   UNL     1      -8.397   6.467  69.573  1.00  0.00    -0.126 C  
HETATM   18  C   UNL     1     -10.216   9.742  68.445  1.00  0.00    -0.210 C  
HETATM   19  C   UNL     1     -10.843   7.404  69.217  1.00  0.00    -0.153 C  
HETATM   20  C   UNL     1      -9.574   6.755  68.590  1.00  0.00    -0.131 C  
HETATM   21  C   UNL     1     -10.762   8.901  69.611  1.00  0.00    -0.222 C  
HETATM   22  C   UNL     1     -10.059   5.448  67.883  1.00  0.00    -0.215 C  
ENDROOT
BRANCH  17  23
HETATM   23  O   UNL     1      -8.303   7.716  70.291  1.00  0.00    -0.128 OA 
BRANCH  23  24
HETATM   24  C   UNL     1      -7.176   8.074  70.939  1.00  0.00    -0.053 C  
HETATM   25  O   UNL     1      -6.502   7.330  71.643  1.00  0.00    -0.040 OA 
HETATM   26  C   UNL     1      -6.888   9.522  70.680  1.00  0.00    -0.115 C  
ENDBRANCH  23  24
ENDBRANCH  17  23
BRANCH  17  27
HETATM   27  C   UNL     1      -8.593   5.282  70.547  1.00  0.00    -0.120 C  
HETATM   28  C   UNL     1      -7.605   4.123  70.534  1.00  0.00    -0.045 C  
HETATM   29  O   UNL     1      -9.526   5.261  71.359  1.00  0.00    -0.145 OA 
ENDBRANCH  17  27
TORSDOF 3
ENDMDL
MODEL       45
REMARK 921   NORMALIZED FREE ENERGY PREDICTED BY IDOCK:   -4.64 KCAL/MOL
REMARK 922        TOTAL FREE ENERGY PREDICTED BY IDOCK:   -5.93 KCAL/MOL
REMARK 923 INTER-LIGAND FREE ENERGY PREDICTED BY IDOCK:   -5.52 KCAL/MOL
REMARK 924 INTRA-LIGAND FREE ENERGY PREDICTED BY IDOCK:   -0.41 KCAL/MOL
REMARK 927      BINDING AFFINITY PREDICTED BY RF-SCORE:    0.00 PKD
ROOT
HETATM    1  C   UNL     1     -11.286  13.260  66.019  1.00  0.00    -0.316 C  
HETATM    2  C   UNL     1     -12.133  12.359  65.305  1.00  0.00    -0.451 C  
HETATM    3  C   UNL     1     -10.999  11.487  65.843  1.00  0.00    -0.301 C  
HETATM    4  C   UNL     1      -9.644  11.281  66.797  1.00  0.00    -0.214 C  
HETATM    5  C   UNL     1      -8.502  11.201  65.740  1.00  0.00    -0.076 C  
HETATM    6  C   UNL     1      -9.850  12.390  67.848  1.00  0.00    -0.202 C  
HETATM    7  C   UNL     1      -9.382  13.604  67.483  1.00  0.00    -0.223 C  
HETATM    8  C   UNL     1     -11.111  11.990  68.622  1.00  0.00    -0.250 C  
HETATM    9 CL   UNL     1     -12.180  13.197  69.252  1.00  0.00    -0.243 Cl 
HETATM   10  C   UNL     1     -11.499  10.691  68.730  1.00  0.00    -0.330 C  
HETATM   11  C   UNL     1      -9.968  13.890  66.103  1.00  0.00    -0.310 C  
HETATM   12  C   UNL     1     -10.584   9.510  68.394  1.00  0.00    -0.261 C  
HETATM   13  O   UNL     1      -9.423  14.515  65.210  1.00  0.00    -0.028 OA 
HETATM   14  C   UNL     1     -10.401   8.647  69.688  1.00  0.00    -0.213 C  
HETATM   15  C   UNL     1     -11.526   7.585  69.710  1.00  0.00     0.095 C  
HETATM   16  C   UNL     1     -10.846   6.232  69.734  1.00  0.00    -0.399 C  
HETATM   17  C   UNL     1      -9.415   6.467  69.216  1.00  0.00    -0.140 C  
HETATM   18  C   UNL     1      -9.317  10.149  67.895  1.00  0.00    -0.151 C  
HETATM   19  C   UNL     1      -7.849   8.596  69.271  1.00  0.00    -0.101 C  
HETATM   20  C   UNL     1      -9.064   7.835  69.880  1.00  0.00    -0.147 C  
HETATM   21  C   UNL     1      -8.048   9.279  67.893  1.00  0.00    -0.104 C  
HETATM   22  C   UNL     1      -8.752   7.665  71.402  1.00  0.00    -0.132 C  
ENDROOT
BRANCH  17  23
HETATM   23  O   UNL     1      -9.392   6.809  67.813  1.00  0.00    -0.119 OA 
BRANCH  23  24
HETATM   24  C   UNL     1      -9.293   5.862  66.858  1.00  0.00    -0.129 C  
HETATM   25  O   UNL     1      -8.251   5.516  66.313  1.00  0.00    -0.108 OA 
HETATM   26  C   UNL     1     -10.655   5.312  66.555  1.00  0.00    -0.348 C  
ENDBRANCH  23  24
ENDBRANCH  17  23
BRANCH  17  27
HETATM   27  C   UNL     1      -8.455   5.293  69.516  1.00  0.00    -0.094 C  
HETATM   28  C   UNL     1      -9.019   3.903  69.775  1.00  0.00    -0.167 C  
HETATM   29  O   UNL     1      -7.227   5.450  69.529  1.00  0.00    -0.061 OA 
ENDBRANCH  17  27
TORSDOF 3
ENDMDL
MODEL       46
REMARK 921   NORMALIZED FREE ENERGY PREDICTED BY IDOCK:   -4.62 KCAL/MOL
REMARK 922        TOTAL FREE ENERGY PREDICTED BY IDOCK:   -5.91 KCAL/MOL
REMARK 923 INTER-LIGAND FREE ENERGY PREDICTED BY IDOCK:   -5.25 KCAL/MOL
REMARK 924 INTRA-LIGAND FREE ENERGY PREDICTED BY IDOCK:   -0.66 KCAL/MOL
REMARK 927      BINDING AFFINITY PREDICTED BY RF-SCORE:    0.00 PKD
ROOT
HETATM    1  C   UNL     1      -9.289  12.607  66.640  1.00  0.00    -0.236 C  
HETATM    2  C   UNL     1      -8.728  13.165  67.829  1.00  0.00    -0.188 C  
HETATM    3  C   UNL     1      -9.383  11.860  68.280  1.00  0.00    -0.193 C  
HETATM    4  C   UNL     1     -10.143  10.413  67.935  1.00  0.00    -0.200 C  
HETATM    5  C   UNL     1     -11.611  10.694  68.377  1.00  0.00    -0.269 C  
HETATM    6  C   UNL     1      -9.648  10.155  66.498  1.00  0.00    -0.236 C  
HETATM    7  C   UNL     1     -10.387  10.747  65.534  1.00  0.00    -0.308 C  
HETATM    8  C   UNL     1      -8.135   9.946  66.618  1.00  0.00    -0.117 C  
HETATM    9 CL   UNL     1      -7.070  10.448  65.349  1.00  0.00    -0.137 Cl 
HETATM   10  C   UNL     1      -7.568   9.482  67.764  1.00  0.00    -0.087 C  
HETATM   11  C   UNL     1     -10.508  12.216  65.932  1.00  0.00    -0.254 C  
HETATM   12  C   UNL     1      -8.371   8.829  68.894  1.00  0.00    -0.127 C  
HETATM   13  O   UNL     1     -11.467  12.938  65.721  1.00  0.00    -0.311 OA 
HETATM   14  C   UNL     1      -7.852   7.363  69.082  1.00  0.00    -0.116 C  
HETATM   15  C   UNL     1      -6.699   7.400  70.115  1.00  0.00    -0.050 C  
HETATM   16  C   UNL     1      -7.112   6.499  71.259  1.00  0.00    -0.077 C  
HETATM   17  C   UNL     1      -8.643   6.361  71.159  1.00  0.00    -0.128 C  
HETATM   18  C   UNL     1      -9.801   8.922  68.439  1.00  0.00    -0.191 C  
HETATM   19  C   UNL     1     -10.296   6.520  69.103  1.00  0.00    -0.226 C  
HETATM   20  C   UNL     1      -8.848   6.265  69.616  1.00  0.00    -0.136 C  
HETATM   21  C   UNL     1     -10.814   7.981  69.114  1.00  0.00    -0.038 C  
HETATM   22  C   UNL     1      -8.435   4.858  69.073  1.00  0.00    -0.086 C  
ENDROOT
BRANCH  17  23
HETATM   23  O   UNL     1      -9.324   7.596  71.469  1.00  0.00    -0.136 OA 
BRANCH  23  24
HETATM   24  C   UNL     1      -9.711   7.893  72.726  1.00  0.00    -0.257 C  
HETATM   25  O   UNL     1      -8.961   7.980  73.691  1.00  0.00    -0.262 OA 
HETATM   26  C   UNL     1     -11.197   8.082  72.761  1.00  0.00    -0.448 C  
ENDBRANCH  23  24
ENDBRANCH  17  23
BRANCH  17  27
HETATM   27  C   UNL     1      -9.208   5.192  71.999  1.00  0.00    -0.137 C  
HETATM   28  C   UNL     1      -8.309   4.476  72.999  1.00  0.00    -0.099 C  
HETATM   29  O   UNL     1     -10.388   4.834  71.896  1.00  0.00    -0.199 OA 
ENDBRANCH  17  27
TORSDOF 3
ENDMDL
MODEL       47
REMARK 921   NORMALIZED FREE ENERGY PREDICTED BY IDOCK:   -4.59 KCAL/MOL
REMARK 922        TOTAL FREE ENERGY PREDICTED BY IDOCK:   -5.88 KCAL/MOL
REMARK 923 INTER-LIGAND FREE ENERGY PREDICTED BY IDOCK:   -5.38 KCAL/MOL
REMARK 924 INTRA-LIGAND FREE ENERGY PREDICTED BY IDOCK:   -0.49 KCAL/MOL
REMARK 927      BINDING AFFINITY PREDICTED BY RF-SCORE:    0.00 PKD
ROOT
HETATM    1  C   UNL     1      -8.570  10.684  65.071  1.00  0.00    -0.166 C  
HETATM    2  C   UNL     1      -9.958  10.356  64.988  1.00  0.00    -0.399 C  
HETATM    3  C   UNL     1      -9.386   9.381  66.017  1.00  0.00    -0.279 C  
HETATM    4  C   UNL     1      -8.134   8.855  66.991  1.00  0.00    -0.109 C  
HETATM    5  C   UNL     1      -7.681   7.548  66.273  1.00  0.00    -0.089 C  
HETATM    6  C   UNL     1      -7.315  10.152  67.146  1.00  0.00    -0.091 C  
HETATM    7  C   UNL     1      -6.422  10.374  66.156  1.00  0.00    -0.111 C  
HETATM    8  C   UNL     1      -8.220  11.117  67.918  1.00  0.00    -0.121 C  
HETATM    9 CL   UNL     1      -8.150  12.821  67.622  1.00  0.00    -0.162 Cl 
HETATM   10  C   UNL     1      -9.188  10.667  68.760  1.00  0.00    -0.182 C  
HETATM   11  C   UNL     1      -7.195  10.239  64.847  1.00  0.00    -0.100 C  
HETATM   12  C   UNL     1      -9.258   9.222  69.265  1.00  0.00    -0.152 C  
HETATM   13  O   UNL     1      -6.752   9.809  63.795  1.00  0.00    -0.109 OA 
HETATM   14  C   UNL     1      -9.137   9.240  70.826  1.00  0.00    -0.306 C  
HETATM   15  C   UNL     1     -10.566   9.362  71.408  1.00  0.00    -0.381 C  
HETATM   16  C   UNL     1     -10.782   8.148  72.286  1.00  0.00    -0.381 C  
HETATM   17  C   UNL     1      -9.748   7.102  71.827  1.00  0.00    -0.157 C  
HETATM   18  C   UNL     1      -8.121   8.527  68.567  1.00  0.00    -0.122 C  
HETATM   19  C   UNL     1      -7.373   7.354  70.694  1.00  0.00    -0.070 C  
HETATM   20  C   UNL     1      -8.500   7.998  71.556  1.00  0.00    -0.147 C  
HETATM   21  C   UNL     1      -7.634   7.200  69.173  1.00  0.00    -0.099 C  
HETATM   22  C   UNL     1      -7.822   8.449  72.890  1.00  0.00    -0.143 C  
ENDROOT
BRANCH  17  23
HETATM   23  O   UNL     1     -10.036   6.594  70.507  1.00  0.00    -0.179 OA 
BRANCH  23  24
HETATM   24  C   UNL     1     -11.300   6.354  70.103  1.00  0.00    -0.420 C  
HETATM   25  O   UNL     1     -12.265   6.228  70.847  1.00  0.00    -0.129 OA 
HETATM   26  C   UNL     1     -11.337   6.249  68.608  1.00  0.00    -0.181 C  
ENDBRANCH  23  24
ENDBRANCH  17  23
BRANCH  17  27
HETATM   27  C   UNL     1      -9.557   5.947  72.836  1.00  0.00    -0.155 C  
HETATM   28  C   UNL     1     -10.185   6.041  74.221  1.00  0.00    -0.314 C  
HETATM   29  O   UNL     1      -8.920   4.929  72.539  1.00  0.00    -0.130 OA 
ENDBRANCH  17  27
TORSDOF 3
ENDMDL
MODEL       48
REMARK 921   NORMALIZED FREE ENERGY PREDICTED BY IDOCK:   -4.59 KCAL/MOL
REMARK 922        TOTAL FREE ENERGY PREDICTED BY IDOCK:   -5.88 KCAL/MOL
REMARK 923 INTER-LIGAND FREE ENERGY PREDICTED BY IDOCK:   -4.92 KCAL/MOL
REMARK 924 INTRA-LIGAND FREE ENERGY PREDICTED BY IDOCK:   -0.95 KCAL/MOL
REMARK 927      BINDING AFFINITY PREDICTED BY RF-SCORE:    0.00 PKD
ROOT
HETATM    1  C   UNL     1      -7.663   8.690  64.367  1.00  0.00    -0.126 C  
HETATM    2  C   UNL     1      -7.969   7.315  64.134  1.00  0.00    -0.084 C  
HETATM    3  C   UNL     1      -7.709   7.409  65.637  1.00  0.00    -0.104 C  
HETATM    4  C   UNL     1      -7.433   8.309  67.017  1.00  0.00    -0.088 C  
HETATM    5  C   UNL     1      -5.928   8.027  67.303  1.00  0.00    -0.050 C  
HETATM    6  C   UNL     1      -8.058   9.661  66.617  1.00  0.00    -0.119 C  
HETATM    7  C   UNL     1      -7.228  10.485  65.940  1.00  0.00    -0.135 C  
HETATM    8  C   UNL     1      -9.556   9.386  66.451  1.00  0.00    -0.224 C  
HETATM    9 CL   UNL     1     -10.488  10.252  65.277  1.00  0.00    -0.214 Cl 
HETATM   10  C   UNL     1     -10.174   8.377  67.121  1.00  0.00    -0.362 C  
HETATM   11  C   UNL     1      -6.654   9.661  64.790  1.00  0.00    -0.102 C  
HETATM   12  C   UNL     1      -9.544   7.650  68.313  1.00  0.00    -0.160 C  
HETATM   13  O   UNL     1      -5.536   9.773  64.317  1.00  0.00    -0.071 OA 
HETATM   14  C   UNL     1     -10.465   7.863  69.562  1.00  0.00    -0.226 C  
HETATM   15  C   UNL     1     -11.499   6.712  69.588  1.00  0.00    -0.358 C  
HETATM   16  C   UNL     1     -11.314   5.992  70.907  1.00  0.00    -0.299 C  
HETATM   17  C   UNL     1      -9.900   6.360  71.397  1.00  0.00    -0.176 C  
HETATM   18  C   UNL     1      -8.177   8.262  68.445  1.00  0.00    -0.132 C  
HETATM   19  C   UNL     1      -8.385   8.484  70.967  1.00  0.00    -0.173 C  
HETATM   20  C   UNL     1      -9.815   7.866  70.997  1.00  0.00    -0.189 C  
HETATM   21  C   UNL     1      -7.456   8.085  69.792  1.00  0.00    -0.089 C  
HETATM   22  C   UNL     1     -10.655   8.761  71.965  1.00  0.00    -0.414 C  
ENDROOT
BRANCH  17  23
HETATM   23  O   UNL     1      -8.868   5.779  70.572  1.00  0.00    -0.135 OA 
BRANCH  23  24
HETATM   24  C   UNL     1      -8.822   4.454  70.327  1.00  0.00    -0.080 C  
HETATM   25  O   UNL     1      -8.769   3.581  71.185  1.00  0.00    -0.074 OA 
HETATM   26  C   UNL     1      -8.831   4.217  68.847  1.00  0.00    -0.139 C  
ENDBRANCH  23  24
ENDBRANCH  17  23
BRANCH  17  27
HETATM   27  C   UNL     1      -9.665   6.034  72.890  1.00  0.00    -0.155 C  
HETATM   28  C   UNL     1     -10.782   5.400  73.709  1.00  0.00    -0.324 C  
HETATM   29  O   UNL     1      -8.577   6.255  73.436  1.00  0.00    -0.122 OA 
ENDBRANCH  17  27
TORSDOF 3
ENDMDL
MODEL       49
REMARK 921   NORMALIZED FREE ENERGY PREDICTED BY IDOCK:   -4.48 KCAL/MOL
REMARK 922        TOTAL FREE ENERGY PREDICTED BY IDOCK:   -5.75 KCAL/MOL
REMARK 923 INTER-LIGAND FREE ENERGY PREDICTED BY IDOCK:   -4.96 KCAL/MOL
REMARK 924 INTRA-LIGAND FREE ENERGY PREDICTED BY IDOCK:   -0.79 KCAL/MOL
REMARK 927      BINDING AFFINITY PREDICTED BY RF-SCORE:    0.00 PKD
ROOT
HETATM    1  C   UNL     1      -9.801   5.608  72.361  1.00  0.00    -0.189 C  
HETATM    2  C   UNL     1      -8.921   4.682  71.724  1.00  0.00    -0.156 C  
HETATM    3  C   UNL     1      -9.406   5.597  70.600  1.00  0.00    -0.191 C  
HETATM    4  C   UNL     1     -10.224   6.956  70.075  1.00  0.00    -0.211 C  
HETATM    5  C   UNL     1     -11.500   6.344  69.422  1.00  0.00    -0.374 C  
HETATM    6  C   UNL     1     -10.169   7.839  71.337  1.00  0.00    -0.211 C  
HETATM    7  C   UNL     1     -11.162   7.613  72.225  1.00  0.00    -0.343 C  
HETATM    8  C   UNL     1      -8.686   8.160  71.548  1.00  0.00    -0.146 C  
HETATM    9 CL   UNL     1      -8.042   8.355  73.143  1.00  0.00    -0.206 Cl 
HETATM   10  C   UNL     1      -7.806   8.174  70.511  1.00  0.00    -0.087 C  
HETATM   11  C   UNL     1     -11.171   6.107  72.479  1.00  0.00    -0.287 C  
HETATM   12  C   UNL     1      -8.238   8.203  69.042  1.00  0.00    -0.127 C  
HETATM   13  O   UNL     1     -12.155   5.428  72.715  1.00  0.00    -0.182 OA 
HETATM   14  C   UNL     1      -7.676   9.512  68.390  1.00  0.00    -0.085 C  
HETATM   15  C   UNL     1      -6.273   9.191  67.822  1.00  0.00    -0.051 C  
HETATM   16  C   UNL     1      -6.326   9.486  66.338  1.00  0.00    -0.069 C  
HETATM   17  C   UNL     1      -7.818   9.468  65.956  1.00  0.00    -0.100 C  
HETATM   18  C   UNL     1      -9.740   8.136  69.093  1.00  0.00    -0.163 C  
HETATM   19  C   UNL     1     -10.002   9.974  67.358  1.00  0.00    -0.242 C  
HETATM   20  C   UNL     1      -8.465  10.166  67.192  1.00  0.00    -0.125 C  
HETATM   21  C   UNL     1     -10.504   8.587  67.836  1.00  0.00    -0.262 C  
HETATM   22  C   UNL     1      -8.220  11.709  67.168  1.00  0.00    -0.165 C  
ENDROOT
BRANCH  17  23
HETATM   23  O   UNL     1      -8.387   8.144  66.037  1.00  0.00    -0.116 OA 
BRANCH  23  24
HETATM   24  C   UNL     1      -7.873   7.111  65.339  1.00  0.00    -0.119 C  
HETATM   25  O   UNL     1      -7.749   7.076  64.120  1.00  0.00    -0.106 OA 
HETATM   26  C   UNL     1      -7.492   6.009  66.281  1.00  0.00    -0.086 C  
ENDBRANCH  23  24
ENDBRANCH  17  23
BRANCH  17  27
HETATM   27  C   UNL     1      -8.105  10.111  64.579  1.00  0.00    -0.160 C  
HETATM   28  C   UNL     1      -9.544  10.292  64.115  1.00  0.00    -0.376 C  
HETATM   29  O   UNL     1      -7.189  10.505  63.847  1.00  0.00    -0.030 OA 
ENDBRANCH  17  27
TORSDOF 3
ENDMDL
MODEL       50
REMARK 921   NORMALIZED FREE ENERGY PREDICTED BY IDOCK:   -4.46 KCAL/MOL
REMARK 922        TOTAL FREE ENERGY PREDICTED BY IDOCK:   -5.73 KCAL/MOL
REMARK 923 INTER-LIGAND FREE ENERGY PREDICTED BY IDOCK:   -4.85 KCAL/MOL
REMARK 924 INTRA-LIGAND FREE ENERGY PREDICTED BY IDOCK:   -0.87 KCAL/MOL
REMARK 927      BINDING AFFINITY PREDICTED BY RF-SCORE:    0.00 PKD
ROOT
HETATM    1  C   UNL     1     -11.294   6.330  71.711  1.00  0.00    -0.346 C  
HETATM    2  C   UNL     1     -12.369   6.767  70.879  1.00  0.00    -0.336 C  
HETATM    3  C   UNL     1     -11.154   7.560  70.397  1.00  0.00    -0.277 C  
HETATM    4  C   UNL     1      -9.512   7.866  70.412  1.00  0.00    -0.163 C  
HETATM    5  C   UNL     1      -9.432   9.216  71.186  1.00  0.00    -0.331 C  
HETATM    6  C   UNL     1      -8.962   6.504  70.877  1.00  0.00    -0.147 C  
HETATM    7  C   UNL     1      -8.921   6.342  72.218  1.00  0.00    -0.136 C  
HETATM    8  C   UNL     1      -9.309   5.518  69.756  1.00  0.00    -0.142 C  
HETATM    9 CL   UNL     1      -9.673   3.864  70.116  1.00  0.00    -0.269 Cl 
HETATM   10  C   UNL     1      -9.469   5.929  68.470  1.00  0.00    -0.134 C  
HETATM   11  C   UNL     1     -10.314   6.697  72.733  1.00  0.00    -0.203 C  
HETATM   12  C   UNL     1      -9.011   7.300  67.963  1.00  0.00    -0.131 C  
HETATM   13  O   UNL     1     -10.568   7.222  73.803  1.00  0.00    -0.364 OA 
HETATM   14  C   UNL     1      -7.948   7.076  66.834  1.00  0.00    -0.115 C  
HETATM   15  C   UNL     1      -8.702   6.988  65.486  1.00  0.00    -0.043 C  
HETATM   16  C   UNL     1      -8.156   8.095  64.609  1.00  0.00    -0.148 C  
HETATM   17  C   UNL     1      -7.503   9.111  65.566  1.00  0.00    -0.089 C  
HETATM   18  C   UNL     1      -8.475   7.991  69.186  1.00  0.00    -0.136 C  
HETATM   19  C   UNL     1      -6.414   8.829  67.958  1.00  0.00    -0.057 C  
HETATM   20  C   UNL     1      -6.832   8.167  66.612  1.00  0.00    -0.068 C  
HETATM   21  C   UNL     1      -7.541   9.192  68.959  1.00  0.00    -0.074 C  
HETATM   22  C   UNL     1      -5.541   7.503  66.034  1.00  0.00    -0.032 C  
ENDROOT
BRANCH  17  23
HETATM   23  O   UNL     1      -8.478   9.802  66.377  1.00  0.00    -0.122 OA 
BRANCH  23  24
HETATM   24  C   UNL     1      -9.537  10.430  65.827  1.00  0.00    -0.216 C  
HETATM   25  O   UNL     1      -9.526  11.015  64.750  1.00  0.00    -0.215 OA 
HETATM   26  C   UNL     1     -10.718  10.315  66.742  1.00  0.00    -0.216 C  
ENDBRANCH  23  24
ENDBRANCH  17  23
BRANCH  17  27
HETATM   27  C   UNL     1      -6.569  10.113  64.849  1.00  0.00    -0.127 C  
HETATM   28  C   UNL     1      -6.347   9.997  63.347  1.00  0.00    -0.136 C  
HETATM   29  O   UNL     1      -6.010  11.029  65.466  1.00  0.00    -0.080 OA 
ENDBRANCH  17  27
TORSDOF 3
ENDMDL
MODEL       51
REMARK 921   NORMALIZED FREE ENERGY PREDICTED BY IDOCK:   -4.45 KCAL/MOL
REMARK 922        TOTAL FREE ENERGY PREDICTED BY IDOCK:   -5.71 KCAL/MOL
REMARK 923 INTER-LIGAND FREE ENERGY PREDICTED BY IDOCK:   -5.09 KCAL/MOL
REMARK 924 INTRA-LIGAND FREE ENERGY PREDICTED BY IDOCK:   -0.62 KCAL/MOL
REMARK 927      BINDING AFFINITY PREDICTED BY RF-SCORE:    0.00 PKD
ROOT
HETATM    1  C   UNL     1     -12.394   7.756  71.919  1.00  0.00    -0.342 C  
HETATM    2  C   UNL     1     -13.296   6.980  71.129  1.00  0.00    -0.188 C  
HETATM    3  C   UNL     1     -11.976   6.952  70.358  1.00  0.00    -0.312 C  
HETATM    4  C   UNL     1     -10.343   7.284  70.249  1.00  0.00    -0.219 C  
HETATM    5  C   UNL     1     -10.310   8.463  69.231  1.00  0.00    -0.220 C  
HETATM    6  C   UNL     1      -9.953   7.342  71.739  1.00  0.00    -0.192 C  
HETATM    7  C   UNL     1     -10.136   8.548  72.321  1.00  0.00    -0.386 C  
HETATM    8  C   UNL     1     -10.172   5.924  72.276  1.00  0.00    -0.189 C  
HETATM    9 CL   UNL     1     -10.683   5.667  73.909  1.00  0.00    -0.278 Cl 
HETATM   10  C   UNL     1     -10.101   4.836  71.463  1.00  0.00    -0.260 C  
HETATM   11  C   UNL     1     -11.571   8.962  72.001  1.00  0.00    -0.364 C  
HETATM   12  C   UNL     1      -9.490   4.874  70.059  1.00  0.00    -0.234 C  
HETATM   13  O   UNL     1     -11.963  10.102  71.819  1.00  0.00    -0.319 OA 
HETATM   14  C   UNL     1      -8.275   3.887  70.024  1.00  0.00    -0.071 C  
HETATM   15  C   UNL     1      -8.808   2.498  69.599  1.00  0.00    -0.145 C  
HETATM   16  C   UNL     1      -8.066   2.115  68.336  1.00  0.00    -0.068 C  
HETATM   17  C   UNL     1      -7.517   3.430  67.752  1.00  0.00    -0.058 C  
HETATM   18  C   UNL     1      -9.117   6.317  69.852  1.00  0.00    -0.145 C  
HETATM   19  C   UNL     1      -6.843   5.718  68.892  1.00  0.00    -0.066 C  
HETATM   20  C   UNL     1      -7.077   4.186  69.044  1.00  0.00    -0.051 C  
HETATM   21  C   UNL     1      -8.092   6.624  68.747  1.00  0.00    -0.119 C  
HETATM   22  C   UNL     1      -5.750   3.598  69.624  1.00  0.00    -0.018 C  
ENDROOT
BRANCH  17  23
HETATM   23  O   UNL     1      -8.567   4.288  67.255  1.00  0.00    -0.103 OA 
BRANCH  23  24
HETATM   24  C   UNL     1      -9.418   3.876  66.293  1.00  0.00    -0.188 C  
HETATM   25  O   UNL     1      -9.276   2.867  65.612  1.00  0.00    -0.150 OA 
HETATM   26  C   UNL     1     -10.552   4.850  66.176  1.00  0.00    -0.322 C  
ENDBRANCH  23  24
ENDBRANCH  17  23
BRANCH  17  27
HETATM   27  C   UNL     1      -6.424   3.215  66.679  1.00  0.00    -0.036 C  
HETATM   28  C   UNL     1      -6.042   1.801  66.264  1.00  0.00    -0.022 C  
HETATM   29  O   UNL     1      -5.863   4.170  66.128  1.00  0.00    -0.021 OA 
ENDBRANCH  17  27
TORSDOF 3
ENDMDL
MODEL       52
REMARK 921   NORMALIZED FREE ENERGY PREDICTED BY IDOCK:   -4.44 KCAL/MOL
REMARK 922        TOTAL FREE ENERGY PREDICTED BY IDOCK:   -5.70 KCAL/MOL
REMARK 923 INTER-LIGAND FREE ENERGY PREDICTED BY IDOCK:   -5.10 KCAL/MOL
REMARK 924 INTRA-LIGAND FREE ENERGY PREDICTED BY IDOCK:   -0.60 KCAL/MOL
REMARK 927      BINDING AFFINITY PREDICTED BY RF-SCORE:    0.00 PKD
ROOT
HETATM    1  C   UNL     1     -10.054   4.356  72.896  1.00  0.00    -0.214 C  
HETATM    2  C   UNL     1     -11.341   4.971  72.959  1.00  0.00    -0.374 C  
HETATM    3  C   UNL     1     -10.432   6.029  72.333  1.00  0.00    -0.234 C  
HETATM    4  C   UNL     1      -8.966   6.491  71.679  1.00  0.00    -0.143 C  
HETATM    5  C   UNL     1      -8.372   7.395  72.801  1.00  0.00    -0.137 C  
HETATM    6  C   UNL     1      -8.415   5.134  71.201  1.00  0.00    -0.123 C  
HETATM    7  C   UNL     1      -7.747   4.434  72.145  1.00  0.00    -0.085 C  
HETATM    8  C   UNL     1      -9.369   4.671  70.094  1.00  0.00    -0.144 C  
HETATM    9 CL   UNL     1      -9.693   2.988  69.854  1.00  0.00    -0.111 Cl 
HETATM   10  C   UNL     1     -10.085   5.560  69.354  1.00  0.00    -0.306 C  
HETATM   11  C   UNL     1      -8.667   4.376  73.362  1.00  0.00    -0.099 C  
HETATM   12  C   UNL     1      -9.781   7.061  69.317  1.00  0.00    -0.158 C  
HETATM   13  O   UNL     1      -8.311   4.373  74.528  1.00  0.00    -0.090 OA 
HETATM   14  C   UNL     1      -9.430   7.454  67.842  1.00  0.00    -0.150 C  
HETATM   15  C   UNL     1     -10.748   7.848  67.133  1.00  0.00    -0.306 C  
HETATM   16  C   UNL     1     -10.576   9.275  66.658  1.00  0.00    -0.161 C  
HETATM   17  C   UNL     1      -9.433   9.869  67.503  1.00  0.00    -0.151 C  
HETATM   18  C   UNL     1      -8.646   7.237  70.288  1.00  0.00    -0.142 C  
HETATM   19  C   UNL     1      -7.360   8.746  68.699  1.00  0.00    -0.080 C  
HETATM   20  C   UNL     1      -8.449   8.661  67.588  1.00  0.00    -0.125 C  
HETATM   21  C   UNL     1      -7.813   8.524  70.165  1.00  0.00    -0.099 C  
HETATM   22  C   UNL     1      -7.682   8.455  66.242  1.00  0.00    -0.094 C  
ENDROOT
BRANCH  17  23
HETATM   23  O   UNL     1      -9.809  10.039  68.887  1.00  0.00    -0.168 OA 
BRANCH  23  24
HETATM   24  C   UNL     1     -10.811  10.865  69.249  1.00  0.00    -0.241 C  
HETATM   25  O   UNL     1     -11.172  11.853  68.620  1.00  0.00    -0.217 OA 
HETATM   26  C   UNL     1     -11.401  10.399  70.546  1.00  0.00    -0.424 C  
ENDBRANCH  23  24
ENDBRANCH  17  23
BRANCH  17  27
HETATM   27  C   UNL     1      -8.858  11.181  66.920  1.00  0.00    -0.157 C  
HETATM   28  C   UNL     1      -7.856  11.992  67.730  1.00  0.00    -0.145 C  
HETATM   29  O   UNL     1      -9.177  11.582  65.794  1.00  0.00    -0.223 OA 
ENDBRANCH  17  27
TORSDOF 3
ENDMDL
MODEL       53
REMARK 921   NORMALIZED FREE ENERGY PREDICTED BY IDOCK:   -4.38 KCAL/MOL
REMARK 922        TOTAL FREE ENERGY PREDICTED BY IDOCK:   -5.63 KCAL/MOL
REMARK 923 INTER-LIGAND FREE ENERGY PREDICTED BY IDOCK:   -4.98 KCAL/MOL
REMARK 924 INTRA-LIGAND FREE ENERGY PREDICTED BY IDOCK:   -0.66 KCAL/MOL
REMARK 927      BINDING AFFINITY PREDICTED BY RF-SCORE:    0.00 PKD
ROOT
HETATM    1  C   UNL     1      -9.702   4.239  66.546  1.00  0.00    -0.236 C  
HETATM    2  C   UNL     1     -10.868   4.609  65.810  1.00  0.00    -0.077 C  
HETATM    3  C   UNL     1     -10.537   5.834  66.661  1.00  0.00    -0.347 C  
HETATM    4  C   UNL     1      -9.518   6.660  67.697  1.00  0.00    -0.129 C  
HETATM    5  C   UNL     1     -10.282   6.572  69.053  1.00  0.00    -0.204 C  
HETATM    6  C   UNL     1      -8.163   6.009  67.360  1.00  0.00    -0.106 C  
HETATM    7  C   UNL     1      -7.899   4.873  68.042  1.00  0.00    -0.083 C  
HETATM    8  C   UNL     1      -7.872   6.398  65.907  1.00  0.00    -0.102 C  
HETATM    9 CL   UNL     1      -7.012   5.322  64.859  1.00  0.00    -0.052 Cl 
HETATM   10  C   UNL     1      -8.384   7.532  65.357  1.00  0.00    -0.129 C  
HETATM   11  C   UNL     1      -9.121   3.975  67.862  1.00  0.00    -0.141 C  
HETATM   12  C   UNL     1      -9.001   8.663  66.185  1.00  0.00    -0.221 C  
HETATM   13  O   UNL     1      -9.558   3.188  68.684  1.00  0.00    -0.164 OA 
HETATM   14  C   UNL     1      -8.168   9.966  65.933  1.00  0.00    -0.124 C  
HETATM   15  C   UNL     1      -8.797  10.701  64.724  1.00  0.00    -0.196 C  
HETATM   16  C   UNL     1      -9.207  12.073  65.215  1.00  0.00     0.150 C  
HETATM   17  C   UNL     1      -9.306  11.963  66.748  1.00  0.00    -0.201 C  
HETATM   18  C   UNL     1      -8.946   8.162  67.602  1.00  0.00    -0.135 C  
HETATM   19  C   UNL     1      -8.087  10.385  68.484  1.00  0.00    -0.116 C  
HETATM   20  C   UNL     1      -8.084  11.049  67.075  1.00  0.00    -0.136 C  
HETATM   21  C   UNL     1      -9.071   9.210  68.721  1.00  0.00    -0.136 C  
HETATM   22  C   UNL     1      -6.739  11.838  66.968  1.00  0.00    -0.139 C  
ENDROOT
BRANCH  17  23
HETATM   23  O   UNL     1     -10.412  11.134  67.166  1.00  0.00    -0.209 OA 
BRANCH  23  24
HETATM   24  C   UNL     1     -11.643  11.646  67.364  1.00  0.00    -0.254 C  
HETATM   25  O   UNL     1     -12.275  12.298  66.540  1.00  0.00    -0.588 OA 
HETATM   26  C   UNL     1     -12.110  11.310  68.748  1.00  0.00    -0.258 C  
ENDBRANCH  23  24
ENDBRANCH  17  23
BRANCH  17  27
HETATM   27  C   UNL     1      -9.344  13.336  67.459  1.00  0.00    -0.218 C  
HETATM   28  C   UNL     1      -9.342  14.615  66.633  1.00  0.00    -0.293 C  
HETATM   29  O   UNL     1      -9.399  13.423  68.692  1.00  0.00    -0.133 OA 
ENDBRANCH  17  27
TORSDOF 3
ENDMDL
MODEL       54
REMARK 921   NORMALIZED FREE ENERGY PREDICTED BY IDOCK:   -4.19 KCAL/MOL
REMARK 922        TOTAL FREE ENERGY PREDICTED BY IDOCK:   -5.41 KCAL/MOL
REMARK 923 INTER-LIGAND FREE ENERGY PREDICTED BY IDOCK:   -4.68 KCAL/MOL
REMARK 924 INTRA-LIGAND FREE ENERGY PREDICTED BY IDOCK:   -0.73 KCAL/MOL
REMARK 927      BINDING AFFINITY PREDICTED BY RF-SCORE:    0.00 PKD
ROOT
HETATM    1  C   UNL     1      -7.488   6.976  74.439  1.00  0.00    -0.124 C  
HETATM    2  C   UNL     1      -7.445   8.399  74.554  1.00  0.00    -0.266 C  
HETATM    3  C   UNL     1      -7.298   8.122  73.058  1.00  0.00    -0.161 C  
HETATM    4  C   UNL     1      -7.320   7.071  71.759  1.00  0.00    -0.086 C  
HETATM    5  C   UNL     1      -5.809   6.956  71.399  1.00  0.00    -0.036 C  
HETATM    6  C   UNL     1      -8.225   5.948  72.302  1.00  0.00    -0.111 C  
HETATM    7  C   UNL     1      -7.580   5.006  73.025  1.00  0.00    -0.093 C  
HETATM    8  C   UNL     1      -9.604   6.590  72.492  1.00  0.00    -0.151 C  
HETATM    9 CL   UNL     1     -10.650   6.075  73.771  1.00  0.00    -0.278 Cl 
HETATM   10  C   UNL     1      -9.999   7.661  71.752  1.00  0.00    -0.208 C  
HETATM   11  C   UNL     1      -6.765   5.758  74.074  1.00  0.00    -0.080 C  
HETATM   12  C   UNL     1      -9.280   8.113  70.478  1.00  0.00    -0.157 C  
HETATM   13  O   UNL     1      -5.682   5.418  74.518  1.00  0.00    -0.044 OA 
HETATM   14  C   UNL     1     -10.292   8.027  69.285  1.00  0.00    -0.224 C  
HETATM   15  C   UNL     1     -11.022   9.389  69.187  1.00  0.00    -0.114 C  
HETATM   16  C   UNL     1     -10.743   9.932  67.801  1.00  0.00    -0.332 C  
HETATM   17  C   UNL     1      -9.487   9.193  67.301  1.00  0.00    -0.148 C  
HETATM   18  C   UNL     1      -8.107   7.179  70.358  1.00  0.00    -0.118 C  
HETATM   19  C   UNL     1      -8.499   6.809  67.875  1.00  0.00    -0.119 C  
HETATM   20  C   UNL     1      -9.740   7.749  67.835  1.00  0.00    -0.181 C  
HETATM   21  C   UNL     1      -7.440   7.066  68.977  1.00  0.00    -0.095 C  
HETATM   22  C   UNL     1     -10.821   7.009  66.983  1.00  0.00    -0.413 C  
ENDROOT
BRANCH  17  23
HETATM   23  O   UNL     1      -8.302   9.573  68.034  1.00  0.00    -0.117 OA 
BRANCH  23  24
HETATM   24  C   UNL     1      -7.754  10.798  67.905  1.00  0.00    -0.100 C  
HETATM   25  O   UNL     1      -8.355  11.857  68.050  1.00  0.00    -0.143 OA 
HETATM   26  C   UNL     1      -6.307  10.665  67.541  1.00  0.00    -0.057 C  
ENDBRANCH  23  24
ENDBRANCH  17  23
BRANCH  17  27
HETATM   27  C   UNL     1      -9.262   9.330  65.777  1.00  0.00    -0.224 C  
HETATM   28  C   UNL     1     -10.159  10.251  64.961  1.00  0.00    -0.353 C  
HETATM   29  O   UNL     1      -8.351   8.722  65.202  1.00  0.00    -0.148 OA 
ENDBRANCH  17  27
TORSDOF 3
ENDMDL
MODEL       55
REMARK 921   NORMALIZED FREE ENERGY PREDICTED BY IDOCK:   -4.18 KCAL/MOL
REMARK 922        TOTAL FREE ENERGY PREDICTED BY IDOCK:   -5.40 KCAL/MOL
REMARK 923 INTER-LIGAND FREE ENERGY PREDICTED BY IDOCK:   -4.65 KCAL/MOL
REMARK 924 INTRA-LIGAND FREE ENERGY PREDICTED BY IDOCK:   -0.74 KCAL/MOL
REMARK 927      BINDING AFFINITY PREDICTED BY RF-SCORE:    0.00 PKD
ROOT
HETATM    1  C   UNL     1      -9.932   7.514  72.996  1.00  0.00    -0.321 C  
HETATM    2  C   UNL     1      -8.664   8.127  72.762  1.00  0.00    -0.281 C  
HETATM    3  C   UNL     1      -8.704   6.932  71.810  1.00  0.00    -0.120 C  
HETATM    4  C   UNL     1      -9.525   5.670  71.085  1.00  0.00    -0.191 C  
HETATM    5  C   UNL     1      -8.905   4.424  71.787  1.00  0.00    -0.145 C  
HETATM    6  C   UNL     1     -10.981   6.161  71.199  1.00  0.00    -0.343 C  
HETATM    7  C   UNL     1     -11.588   5.856  72.367  1.00  0.00    -0.341 C  
HETATM    8  C   UNL     1     -11.059   7.417  70.324  1.00  0.00    -0.258 C  
HETATM    9 CL   UNL     1     -12.109   8.725  70.749  1.00  0.00    -0.176 Cl 
HETATM   10  C   UNL     1     -10.223   7.602  69.268  1.00  0.00    -0.210 C  
HETATM   11  C   UNL     1     -10.648   6.330  73.472  1.00  0.00    -0.269 C  
HETATM   12  C   UNL     1      -9.377   6.480  68.658  1.00  0.00    -0.125 C  
HETATM   13  O   UNL     1     -10.496   5.800  74.559  1.00  0.00    -0.252 OA 
HETATM   14  C   UNL     1      -9.805   6.300  67.162  1.00  0.00    -0.173 C  
HETATM   15  C   UNL     1      -8.922   7.238  66.303  1.00  0.00    -0.185 C  
HETATM   16  C   UNL     1      -8.187   6.358  65.315  1.00  0.00    -0.137 C  
HETATM   17  C   UNL     1      -8.222   4.935  65.905  1.00  0.00    -0.113 C  
HETATM   18  C   UNL     1      -9.659   5.285  69.527  1.00  0.00    -0.213 C  
HETATM   19  C   UNL     1      -9.936   3.743  67.527  1.00  0.00     0.141 C  
HETATM   20  C   UNL     1      -9.666   4.879  66.495  1.00  0.00    -0.199 C  
HETATM   21  C   UNL     1      -9.327   3.901  68.943  1.00  0.00    -0.231 C  
HETATM   22  C   UNL     1     -10.735   4.708  65.369  1.00  0.00    -0.143 C  
ENDROOT
BRANCH  17  23
HETATM   23  O   UNL     1      -7.414   4.818  67.096  1.00  0.00    -0.083 OA 
BRANCH  23  24
HETATM   24  C   UNL     1      -6.067   4.805  67.036  1.00  0.00    -0.031 C  
HETATM   25  O   UNL     1      -5.379   5.647  66.470  1.00  0.00    -0.011 OA 
HETATM   26  C   UNL     1      -5.545   3.596  67.752  1.00  0.00    -0.021 C  
ENDBRANCH  23  24
ENDBRANCH  17  23
BRANCH  17  27
HETATM   27  C   UNL     1      -7.859   3.838  64.879  1.00  0.00    -0.085 C  
HETATM   28  C   UNL     1      -7.392   4.233  63.484  1.00  0.00    -0.054 C  
HETATM   29  O   UNL     1      -7.916   2.637  65.170  1.00  0.00    -0.080 OA 
ENDBRANCH  17  27
TORSDOF 3
ENDMDL
MODEL       56
REMARK 921   NORMALIZED FREE ENERGY PREDICTED BY IDOCK:   -4.12 KCAL/MOL
REMARK 922        TOTAL FREE ENERGY PREDICTED BY IDOCK:   -5.32 KCAL/MOL
REMARK 923 INTER-LIGAND FREE ENERGY PREDICTED BY IDOCK:   -4.79 KCAL/MOL
REMARK 924 INTRA-LIGAND FREE ENERGY PREDICTED BY IDOCK:   -0.53 KCAL/MOL
REMARK 927      BINDING AFFINITY PREDICTED BY RF-SCORE:    0.00 PKD
ROOT
HETATM    1  C   UNL     1     -11.920  14.371  66.173  1.00  0.00    -0.381 C  
HETATM    2  C   UNL     1     -12.960  13.399  66.278  1.00  0.00     0.452 C  
HETATM    3  C   UNL     1     -11.691  12.588  66.016  1.00  0.00    -0.472 C  
HETATM    4  C   UNL     1     -10.031  12.486  65.858  1.00  0.00    -0.269 C  
HETATM    5  C   UNL     1      -9.855  12.277  64.324  1.00  0.00    -0.153 C  
HETATM    6  C   UNL     1      -9.580  13.710  66.678  1.00  0.00    -0.289 C  
HETATM    7  C   UNL     1      -9.552  14.871  65.987  1.00  0.00    -0.346 C  
HETATM    8  C   UNL     1      -9.997  13.411  68.122  1.00  0.00    -0.237 C  
HETATM    9 CL   UNL     1     -10.479  14.689  69.186  1.00  0.00    -0.245 Cl 
HETATM   10  C   UNL     1     -10.126  12.135  68.577  1.00  0.00    -0.192 C  
HETATM   11  C   UNL     1     -10.917  14.998  65.313  1.00  0.00    -0.382 C  
HETATM   12  C   UNL     1      -9.570  10.918  67.832  1.00  0.00    -0.175 C  
HETATM   13  O   UNL     1     -11.134  15.513  64.229  1.00  0.00    -0.229 OA 
HETATM   14  C   UNL     1      -8.525  10.210  68.759  1.00  0.00    -0.131 C  
HETATM   15  C   UNL     1      -9.283   9.164  69.612  1.00  0.00    -0.172 C  
HETATM   16  C   UNL     1      -8.658   7.819  69.307  1.00  0.00    -0.138 C  
HETATM   17  C   UNL     1      -7.934   7.984  67.957  1.00  0.00    -0.128 C  
HETATM   18  C   UNL     1      -8.987  11.487  66.568  1.00  0.00    -0.190 C  
HETATM   19  C   UNL     1      -6.870  10.096  66.775  1.00  0.00    -0.086 C  
HETATM   20  C   UNL     1      -7.334   9.417  68.098  1.00  0.00    -0.078 C  
HETATM   21  C   UNL     1      -7.969  10.615  65.813  1.00  0.00    -0.152 C  
HETATM   22  C   UNL     1      -6.093   9.424  69.048  1.00  0.00    -0.042 C  
ENDROOT
BRANCH  17  23
HETATM   23  O   UNL     1      -8.857   8.160  66.861  1.00  0.00    -0.124 OA 
BRANCH  23  24
HETATM   24  C   UNL     1      -9.498   7.113  66.303  1.00  0.00    -0.067 C  
HETATM   25  O   UNL     1      -9.029   6.378  65.442  1.00  0.00    -0.034 OA 
HETATM   26  C   UNL     1     -10.874   6.999  66.886  1.00  0.00    -0.350 C  
ENDBRANCH  23  24
ENDBRANCH  17  23
BRANCH  17  27
HETATM   27  C   UNL     1      -6.930   6.847  67.658  1.00  0.00    -0.083 C  
HETATM   28  C   UNL     1      -6.961   5.573  68.492  1.00  0.00    -0.064 C  
HETATM   29  O   UNL     1      -6.109   6.937  66.737  1.00  0.00    -0.034 OA 
ENDBRANCH  17  27
TORSDOF 3
ENDMDL
MODEL       57
REMARK 921   NORMALIZED FREE ENERGY PREDICTED BY IDOCK:   -4.06 KCAL/MOL
REMARK 922        TOTAL FREE ENERGY PREDICTED BY IDOCK:   -5.26 KCAL/MOL
REMARK 923 INTER-LIGAND FREE ENERGY PREDICTED BY IDOCK:   -4.69 KCAL/MOL
REMARK 924 INTRA-LIGAND FREE ENERGY PREDICTED BY IDOCK:   -0.56 KCAL/MOL
REMARK 927      BINDING AFFINITY PREDICTED BY RF-SCORE:    0.00 PKD
ROOT
HETATM    1  C   UNL     1      -9.719  15.991  68.635  1.00  0.00    -0.217 C  
HETATM    2  C   UNL     1     -10.085  15.352  69.858  1.00  0.00    -0.253 C  
HETATM    3  C   UNL     1     -10.072  14.231  68.819  1.00  0.00    -0.217 C  
HETATM    4  C   UNL     1      -9.734  13.669  67.283  1.00  0.00    -0.243 C  
HETATM    5  C   UNL     1     -11.155  13.517  66.664  1.00  0.00    -0.309 C  
HETATM    6  C   UNL     1      -8.638  14.659  66.841  1.00  0.00    -0.233 C  
HETATM    7  C   UNL     1      -9.102  15.804  66.295  1.00  0.00    -0.373 C  
HETATM    8  C   UNL     1      -7.451  14.400  67.775  1.00  0.00    -0.170 C  
HETATM    9 CL   UNL     1      -6.400  15.691  68.248  1.00  0.00    -0.108 Cl 
HETATM   10  C   UNL     1      -7.258  13.188  68.362  1.00  0.00    -0.107 C  
HETATM   11  C   UNL     1     -10.129  16.359  67.280  1.00  0.00    -0.270 C  
HETATM   12  C   UNL     1      -7.977  11.912  67.913  1.00  0.00    -0.144 C  
HETATM   13  O   UNL     1     -11.135  16.982  66.988  1.00  0.00    -0.009 OA 
HETATM   14  C   UNL     1      -6.897  10.877  67.447  1.00  0.00    -0.079 C  
HETATM   15  C   UNL     1      -6.484  10.040  68.681  1.00  0.00    -0.049 C  
HETATM   16  C   UNL     1      -6.788   8.595  68.347  1.00  0.00    -0.065 C  
HETATM   17  C   UNL     1      -7.814   8.631  67.198  1.00  0.00    -0.097 C  
HETATM   18  C   UNL     1      -8.902  12.370  66.819  1.00  0.00    -0.189 C  
HETATM   19  C   UNL     1      -8.281  10.422  65.311  1.00  0.00    -0.162 C  
HETATM   20  C   UNL     1      -7.280   9.821  66.342  1.00  0.00    -0.095 C  
HETATM   21  C   UNL     1      -9.439  11.294  65.860  1.00  0.00    -0.247 C  
HETATM   22  C   UNL     1      -6.010   9.412  65.528  1.00  0.00    -0.059 C  
ENDROOT
BRANCH  17  23
HETATM   23  O   UNL     1      -9.097   9.134  67.629  1.00  0.00    -0.123 OA 
BRANCH  23  24
HETATM   24  C   UNL     1      -9.954   8.368  68.335  1.00  0.00    -0.187 C  
HETATM   25  O   UNL     1     -10.765   7.587  67.849  1.00  0.00    -0.202 OA 
HETATM   26  C   UNL     1      -9.772   8.632  69.799  1.00  0.00    -0.176 C  
ENDBRANCH  23  24
ENDBRANCH  17  23
BRANCH  17  27
HETATM   27  C   UNL     1      -7.965   7.276  66.469  1.00  0.00    -0.115 C  
HETATM   28  C   UNL     1      -7.345   6.022  67.070  1.00  0.00    -0.076 C  
HETATM   29  O   UNL     1      -8.602   7.179  65.413  1.00  0.00    -0.123 OA 
ENDBRANCH  17  27
TORSDOF 3
ENDMDL
MODEL       58
REMARK 921   NORMALIZED FREE ENERGY PREDICTED BY IDOCK:   -3.99 KCAL/MOL
REMARK 922        TOTAL FREE ENERGY PREDICTED BY IDOCK:   -5.17 KCAL/MOL
REMARK 923 INTER-LIGAND FREE ENERGY PREDICTED BY IDOCK:   -4.56 KCAL/MOL
REMARK 924 INTRA-LIGAND FREE ENERGY PREDICTED BY IDOCK:   -0.61 KCAL/MOL
REMARK 927      BINDING AFFINITY PREDICTED BY RF-SCORE:    0.00 PKD
ROOT
HETATM    1  C   UNL     1      -9.484   2.068  72.998  1.00  0.00    -0.112 C  
HETATM    2  C   UNL     1     -10.752   2.618  73.356  1.00  0.00    -0.280 C  
HETATM    3  C   UNL     1      -9.912   3.819  72.924  1.00  0.00    -0.207 C  
HETATM    4  C   UNL     1      -8.525   4.465  72.252  1.00  0.00    -0.110 C  
HETATM    5  C   UNL     1      -7.803   5.067  73.494  1.00  0.00    -0.099 C  
HETATM    6  C   UNL     1      -8.039   3.285  71.387  1.00  0.00    -0.061 C  
HETATM    7  C   UNL     1      -7.276   2.384  72.042  1.00  0.00    -0.039 C  
HETATM    8  C   UNL     1      -9.114   3.098  70.311  1.00  0.00    -0.123 C  
HETATM    9 CL   UNL     1      -9.475   1.523  69.688  1.00  0.00    -0.156 Cl 
HETATM   10  C   UNL     1      -9.903   4.129  69.904  1.00  0.00    -0.233 C  
HETATM   11  C   UNL     1      -8.054   2.000  73.298  1.00  0.00    -0.050 C  
HETATM   12  C   UNL     1      -9.595   5.596  70.216  1.00  0.00    -0.216 C  
HETATM   13  O   UNL     1      -7.570   1.709  74.379  1.00  0.00    -0.031 OA 
HETATM   14  C   UNL     1      -9.409   6.358  68.861  1.00  0.00    -0.130 C  
HETATM   15  C   UNL     1     -10.795   6.890  68.424  1.00  0.00    -0.238 C  
HETATM   16  C   UNL     1     -10.668   8.394  68.312  1.00  0.00    -0.084 C  
HETATM   17  C   UNL     1      -9.433   8.779  69.149  1.00  0.00    -0.157 C  
HETATM   18  C   UNL     1      -8.358   5.545  71.070  1.00  0.00    -0.121 C  
HETATM   19  C   UNL     1      -7.247   7.436  69.785  1.00  0.00    -0.081 C  
HETATM   20  C   UNL     1      -8.454   7.611  68.816  1.00  0.00    -0.129 C  
HETATM   21  C   UNL     1      -7.535   6.839  71.187  1.00  0.00    -0.087 C  
HETATM   22  C   UNL     1      -7.844   7.770  67.386  1.00  0.00    -0.118 C  
ENDROOT
BRANCH  17  23
HETATM   23  O   UNL     1      -9.651   8.585  70.563  1.00  0.00    -0.162 OA 
BRANCH  23  24
HETATM   24  C   UNL     1     -10.707   9.134  71.197  1.00  0.00    -0.310 C  
HETATM   25  O   UNL     1     -11.262  10.176  70.867  1.00  0.00    -0.337 OA 
HETATM   26  C   UNL     1     -11.083   8.284  72.373  1.00  0.00    -0.447 C  
ENDBRANCH  23  24
ENDBRANCH  17  23
BRANCH  17  27
HETATM   27  C   UNL     1      -8.919  10.208  68.860  1.00  0.00    -0.155 C  
HETATM   28  C   UNL     1      -7.601  10.674  69.465  1.00  0.00    -0.128 C  
HETATM   29  O   UNL     1      -9.543  10.983  68.124  1.00  0.00    -0.160 OA 
ENDBRANCH  17  27
TORSDOF 3
ENDMDL
MODEL       59
REMARK 921   NORMALIZED FREE ENERGY PREDICTED BY IDOCK:   -3.92 KCAL/MOL
REMARK 922        TOTAL FREE ENERGY PREDICTED BY IDOCK:   -5.09 KCAL/MOL
REMARK 923 INTER-LIGAND FREE ENERGY PREDICTED BY IDOCK:   -4.20 KCAL/MOL
REMARK 924 INTRA-LIGAND FREE ENERGY PREDICTED BY IDOCK:   -0.90 KCAL/MOL
REMARK 927      BINDING AFFINITY PREDICTED BY RF-SCORE:    0.00 PKD
ROOT
HETATM    1  C   UNL     1      -8.405   3.386  69.638  1.00  0.00    -0.080 C  
HETATM    2  C   UNL     1      -9.725   3.624  70.126  1.00  0.00    -0.188 C  
HETATM    3  C   UNL     1      -9.077   5.006  70.060  1.00  0.00    -0.166 C  
HETATM    4  C   UNL     1      -7.818   6.008  69.611  1.00  0.00    -0.102 C  
HETATM    5  C   UNL     1      -7.148   6.333  70.979  1.00  0.00    -0.070 C  
HETATM    6  C   UNL     1      -7.199   5.203  68.451  1.00  0.00    -0.063 C  
HETATM    7  C   UNL     1      -6.295   4.273  68.831  1.00  0.00    -0.032 C  
HETATM    8  C   UNL     1      -8.271   5.172  67.356  1.00  0.00    -0.107 C  
HETATM    9 CL   UNL     1      -8.427   3.802  66.310  1.00  0.00    -0.108 Cl 
HETATM   10  C   UNL     1      -9.210   6.151  67.252  1.00  0.00    -0.117 C  
HETATM   11  C   UNL     1      -6.970   3.442  69.920  1.00  0.00    -0.041 C  
HETATM   12  C   UNL     1      -9.102   7.499  67.969  1.00  0.00    -0.131 C  
HETATM   13  O   UNL     1      -6.416   2.932  70.878  1.00  0.00    -0.022 OA 
HETATM   14  C   UNL     1      -9.069   8.631  66.887  1.00  0.00    -0.175 C  
HETATM   15  C   UNL     1     -10.530   9.059  66.606  1.00  0.00    -0.235 C  
HETATM   16  C   UNL     1     -10.619  10.536  66.926  1.00  0.00    -0.303 C  
HETATM   17  C   UNL     1      -9.425  10.843  67.849  1.00  0.00    -0.159 C  
HETATM   18  C   UNL     1      -7.843   7.390  68.785  1.00  0.00    -0.121 C  
HETATM   19  C   UNL     1      -7.052   9.705  68.098  1.00  0.00    -0.079 C  
HETATM   20  C   UNL     1      -8.302   9.970  67.208  1.00  0.00    -0.121 C  
HETATM   21  C   UNL     1      -7.207   8.703  69.271  1.00  0.00    -0.063 C  
HETATM   22  C   UNL     1      -7.767  10.611  65.887  1.00  0.00    -0.146 C  
ENDROOT
BRANCH  17  23
HETATM   23  O   UNL     1      -9.567  10.229  69.148  1.00  0.00    -0.196 OA 
BRANCH  23  24
HETATM   24  C   UNL     1     -10.697  10.363  69.873  1.00  0.00    -0.279 C  
HETATM   25  O   UNL     1     -11.309  11.412  70.036  1.00  0.00    -0.260 OA 
HETATM   26  C   UNL     1     -11.076   9.037  70.459  1.00  0.00    -0.297 C  
ENDBRANCH  23  24
ENDBRANCH  17  23
BRANCH  17  27
HETATM   27  C   UNL     1      -9.127  12.355  67.981  1.00  0.00    -0.195 C  
HETATM   28  C   UNL     1     -10.038  13.367  67.300  1.00  0.00    -0.238 C  
HETATM   29  O   UNL     1      -8.171  12.768  68.650  1.00  0.00    -0.102 OA 
ENDBRANCH  17  27
TORSDOF 3
ENDMDL
MODEL       60
REMARK 921   NORMALIZED FREE ENERGY PREDICTED BY IDOCK:   -3.90 KCAL/MOL
REMARK 922        TOTAL FREE ENERGY PREDICTED BY IDOCK:   -5.06 KCAL/MOL
REMARK 923 INTER-LIGAND FREE ENERGY PREDICTED BY IDOCK:   -4.18 KCAL/MOL
REMARK 924 INTRA-LIGAND FREE ENERGY PREDICTED BY IDOCK:   -0.88 KCAL/MOL
REMARK 927      BINDING AFFINITY PREDICTED BY RF-SCORE:    0.00 PKD
ROOT
HETATM    1  C   UNL     1     -11.063   6.820  71.484  1.00  0.00    -0.289 C  
HETATM    2  C   UNL     1     -12.157   6.603  70.593  1.00  0.00    -0.342 C  
HETATM    3  C   UNL     1     -10.910   6.487  69.717  1.00  0.00    -0.351 C  
HETATM    4  C   UNL     1      -9.250   6.403  69.544  1.00  0.00    -0.144 C  
HETATM    5  C   UNL     1      -8.907   7.798  68.941  1.00  0.00    -0.135 C  
HETATM    6  C   UNL     1      -8.836   5.872  70.931  1.00  0.00    -0.141 C  
HETATM    7  C   UNL     1      -8.667   6.828  71.871  1.00  0.00    -0.123 C  
HETATM    8  C   UNL     1      -9.433   4.464  71.025  1.00  0.00    -0.162 C  
HETATM    9 CL   UNL     1      -9.969   3.832  72.545  1.00  0.00    -0.218 Cl 
HETATM   10  C   UNL     1      -9.680   3.719  69.914  1.00  0.00    -0.200 C  
HETATM   11  C   UNL     1      -9.935   7.678  71.846  1.00  0.00    -0.176 C  
HETATM   12  C   UNL     1      -9.105   4.052  68.534  1.00  0.00    -0.189 C  
HETATM   13  O   UNL     1      -9.997   8.876  72.066  1.00  0.00    -0.329 OA 
HETATM   14  C   UNL     1      -8.213   2.850  68.071  1.00  0.00    -0.088 C  
HETATM   15  C   UNL     1      -9.118   1.862  67.298  1.00  0.00    -0.148 C  
HETATM   16  C   UNL     1      -8.533   1.732  65.908  1.00  0.00    -0.105 C  
HETATM   17  C   UNL     1      -7.649   2.976  65.702  1.00  0.00    -0.074 C  
HETATM   18  C   UNL     1      -8.349   5.335  68.744  1.00  0.00    -0.092 C  
HETATM   19  C   UNL     1      -6.346   4.514  67.413  1.00  0.00    -0.041 C  
HETATM   20  C   UNL     1      -6.995   3.131  67.110  1.00  0.00    -0.050 C  
HETATM   21  C   UNL     1      -7.297   5.708  67.686  1.00  0.00    -0.077 C  
HETATM   22  C   UNL     1      -5.876   2.066  67.339  1.00  0.00    -0.019 C  
ENDROOT
BRANCH  17  23
HETATM   23  O   UNL     1      -8.427   4.189  65.605  1.00  0.00    -0.109 OA 
BRANCH  23  24
HETATM   24  C   UNL     1      -9.528   4.261  64.830  1.00  0.00    -0.169 C  
HETATM   25  O   UNL     1      -9.582   3.931  63.651  1.00  0.00    -0.144 OA 
HETATM   26  C   UNL     1     -10.667   4.821  65.628  1.00  0.00    -0.188 C  
ENDBRANCH  23  24
ENDBRANCH  17  23
BRANCH  17  27
HETATM   27  C   UNL     1      -6.676   2.846  64.507  1.00  0.00    -0.039 C  
HETATM   28  C   UNL     1      -6.679   1.576  63.666  1.00  0.00    -0.025 C  
HETATM   29  O   UNL     1      -5.905   3.763  64.199  1.00  0.00    -0.014 OA 
ENDBRANCH  17  27
TORSDOF 3
ENDMDL
MODEL       61
REMARK 921   NORMALIZED FREE ENERGY PREDICTED BY IDOCK:   -3.87 KCAL/MOL
REMARK 922        TOTAL FREE ENERGY PREDICTED BY IDOCK:   -5.03 KCAL/MOL
REMARK 923 INTER-LIGAND FREE ENERGY PREDICTED BY IDOCK:   -4.16 KCAL/MOL
REMARK 924 INTRA-LIGAND FREE ENERGY PREDICTED BY IDOCK:   -0.86 KCAL/MOL
REMARK 927      BINDING AFFINITY PREDICTED BY RF-SCORE:    0.00 PKD
ROOT
HETATM    1  C   UNL     1      -7.670   9.633  63.018  1.00  0.00    -0.125 C  
HETATM    2  C   UNL     1      -8.492   8.605  62.465  1.00  0.00    -0.179 C  
HETATM    3  C   UNL     1      -7.960   8.020  63.773  1.00  0.00    -0.123 C  
HETATM    4  C   UNL     1      -7.140   8.186  65.219  1.00  0.00    -0.063 C  
HETATM    5  C   UNL     1      -5.816   7.413  64.941  1.00  0.00    -0.037 C  
HETATM    6  C   UNL     1      -7.287   9.700  65.470  1.00  0.00    -0.106 C  
HETATM    7  C   UNL     1      -6.344  10.462  64.873  1.00  0.00    -0.086 C  
HETATM    8  C   UNL     1      -8.786   9.937  65.678  1.00  0.00    -0.158 C  
HETATM    9 CL   UNL     1      -9.526  11.416  65.169  1.00  0.00    -0.243 Cl 
HETATM   10  C   UNL     1      -9.604   8.956  66.147  1.00  0.00    -0.335 C  
HETATM   11  C   UNL     1      -6.319  10.040  63.406  1.00  0.00    -0.136 C  
HETATM   12  C   UNL     1      -9.086   7.673  66.806  1.00  0.00    -0.181 C  
HETATM   13  O   UNL     1      -5.337  10.019  62.684  1.00  0.00    -0.087 OA 
HETATM   14  C   UNL     1      -9.634   7.618  68.272  1.00  0.00    -0.160 C  
HETATM   15  C   UNL     1     -10.995   6.882  68.239  1.00  0.00    -0.208 C  
HETATM   16  C   UNL     1     -10.860   5.678  69.146  1.00  0.00    -0.281 C  
HETATM   17  C   UNL     1      -9.348   5.418  69.285  1.00  0.00    -0.120 C  
HETATM   18  C   UNL     1      -7.589   7.783  66.712  1.00  0.00    -0.098 C  
HETATM   19  C   UNL     1      -7.261   7.033  69.117  1.00  0.00    -0.090 C  
HETATM   20  C   UNL     1      -8.789   6.873  69.374  1.00  0.00    -0.136 C  
HETATM   21  C   UNL     1      -6.761   6.895  67.656  1.00  0.00    -0.067 C  
HETATM   22  C   UNL     1      -9.063   7.503  70.777  1.00  0.00    -0.154 C  
ENDROOT
BRANCH  17  23
HETATM   23  O   UNL     1      -8.758   4.953  68.051  1.00  0.00    -0.102 OA 
BRANCH  23  24
HETATM   24  C   UNL     1      -9.263   3.897  67.382  1.00  0.00    -0.172 C  
HETATM   25  O   UNL     1      -9.528   2.809  67.881  1.00  0.00    -0.213 OA 
HETATM   26  C   UNL     1      -9.434   4.254  65.937  1.00  0.00    -0.176 C  
ENDBRANCH  23  24
ENDBRANCH  17  23
BRANCH  17  27
HETATM   27  C   UNL     1      -8.994   4.475  70.458  1.00  0.00    -0.105 C  
HETATM   28  C   UNL     1      -7.586   3.904  70.569  1.00  0.00    -0.044 C  
HETATM   29  O   UNL     1      -9.824   4.188  71.329  1.00  0.00    -0.178 OA 
ENDBRANCH  17  27
TORSDOF 3
ENDMDL
MODEL       62
REMARK 921   NORMALIZED FREE ENERGY PREDICTED BY IDOCK:   -3.86 KCAL/MOL
REMARK 922        TOTAL FREE ENERGY PREDICTED BY IDOCK:   -5.02 KCAL/MOL
REMARK 923 INTER-LIGAND FREE ENERGY PREDICTED BY IDOCK:   -4.17 KCAL/MOL
REMARK 924 INTRA-LIGAND FREE ENERGY PREDICTED BY IDOCK:   -0.85 KCAL/MOL
REMARK 927      BINDING AFFINITY PREDICTED BY RF-SCORE:    0.00 PKD
ROOT
HETATM    1  C   UNL     1      -9.743   5.121  71.907  1.00  0.00    -0.211 C  
HETATM    2  C   UNL     1      -9.507   3.855  71.289  1.00  0.00    -0.229 C  
HETATM    3  C   UNL     1      -9.714   4.825  70.127  1.00  0.00    -0.288 C  
HETATM    4  C   UNL     1      -9.904   6.377  69.537  1.00  0.00    -0.176 C  
HETATM    5  C   UNL     1     -11.411   6.399  69.140  1.00  0.00    -0.366 C  
HETATM    6  C   UNL     1      -9.233   7.202  70.653  1.00  0.00    -0.158 C  
HETATM    7  C   UNL     1     -10.046   7.518  71.684  1.00  0.00    -0.204 C  
HETATM    8  C   UNL     1      -7.754   6.800  70.626  1.00  0.00    -0.097 C  
HETATM    9 CL   UNL     1      -6.822   6.761  72.084  1.00  0.00    -0.062 Cl 
HETATM   10  C   UNL     1      -7.161   6.341  69.491  1.00  0.00    -0.078 C  
HETATM   11  C   UNL     1     -10.693   6.210  72.134  1.00  0.00    -0.236 C  
HETATM   12  C   UNL     1      -7.785   6.486  68.099  1.00  0.00    -0.105 C  
HETATM   13  O   UNL     1     -11.819   6.086  72.583  1.00  0.00    -0.237 OA 
HETATM   14  C   UNL     1      -6.815   7.338  67.213  1.00  0.00    -0.077 C  
HETATM   15  C   UNL     1      -5.834   6.365  66.516  1.00  0.00    -0.021 C  
HETATM   16  C   UNL     1      -6.009   6.565  65.026  1.00  0.00    -0.034 C  
HETATM   17  C   UNL     1      -7.387   7.228  64.845  1.00  0.00    -0.080 C  
HETATM   18  C   UNL     1      -9.118   7.134  68.352  1.00  0.00    -0.127 C  
HETATM   19  C   UNL     1      -8.819   8.778  66.438  1.00  0.00    -0.175 C  
HETATM   20  C   UNL     1      -7.418   8.217  66.051  1.00  0.00    -0.080 C  
HETATM   21  C   UNL     1      -9.802   7.818  67.157  1.00  0.00    -0.270 C  
HETATM   22  C   UNL     1      -6.508   9.460  65.792  1.00  0.00    -0.069 C  
ENDROOT
BRANCH  17  23
HETATM   23  O   UNL     1      -8.471   6.332  65.173  1.00  0.00    -0.145 OA 
BRANCH  23  24
HETATM   24  C   UNL     1      -8.511   5.070  64.701  1.00  0.00    -0.145 C  
HETATM   25  O   UNL     1      -8.186   4.731  63.569  1.00  0.00    -0.094 OA 
HETATM   26  C   UNL     1      -9.028   4.152  65.767  1.00  0.00    -0.129 C  
ENDBRANCH  23  24
ENDBRANCH  17  23
BRANCH  17  27
HETATM   27  C   UNL     1      -7.589   7.851  63.444  1.00  0.00    -0.130 C  
HETATM   28  C   UNL     1      -6.504   7.697  62.386  1.00  0.00    -0.072 C  
HETATM   29  O   UNL     1      -8.627   8.457  63.150  1.00  0.00    -0.077 OA 
ENDBRANCH  17  27
TORSDOF 3
ENDMDL
MODEL       63
REMARK 921   NORMALIZED FREE ENERGY PREDICTED BY IDOCK:   -3.79 KCAL/MOL
REMARK 922        TOTAL FREE ENERGY PREDICTED BY IDOCK:   -4.94 KCAL/MOL
REMARK 923 INTER-LIGAND FREE ENERGY PREDICTED BY IDOCK:   -4.24 KCAL/MOL
REMARK 924 INTRA-LIGAND FREE ENERGY PREDICTED BY IDOCK:   -0.69 KCAL/MOL
REMARK 927      BINDING AFFINITY PREDICTED BY RF-SCORE:    0.00 PKD
ROOT
HETATM    1  C   UNL     1     -10.804  12.316  66.855  1.00  0.00    -0.290 C  
HETATM    2  C   UNL     1     -11.678  12.271  67.983  1.00  0.00    -0.417 C  
HETATM    3  C   UNL     1     -11.023  10.891  67.940  1.00  0.00    -0.325 C  
HETATM    4  C   UNL     1      -9.893   9.831  67.315  1.00  0.00    -0.228 C  
HETATM    5  C   UNL     1     -10.775   8.864  66.470  1.00  0.00     0.117 C  
HETATM    6  C   UNL     1      -8.831  10.812  66.782  1.00  0.00    -0.147 C  
HETATM    7  C   UNL     1      -9.063  11.266  65.531  1.00  0.00    -0.184 C  
HETATM    8  C   UNL     1      -8.269  11.520  68.020  1.00  0.00    -0.143 C  
HETATM    9 CL   UNL     1      -7.743  13.167  67.933  1.00  0.00    -0.131 Cl 
HETATM   10  C   UNL     1      -8.283  10.930  69.245  1.00  0.00    -0.046 C  
HETATM   11  C   UNL     1     -10.498  11.787  65.526  1.00  0.00    -0.267 C  
HETATM   12  C   UNL     1      -8.539   9.435  69.456  1.00  0.00    -0.158 C  
HETATM   13  O   UNL     1     -11.271  11.746  64.584  1.00  0.00    -0.315 OA 
HETATM   14  C   UNL     1      -7.276   8.811  70.140  1.00  0.00    -0.054 C  
HETATM   15  C   UNL     1      -7.471   8.915  71.672  1.00  0.00    -0.054 C  
HETATM   16  C   UNL     1      -7.415   7.502  72.214  1.00  0.00    -0.079 C  
HETATM   17  C   UNL     1      -7.707   6.577  71.017  1.00  0.00    -0.094 C  
HETATM   18  C   UNL     1      -8.816   8.905  68.076  1.00  0.00    -0.133 C  
HETATM   19  C   UNL     1      -7.320   6.881  68.420  1.00  0.00    -0.093 C  
HETATM   20  C   UNL     1      -6.932   7.297  69.870  1.00  0.00    -0.057 C  
HETATM   21  C   UNL     1      -8.676   7.387  67.867  1.00  0.00    -0.123 C  
HETATM   22  C   UNL     1      -5.391   7.067  69.992  1.00  0.00    -0.019 C  
ENDROOT
BRANCH  17  23
HETATM   23  O   UNL     1      -9.073   6.687  70.562  1.00  0.00    -0.151 OA 
BRANCH  23  24
HETATM   24  C   UNL     1     -10.106   6.272  71.324  1.00  0.00    -0.189 C  
HETATM   25  O   UNL     1     -10.448   5.105  71.471  1.00  0.00    -0.218 OA 
HETATM   26  C   UNL     1     -10.779   7.459  71.946  1.00  0.00    -0.247 C  
ENDBRANCH  23  24
ENDBRANCH  17  23
BRANCH  17  27
HETATM   27  C   UNL     1      -7.328   5.100  71.278  1.00  0.00    -0.078 C  
HETATM   28  C   UNL     1      -6.919   4.662  72.678  1.00  0.00    -0.074 C  
HETATM   29  O   UNL     1      -7.371   4.254  70.376  1.00  0.00    -0.044 OA 
ENDBRANCH  17  27
TORSDOF 3
ENDMDL
MODEL       64
REMARK 921   NORMALIZED FREE ENERGY PREDICTED BY IDOCK:   -3.57 KCAL/MOL
REMARK 922        TOTAL FREE ENERGY PREDICTED BY IDOCK:   -4.68 KCAL/MOL
REMARK 923 INTER-LIGAND FREE ENERGY PREDICTED BY IDOCK:   -4.92 KCAL/MOL
REMARK 924 INTRA-LIGAND FREE ENERGY PREDICTED BY IDOCK:    0.23 KCAL/MOL
REMARK 927      BINDING AFFINITY PREDICTED BY RF-SCORE:    0.00 PKD
ROOT
HETATM    1  C   UNL     1     -10.772  11.960  64.718  1.00  0.00    -0.356 C  
HETATM    2  C   UNL     1      -9.940  12.451  63.667  1.00  0.00    -0.199 C  
HETATM    3  C   UNL     1      -9.930  13.557  64.721  1.00  0.00    -0.156 C  
HETATM    4  C   UNL     1     -10.313  14.123  66.246  1.00  0.00    -0.294 C  
HETATM    5  C   UNL     1     -11.457  15.137  65.947  1.00  0.00    -0.159 C  
HETATM    6  C   UNL     1     -10.435  12.801  67.030  1.00  0.00    -0.245 C  
HETATM    7  C   UNL     1     -11.653  12.220  66.965  1.00  0.00    -0.418 C  
HETATM    8  C   UNL     1      -9.029  12.192  67.026  1.00  0.00    -0.201 C  
HETATM    9 CL   UNL     1      -8.810  10.475  66.998  1.00  0.00    -0.138 Cl 
HETATM   10  C   UNL     1      -7.917  12.967  66.915  1.00  0.00     0.067 C  
HETATM   11  C   UNL     1     -12.007  12.138  65.482  1.00  0.00    -0.220 C  
HETATM   12  C   UNL     1      -7.928  14.486  67.112  1.00  0.00    -0.167 C  
HETATM   13  O   UNL     1     -13.127  12.231  65.008  1.00  0.00    -0.546 OA 
HETATM   14  C   UNL     1      -6.981  14.833  68.310  1.00  0.00    -0.119 C  
HETATM   15  C   UNL     1      -5.561  15.060  67.739  1.00  0.00    -0.088 C  
HETATM   16  C   UNL     1      -5.161  16.470  68.117  1.00  0.00    -0.109 C  
HETATM   17  C   UNL     1      -6.473  17.215  68.428  1.00  0.00    -0.158 C  
HETATM   18  C   UNL     1      -9.374  14.821  67.353  1.00  0.00    -0.199 C  
HETATM   19  C   UNL     1      -8.819  16.361  69.296  1.00  0.00    -0.121 C  
HETATM   20  C   UNL     1      -7.286  16.114  69.177  1.00  0.00    -0.215 C  
HETATM   21  C   UNL     1      -9.678  16.174  68.019  1.00  0.00    -0.229 C  
HETATM   22  C   UNL     1      -6.763  15.911  70.635  1.00  0.00     0.922 C  
ENDROOT
BRANCH  17  23
HETATM   23  O   UNL     1      -7.277  17.421  67.247  1.00  0.00    -0.158 OA 
BRANCH  23  24
HETATM   24  C   UNL     1      -6.863  18.218  66.241  1.00  0.00    -0.240 C  
HETATM   25  O   UNL     1      -6.052  17.900  65.379  1.00  0.00    -0.148 OA 
HETATM   26  C   UNL     1      -7.533  19.555  66.353  1.00  0.00    -0.277 C  
ENDBRANCH  23  24
ENDBRANCH  17  23
BRANCH  17  27
HETATM   27  C   UNL     1      -6.257  18.543  69.190  1.00  0.00    -0.245 C  
HETATM   28  C   UNL     1      -7.398  19.548  69.294  1.00  0.00    -0.311 C  
HETATM   29  O   UNL     1      -5.181  18.805  69.740  1.00  0.00    -0.187 OA 
ENDBRANCH  17  27
TORSDOF 3
ENDMDL
MODEL       65
REMARK 921   NORMALIZED FREE ENERGY PREDICTED BY IDOCK:   -3.56 KCAL/MOL
REMARK 922        TOTAL FREE ENERGY PREDICTED BY IDOCK:   -4.67 KCAL/MOL
REMARK 923 INTER-LIGAND FREE ENERGY PREDICTED BY IDOCK:   -3.74 KCAL/MOL
REMARK 924 INTRA-LIGAND FREE ENERGY PREDICTED BY IDOCK:   -0.93 KCAL/MOL
REMARK 927      BINDING AFFINITY PREDICTED BY RF-SCORE:    0.00 PKD
ROOT
HETATM    1  C   UNL     1     -10.071  10.518  69.193  1.00  0.00    -0.240 C  
HETATM    2  C   UNL     1     -11.026   9.503  69.506  1.00  0.00    -0.217 C  
HETATM    3  C   UNL     1     -10.431   9.079  68.164  1.00  0.00    -0.257 C  
HETATM    4  C   UNL     1      -9.305   9.263  66.944  1.00  0.00    -0.193 C  
HETATM    5  C   UNL     1     -10.164   9.851  65.785  1.00  0.00    -0.251 C  
HETATM    6  C   UNL     1      -8.165   9.975  67.698  1.00  0.00    -0.114 C  
HETATM    7  C   UNL     1      -8.285  11.319  67.759  1.00  0.00    -0.120 C  
HETATM    8  C   UNL     1      -7.665   8.963  68.735  1.00  0.00    -0.096 C  
HETATM    9 CL   UNL     1      -7.064   9.493  70.269  1.00  0.00    -0.094 Cl 
HETATM   10  C   UNL     1      -7.794   7.622  68.541  1.00  0.00    -0.121 C  
HETATM   11  C   UNL     1      -9.692  11.598  68.282  1.00  0.00    -0.197 C  
HETATM   12  C   UNL     1      -8.130   6.997  67.184  1.00  0.00    -0.118 C  
HETATM   13  O   UNL     1     -10.395  12.546  67.975  1.00  0.00    -0.210 OA 
HETATM   14  C   UNL     1      -6.948   6.056  66.771  1.00  0.00    -0.068 C  
HETATM   15  C   UNL     1      -7.249   4.646  67.334  1.00  0.00    -0.073 C  
HETATM   16  C   UNL     1      -7.294   3.705  66.150  1.00  0.00    -0.072 C  
HETATM   17  C   UNL     1      -7.538   4.591  64.913  1.00  0.00    -0.077 C  
HETATM   18  C   UNL     1      -8.328   8.174  66.269  1.00  0.00    -0.119 C  
HETATM   19  C   UNL     1      -6.949   7.119  64.414  1.00  0.00    -0.052 C  
HETATM   20  C   UNL     1      -6.651   5.832  65.239  1.00  0.00    -0.043 C  
HETATM   21  C   UNL     1      -8.238   7.908  64.757  1.00  0.00    -0.112 C  
HETATM   22  C   UNL     1      -5.135   5.520  65.027  1.00  0.00    -0.009 C  
ENDROOT
BRANCH  17  23
HETATM   23  O   UNL     1      -8.861   5.169  64.908  1.00  0.00    -0.154 OA 
BRANCH  23  24
HETATM   24  C   UNL     1      -9.962   4.415  65.104  1.00  0.00    -0.177 C  
HETATM   25  O   UNL     1     -10.269   3.432  64.440  1.00  0.00    -0.177 OA 
HETATM   26  C   UNL     1     -10.755   4.975  66.246  1.00  0.00    -0.262 C  
ENDBRANCH  23  24
ENDBRANCH  17  23
BRANCH  17  27
HETATM   27  C   UNL     1      -7.243   3.871  63.577  1.00  0.00    -0.050 C  
HETATM   28  C   UNL     1      -6.766   2.425  63.587  1.00  0.00    -0.031 C  
HETATM   29  O   UNL     1      -7.408   4.437  62.489  1.00  0.00    -0.039 OA 
ENDBRANCH  17  27
TORSDOF 3
ENDMDL
MODEL       66
REMARK 921   NORMALIZED FREE ENERGY PREDICTED BY IDOCK:   -3.53 KCAL/MOL
REMARK 922        TOTAL FREE ENERGY PREDICTED BY IDOCK:   -4.64 KCAL/MOL
REMARK 923 INTER-LIGAND FREE ENERGY PREDICTED BY IDOCK:   -4.30 KCAL/MOL
REMARK 924 INTRA-LIGAND FREE ENERGY PREDICTED BY IDOCK:   -0.34 KCAL/MOL
REMARK 927      BINDING AFFINITY PREDICTED BY RF-SCORE:    0.00 PKD
ROOT
HETATM    1  C   UNL     1     -11.752  13.575  66.641  1.00  0.00    -0.425 C  
HETATM    2  C   UNL     1     -12.352  12.961  65.501  1.00  0.00    -0.517 C  
HETATM    3  C   UNL     1     -11.019  12.235  65.679  1.00  0.00    -0.338 C  
HETATM    4  C   UNL     1      -9.635  11.922  66.561  1.00  0.00    -0.226 C  
HETATM    5  C   UNL     1      -8.536  12.639  65.720  1.00  0.00     0.915 C  
HETATM    6  C   UNL     1     -10.098  12.298  67.982  1.00  0.00    -0.206 C  
HETATM    7  C   UNL     1      -9.969  13.608  68.287  1.00  0.00    -0.236 C  
HETATM    8  C   UNL     1     -11.194  11.287  68.336  1.00  0.00    -0.262 C  
HETATM    9 CL   UNL     1     -12.525  11.744  69.344  1.00  0.00    -0.054 Cl 
HETATM   10  C   UNL     1     -11.229  10.049  67.775  1.00  0.00    -0.137 C  
HETATM   11  C   UNL     1     -10.641  14.378  67.153  1.00  0.00    -0.277 C  
HETATM   12  C   UNL     1     -10.046   9.435  67.020  1.00  0.00    -0.304 C  
HETATM   13  O   UNL     1     -10.298  15.467  66.725  1.00  0.00    -0.267 OA 
HETATM   14  C   UNL     1      -9.615   8.125  67.764  1.00  0.00    -0.180 C  
HETATM   15  C   UNL     1     -10.425   6.952  67.161  1.00  0.00    -0.373 C  
HETATM   16  C   UNL     1      -9.418   5.963  66.615  1.00  0.00    -0.165 C  
HETATM   17  C   UNL     1      -8.109   6.753  66.424  1.00  0.00    -0.110 C  
HETATM   18  C   UNL     1      -9.000  10.515  67.020  1.00  0.00    -0.149 C  
HETATM   19  C   UNL     1      -7.148   8.892  67.646  1.00  0.00    -0.076 C  
HETATM   20  C   UNL     1      -8.109   7.667  67.689  1.00  0.00    -0.121 C  
HETATM   21  C   UNL     1      -7.550  10.086  66.742  1.00  0.00    -0.103 C  
HETATM   22  C   UNL     1      -7.730   6.861  68.973  1.00  0.00    -0.110 C  
ENDROOT
BRANCH  17  23
HETATM   23  O   UNL     1      -8.207   7.725  65.361  1.00  0.00    -0.128 OA 
BRANCH  23  24
HETATM   24  C   UNL     1      -7.925   7.403  64.082  1.00  0.00    -0.092 C  
HETATM   25  O   UNL     1      -8.138   6.311  63.568  1.00  0.00    -0.113 OA 
HETATM   26  C   UNL     1      -7.297   8.579  63.396  1.00  0.00    -0.103 C  
ENDBRANCH  23  24
ENDBRANCH  17  23
BRANCH  17  27
HETATM   27  C   UNL     1      -6.870   5.848  66.234  1.00  0.00    -0.061 C  
HETATM   28  C   UNL     1      -5.487   6.475  66.119  1.00  0.00    -0.014 C  
HETATM   29  O   UNL     1      -6.971   4.615  66.194  1.00  0.00    -0.063 OA 
ENDBRANCH  17  27
TORSDOF 3
ENDMDL
MODEL       67
REMARK 921   NORMALIZED FREE ENERGY PREDICTED BY IDOCK:   -3.42 KCAL/MOL
REMARK 922        TOTAL FREE ENERGY PREDICTED BY IDOCK:   -4.50 KCAL/MOL
REMARK 923 INTER-LIGAND FREE ENERGY PREDICTED BY IDOCK:   -4.60 KCAL/MOL
REMARK 924 INTRA-LIGAND FREE ENERGY PREDICTED BY IDOCK:    0.09 KCAL/MOL
REMARK 927      BINDING AFFINITY PREDICTED BY RF-SCORE:    0.00 PKD
ROOT
HETATM    1  C   UNL     1     -10.767   7.345  72.966  1.00  0.00    -0.413 C  
HETATM    2  C   UNL     1      -9.553   8.019  73.297  1.00  0.00    -0.322 C  
HETATM    3  C   UNL     1      -9.630   8.077  71.772  1.00  0.00    -0.231 C  
HETATM    4  C   UNL     1     -10.459   7.834  70.342  1.00  0.00    -0.221 C  
HETATM    5  C   UNL     1      -9.724   6.600  69.737  1.00  0.00    -0.168 C  
HETATM    6  C   UNL     1     -11.918   7.886  70.834  1.00  0.00    -0.211 C  
HETATM    7  C   UNL     1     -12.401   6.709  71.289  1.00  0.00    -0.329 C  
HETATM    8  C   UNL     1     -12.130   9.319  71.335  1.00  0.00    -0.348 C  
HETATM    9 CL   UNL     1     -13.192   9.643  72.663  1.00  0.00    -0.272 Cl 
HETATM   10  C   UNL     1     -11.403  10.359  70.845  1.00  0.00    -0.307 C  
HETATM   11  C   UNL     1     -11.384   6.195  72.305  1.00  0.00    -0.300 C  
HETATM   12  C   UNL     1     -10.570  10.273  69.563  1.00  0.00    -0.270 C  
HETATM   13  O   UNL     1     -11.111   5.026  72.515  1.00  0.00    -0.215 OA 
HETATM   14  C   UNL     1     -11.126  11.325  68.544  1.00  0.00    -0.288 C  
HETATM   15  C   UNL     1     -10.368  12.653  68.777  1.00  0.00    -0.132 C  
HETATM   16  C   UNL     1      -9.690  13.002  67.469  1.00  0.00    -0.206 C  
HETATM   17  C   UNL     1      -9.610  11.688  66.669  1.00  0.00    -0.204 C  
HETATM   18  C   UNL     1     -10.720   8.844  69.116  1.00  0.00    -0.162 C  
HETATM   19  C   UNL     1     -11.114   9.515  66.697  1.00  0.00     0.448 C  
HETATM   20  C   UNL     1     -10.988  11.037  67.000  1.00  0.00    -0.333 C  
HETATM   21  C   UNL     1     -10.384   8.532  67.647  1.00  0.00    -0.317 C  
HETATM   22  C   UNL     1     -12.149  11.734  66.220  1.00  0.00     0.477 C  
ENDROOT
BRANCH  17  23
HETATM   23  O   UNL     1      -8.691  10.744  67.260  1.00  0.00    -0.130 OA 
BRANCH  23  24
HETATM   24  C   UNL     1      -7.512  11.139  67.782  1.00  0.00    -0.095 C  
HETATM   25  O   UNL     1      -7.323  11.423  68.959  1.00  0.00    -0.113 OA 
HETATM   26  C   UNL     1      -6.477  11.193  66.699  1.00  0.00    -0.134 C  
ENDBRANCH  23  24
ENDBRANCH  17  23
BRANCH  17  27
HETATM   27  C   UNL     1      -9.296  11.902  65.170  1.00  0.00     0.045 C  
HETATM   28  C   UNL     1      -9.778  13.166  64.470  1.00  0.00     0.191 C  
HETATM   29  O   UNL     1      -8.638  11.077  64.524  1.00  0.00    -0.038 OA 
ENDBRANCH  17  27
TORSDOF 3
ENDMDL
MODEL       68
REMARK 921   NORMALIZED FREE ENERGY PREDICTED BY IDOCK:   -3.41 KCAL/MOL
REMARK 922        TOTAL FREE ENERGY PREDICTED BY IDOCK:   -4.49 KCAL/MOL
REMARK 923 INTER-LIGAND FREE ENERGY PREDICTED BY IDOCK:   -3.64 KCAL/MOL
REMARK 924 INTRA-LIGAND FREE ENERGY PREDICTED BY IDOCK:   -0.85 KCAL/MOL
REMARK 927      BINDING AFFINITY PREDICTED BY RF-SCORE:    0.00 PKD
ROOT
HETATM    1  C   UNL     1     -11.413   7.616  70.925  1.00  0.00    -0.299 C  
HETATM    2  C   UNL     1     -12.273   6.588  70.435  1.00  0.00    -0.031 C  
HETATM    3  C   UNL     1     -11.369   6.938  69.253  1.00  0.00    -0.132 C  
HETATM    4  C   UNL     1     -10.052   7.741  68.611  1.00  0.00    -0.211 C  
HETATM    5  C   UNL     1     -10.727   8.852  67.751  1.00  0.00    -0.204 C  
HETATM    6  C   UNL     1      -9.189   7.949  69.871  1.00  0.00    -0.153 C  
HETATM    7  C   UNL     1      -9.491   9.058  70.582  1.00  0.00    -0.286 C  
HETATM    8  C   UNL     1      -8.784   6.543  70.327  1.00  0.00    -0.151 C  
HETATM    9 CL   UNL     1      -8.579   6.184  72.007  1.00  0.00    -0.132 Cl 
HETATM   10  C   UNL     1      -8.698   5.507  69.449  1.00  0.00    -0.107 C  
HETATM   11  C   UNL     1     -10.999   9.015  70.819  1.00  0.00    -0.258 C  
HETATM   12  C   UNL     1      -8.669   5.693  67.929  1.00  0.00    -0.107 C  
HETATM   13  O   UNL     1     -11.740   9.981  70.883  1.00  0.00    -0.315 OA 
HETATM   14  C   UNL     1      -7.318   5.115  67.389  1.00  0.00    -0.082 C  
HETATM   15  C   UNL     1      -7.543   3.620  67.058  1.00  0.00    -0.079 C  
HETATM   16  C   UNL     1      -7.226   3.447  65.588  1.00  0.00    -0.067 C  
HETATM   17  C   UNL     1      -7.326   4.852  64.965  1.00  0.00    -0.071 C  
HETATM   18  C   UNL     1      -8.827   7.176  67.731  1.00  0.00    -0.124 C  
HETATM   19  C   UNL     1      -6.978   7.264  65.991  1.00  0.00    -0.065 C  
HETATM   20  C   UNL     1      -6.691   5.736  66.083  1.00  0.00    -0.057 C  
HETATM   21  C   UNL     1      -8.401   7.750  66.369  1.00  0.00    -0.131 C  
HETATM   22  C   UNL     1      -5.136   5.586  66.111  1.00  0.00    -0.005 C  
ENDROOT
BRANCH  17  23
HETATM   23  O   UNL     1      -8.684   5.343  64.940  1.00  0.00    -0.149 OA 
BRANCH  23  24
HETATM   24  C   UNL     1      -9.701   4.583  64.487  1.00  0.00    -0.012 C  
HETATM   25  O   UNL     1      -9.755   4.068  63.376  1.00  0.00    -0.148 OA 
HETATM   26  C   UNL     1     -10.760   4.480  65.543  1.00  0.00    -0.170 C  
ENDBRANCH  23  24
ENDBRANCH  17  23
BRANCH  17  27
HETATM   27  C   UNL     1      -6.678   4.948  63.564  1.00  0.00    -0.038 C  
HETATM   28  C   UNL     1      -6.831   6.224  62.747  1.00  0.00    -0.041 C  
HETATM   29  O   UNL     1      -6.013   4.016  63.095  1.00  0.00    -0.016 OA 
ENDBRANCH  17  27
TORSDOF 3
ENDMDL
MODEL       69
REMARK 921   NORMALIZED FREE ENERGY PREDICTED BY IDOCK:   -3.38 KCAL/MOL
REMARK 922        TOTAL FREE ENERGY PREDICTED BY IDOCK:   -4.46 KCAL/MOL
REMARK 923 INTER-LIGAND FREE ENERGY PREDICTED BY IDOCK:   -4.04 KCAL/MOL
REMARK 924 INTRA-LIGAND FREE ENERGY PREDICTED BY IDOCK:   -0.42 KCAL/MOL
REMARK 927      BINDING AFFINITY PREDICTED BY RF-SCORE:    0.00 PKD
ROOT
HETATM    1  C   UNL     1     -10.640  15.792  68.972  1.00  0.00    -0.232 C  
HETATM    2  C   UNL     1      -9.531  15.708  69.868  1.00  0.00    -0.030 C  
HETATM    3  C   UNL     1      -9.828  14.261  69.475  1.00  0.00     0.336 C  
HETATM    4  C   UNL     1     -10.642  13.140  68.541  1.00  0.00    -0.274 C  
HETATM    5  C   UNL     1     -11.641  12.519  69.563  1.00  0.00    -0.348 C  
HETATM    6  C   UNL     1     -10.998  13.988  67.305  1.00  0.00    -0.303 C  
HETATM    7  C   UNL     1     -12.145  14.693  67.418  1.00  0.00    -0.216 C  
HETATM    8  C   UNL     1      -9.657  14.348  66.655  1.00  0.00    -0.281 C  
HETATM    9 CL   UNL     1      -9.449  15.859  65.836  1.00  0.00    -0.378 Cl 
HETATM   10  C   UNL     1      -8.558  13.561  66.808  1.00  0.00    -0.043 C  
HETATM   11  C   UNL     1     -12.044  15.461  68.733  1.00  0.00    -0.155 C  
HETATM   12  C   UNL     1      -8.619  12.126  67.338  1.00  0.00    -0.175 C  
HETATM   13  O   UNL     1     -12.972  15.733  69.476  1.00  0.00     0.177 OA 
HETATM   14  C   UNL     1      -8.068  11.168  66.228  1.00  0.00    -0.142 C  
HETATM   15  C   UNL     1      -6.541  11.030  66.439  1.00  0.00    -0.126 C  
HETATM   16  C   UNL     1      -6.264   9.558  66.655  1.00  0.00    -0.065 C  
HETATM   17  C   UNL     1      -7.605   8.931  67.080  1.00  0.00    -0.092 C  
HETATM   18  C   UNL     1     -10.070  11.911  67.671  1.00  0.00    -0.202 C  
HETATM   19  C   UNL     1     -10.108   9.618  66.578  1.00  0.00    -0.314 C  
HETATM   20  C   UNL     1      -8.609   9.690  66.158  1.00  0.00    -0.138 C  
HETATM   21  C   UNL     1     -10.550  10.456  67.805  1.00  0.00    -0.294 C  
HETATM   22  C   UNL     1      -8.543   9.162  64.689  1.00  0.00    -0.206 C  
ENDROOT
BRANCH  17  23
HETATM   23  O   UNL     1      -8.022   9.371  68.391  1.00  0.00    -0.093 OA 
BRANCH  23  24
HETATM   24  C   UNL     1      -7.145   9.485  69.409  1.00  0.00    -0.055 C  
HETATM   25  O   UNL     1      -6.646  10.536  69.794  1.00  0.00    -0.080 OA 
HETATM   26  C   UNL     1      -6.863   8.129  69.983  1.00  0.00    -0.040 C  
ENDBRANCH  23  24
ENDBRANCH  17  23
BRANCH  17  27
HETATM   27  C   UNL     1      -7.618   7.388  66.984  1.00  0.00    -0.106 C  
HETATM   28  C   UNL     1      -6.374   6.651  66.506  1.00  0.00    -0.042 C  
HETATM   29  O   UNL     1      -8.614   6.729  67.308  1.00  0.00    -0.119 OA 
ENDBRANCH  17  27
TORSDOF 3
ENDMDL
MODEL       70
REMARK 921   NORMALIZED FREE ENERGY PREDICTED BY IDOCK:   -3.35 KCAL/MOL
REMARK 922        TOTAL FREE ENERGY PREDICTED BY IDOCK:   -4.42 KCAL/MOL
REMARK 923 INTER-LIGAND FREE ENERGY PREDICTED BY IDOCK:   -3.47 KCAL/MOL
REMARK 924 INTRA-LIGAND FREE ENERGY PREDICTED BY IDOCK:   -0.95 KCAL/MOL
REMARK 927      BINDING AFFINITY PREDICTED BY RF-SCORE:    0.00 PKD
ROOT
HETATM    1  C   UNL     1      -8.802   9.781  70.200  1.00  0.00    -0.226 C  
HETATM    2  C   UNL     1      -7.381   9.667  70.137  1.00  0.00    -0.141 C  
HETATM    3  C   UNL     1      -7.903   8.301  69.695  1.00  0.00    -0.102 C  
HETATM    4  C   UNL     1      -9.160   7.290  69.259  1.00  0.00    -0.138 C  
HETATM    5  C   UNL     1      -9.278   6.353  70.499  1.00  0.00    -0.162 C  
HETATM    6  C   UNL     1     -10.207   8.312  68.774  1.00  0.00    -0.226 C  
HETATM    7  C   UNL     1     -10.987   8.824  69.751  1.00  0.00    -0.146 C  
HETATM    8  C   UNL     1      -9.595   8.966  67.531  1.00  0.00    -0.145 C  
HETATM    9 CL   UNL     1      -9.922  10.623  67.152  1.00  0.00    -0.222 Cl 
HETATM   10  C   UNL     1      -8.681   8.316  66.761  1.00  0.00    -0.143 C  
HETATM   11  C   UNL     1     -10.037   9.323  70.838  1.00  0.00    -0.302 C  
HETATM   12  C   UNL     1      -8.426   6.809  66.851  1.00  0.00    -0.115 C  
HETATM   13  O   UNL     1     -10.256   9.318  72.037  1.00  0.00    -0.191 OA 
HETATM   14  C   UNL     1      -8.752   6.171  65.458  1.00  0.00    -0.105 C  
HETATM   15  C   UNL     1      -7.456   6.195  64.613  1.00  0.00    -0.085 C  
HETATM   16  C   UNL     1      -7.147   4.759  64.249  1.00  0.00    -0.050 C  
HETATM   17  C   UNL     1      -7.913   3.889  65.265  1.00  0.00    -0.097 C  
HETATM   18  C   UNL     1      -9.322   6.344  67.966  1.00  0.00    -0.115 C  
HETATM   19  C   UNL     1     -10.125   4.328  66.644  1.00  0.00    -0.135 C  
HETATM   20  C   UNL     1      -9.253   4.677  65.402  1.00  0.00    -0.155 C  
HETATM   21  C   UNL     1      -9.644   4.841  68.025  1.00  0.00    -0.199 C  
HETATM   22  C   UNL     1     -10.168   4.465  64.153  1.00  0.00     0.077 C  
ENDROOT
BRANCH  17  23
HETATM   23  O   UNL     1      -7.370   4.002  66.598  1.00  0.00    -0.070 OA 
BRANCH  23  24
HETATM   24  C   UNL     1      -6.068   3.758  66.853  1.00  0.00    -0.025 C  
HETATM   25  O   UNL     1      -5.467   2.738  66.537  1.00  0.00    -0.015 OA 
HETATM   26  C   UNL     1      -5.476   4.919  67.594  1.00  0.00    -0.012 C  
ENDBRANCH  23  24
ENDBRANCH  17  23
BRANCH  17  27
HETATM   27  C   UNL     1      -8.030   2.408  64.838  1.00  0.00    -0.078 C  
HETATM   28  C   UNL     1      -7.548   1.979  63.459  1.00  0.00    -0.055 C  
HETATM   29  O   UNL     1      -8.488   1.550  65.603  1.00  0.00    -0.087 OA 
ENDBRANCH  17  27
TORSDOF 3
ENDMDL
MODEL       71
REMARK 921   NORMALIZED FREE ENERGY PREDICTED BY IDOCK:   -3.34 KCAL/MOL
REMARK 922        TOTAL FREE ENERGY PREDICTED BY IDOCK:   -4.41 KCAL/MOL
REMARK 923 INTER-LIGAND FREE ENERGY PREDICTED BY IDOCK:   -3.75 KCAL/MOL
REMARK 924 INTRA-LIGAND FREE ENERGY PREDICTED BY IDOCK:   -0.65 KCAL/MOL
REMARK 927      BINDING AFFINITY PREDICTED BY RF-SCORE:    0.00 PKD
ROOT
HETATM    1  C   UNL     1      -8.315   2.525  71.194  1.00  0.00    -0.081 C  
HETATM    2  C   UNL     1      -9.262   3.301  71.928  1.00  0.00    -0.180 C  
HETATM    3  C   UNL     1      -8.491   4.318  71.086  1.00  0.00    -0.105 C  
HETATM    4  C   UNL     1      -7.389   4.681  69.884  1.00  0.00    -0.054 C  
HETATM    5  C   UNL     1      -6.173   5.215  70.699  1.00  0.00    -0.023 C  
HETATM    6  C   UNL     1      -7.438   3.393  69.039  1.00  0.00    -0.049 C  
HETATM    7  C   UNL     1      -6.615   2.409  69.466  1.00  0.00    -0.033 C  
HETATM    8  C   UNL     1      -8.856   3.336  68.462  1.00  0.00    -0.117 C  
HETATM    9 CL   UNL     1      -9.642   1.816  68.196  1.00  0.00    -0.218 Cl 
HETATM   10  C   UNL     1      -9.589   4.464  68.260  1.00  0.00    -0.199 C  
HETATM   11  C   UNL     1      -6.902   2.229  70.954  1.00  0.00    -0.032 C  
HETATM   12  C   UNL     1      -8.986   5.871  68.270  1.00  0.00    -0.112 C  
HETATM   13  O   UNL     1      -6.089   1.916  71.807  1.00  0.00    -0.013 OA 
HETATM   14  C   UNL     1      -9.225   6.519  66.865  1.00  0.00    -0.153 C  
HETATM   15  C   UNL     1     -10.585   7.257  66.910  1.00  0.00    -0.375 C  
HETATM   16  C   UNL     1     -10.302   8.709  66.591  1.00  0.00    -0.303 C  
HETATM   17  C   UNL     1      -8.802   8.921  66.868  1.00  0.00    -0.127 C  
HETATM   18  C   UNL     1      -7.536   5.654  68.610  1.00  0.00    -0.088 C  
HETATM   19  C   UNL     1      -6.747   7.258  66.804  1.00  0.00    -0.061 C  
HETATM   20  C   UNL     1      -8.195   7.587  66.332  1.00  0.00    -0.122 C  
HETATM   21  C   UNL     1      -6.560   6.793  68.271  1.00  0.00    -0.062 C  
HETATM   22  C   UNL     1      -8.159   7.565  64.770  1.00  0.00    -0.112 C  
ENDROOT
BRANCH  17  23
HETATM   23  O   UNL     1      -8.490   8.840  68.275  1.00  0.00    -0.128 OA 
BRANCH  23  24
HETATM   24  C   UNL     1      -8.741   9.865  69.114  1.00  0.00    -0.159 C  
HETATM   25  O   UNL     1      -9.820  10.437  69.224  1.00  0.00    -0.212 OA 
HETATM   26  C   UNL     1      -7.496  10.207  69.875  1.00  0.00    -0.176 C  
ENDBRANCH  23  24
ENDBRANCH  17  23
BRANCH  17  27
HETATM   27  C   UNL     1      -8.243  10.224  66.251  1.00  0.00    -0.131 C  
HETATM   28  C   UNL     1      -9.127  11.070  65.344  1.00  0.00    -0.213 C  
HETATM   29  O   UNL     1      -7.094  10.613  66.494  1.00  0.00    -0.117 OA 
ENDBRANCH  17  27
TORSDOF 3
ENDMDL
MODEL       72
REMARK 921   NORMALIZED FREE ENERGY PREDICTED BY IDOCK:   -2.88 KCAL/MOL
REMARK 922        TOTAL FREE ENERGY PREDICTED BY IDOCK:   -3.87 KCAL/MOL
REMARK 923 INTER-LIGAND FREE ENERGY PREDICTED BY IDOCK:   -3.32 KCAL/MOL
REMARK 924 INTRA-LIGAND FREE ENERGY PREDICTED BY IDOCK:   -0.55 KCAL/MOL
REMARK 927      BINDING AFFINITY PREDICTED BY RF-SCORE:    0.00 PKD
ROOT
HETATM    1  C   UNL     1      -6.716  10.066  64.699  1.00  0.00    -0.128 C  
HETATM    2  C   UNL     1      -6.431   8.912  63.909  1.00  0.00    -0.087 C  
HETATM    3  C   UNL     1      -6.407   8.412  65.353  1.00  0.00    -0.048 C  
HETATM    4  C   UNL     1      -6.669   8.654  66.985  1.00  0.00    -0.062 C  
HETATM    5  C   UNL     1      -5.218   8.751  67.544  1.00  0.00    -0.034 C  
HETATM    6  C   UNL     1      -7.721   9.780  66.952  1.00  0.00    -0.098 C  
HETATM    7  C   UNL     1      -7.206  11.027  66.873  1.00  0.00    -0.133 C  
HETATM    8  C   UNL     1      -8.962   9.163  66.299  1.00  0.00    -0.158 C  
HETATM    9 CL   UNL     1     -10.013  10.123  65.315  1.00  0.00    -0.386 Cl 
HETATM   10  C   UNL     1      -9.210   7.827  66.361  1.00  0.00    -0.229 C  
HETATM   11  C   UNL     1      -6.225  11.010  65.703  1.00  0.00     0.058 C  
HETATM   12  C   UNL     1      -8.490   6.883  67.330  1.00  0.00    -0.121 C  
HETATM   13  O   UNL     1      -5.193  11.654  65.625  1.00  0.00    -0.196 OA 
HETATM   14  C   UNL     1      -9.561   6.235  68.271  1.00  0.00    -0.119 C  
HETATM   15  C   UNL     1     -10.057   4.934  67.596  1.00  0.00    -0.172 C  
HETATM   16  C   UNL     1      -9.762   3.805  68.560  1.00  0.00    -0.089 C  
HETATM   17  C   UNL     1      -8.673   4.334  69.513  1.00  0.00    -0.082 C  
HETATM   18  C   UNL     1      -7.497   7.762  68.040  1.00  0.00    -0.108 C  
HETATM   19  C   UNL     1      -8.070   6.780  70.312  1.00  0.00    -0.120 C  
HETATM   20  C   UNL     1      -9.137   5.808  69.728  1.00  0.00    -0.151 C  
HETATM   21  C   UNL     1      -6.928   7.242  69.371  1.00  0.00    -0.062 C  
HETATM   22  C   UNL     1     -10.367   5.883  70.688  1.00  0.00    -0.296 C  
ENDROOT
BRANCH  17  23
HETATM   23  O   UNL     1      -7.407   4.520  68.845  1.00  0.00    -0.055 OA 
BRANCH  23  24
HETATM   24  C   UNL     1      -6.769   3.495  68.244  1.00  0.00    -0.046 C  
HETATM   25  O   UNL     1      -7.079   3.011  67.161  1.00  0.00    -0.052 OA 
HETATM   26  C   UNL     1      -5.637   3.031  69.110  1.00  0.00    -0.018 C  
ENDBRANCH  23  24
ENDBRANCH  17  23
BRANCH  17  27
HETATM   27  C   UNL     1      -8.506   3.475  70.788  1.00  0.00    -0.069 C  
HETATM   28  C   UNL     1      -9.184   2.115  70.877  1.00  0.00    -0.189 C  
HETATM   29  O   UNL     1      -7.812   3.859  71.738  1.00  0.00    -0.067 OA 
ENDBRANCH  17  27
TORSDOF 3
ENDMDL
MODEL       73
REMARK 921   NORMALIZED FREE ENERGY PREDICTED BY IDOCK:   -2.69 KCAL/MOL
REMARK 922        TOTAL FREE ENERGY PREDICTED BY IDOCK:   -3.64 KCAL/MOL
REMARK 923 INTER-LIGAND FREE ENERGY PREDICTED BY IDOCK:   -3.66 KCAL/MOL
REMARK 924 INTRA-LIGAND FREE ENERGY PREDICTED BY IDOCK:    0.01 KCAL/MOL
REMARK 927      BINDING AFFINITY PREDICTED BY RF-SCORE:    0.00 PKD
ROOT
HETATM    1  C   UNL     1      -8.380   6.145  64.767  1.00  0.00    -0.070 C  
HETATM    2  C   UNL     1      -9.232   5.000  64.758  1.00  0.00    -0.004 C  
HETATM    3  C   UNL     1      -8.613   5.017  66.155  1.00  0.00    -0.118 C  
HETATM    4  C   UNL     1      -7.701   5.765  67.339  1.00  0.00    -0.097 C  
HETATM    5  C   UNL     1      -6.395   4.916  67.339  1.00  0.00    -0.040 C  
HETATM    6  C   UNL     1      -7.838   7.244  66.926  1.00  0.00    -0.111 C  
HETATM    7  C   UNL     1      -6.940   7.656  66.005  1.00  0.00    -0.065 C  
HETATM    8  C   UNL     1      -9.322   7.583  67.104  1.00  0.00    -0.142 C  
HETATM    9 CL   UNL     1     -10.100   8.720  66.057  1.00  0.00    -0.192 Cl 
HETATM   10  C   UNL     1     -10.103   6.917  67.996  1.00  0.00    -0.193 C  
HETATM   11  C   UNL     1      -7.009   6.647  64.861  1.00  0.00    -0.058 C  
HETATM   12  C   UNL     1      -9.538   6.027  69.107  1.00  0.00    -0.156 C  
HETATM   13  O   UNL     1      -6.076   6.296  64.159  1.00  0.00    -0.028 OA 
HETATM   14  C   UNL     1      -9.989   6.617  70.486  1.00  0.00    -0.197 C  
HETATM   15  C   UNL     1     -11.346   5.970  70.854  1.00  0.00    -0.299 C  
HETATM   16  C   UNL     1     -11.147   5.266  72.180  1.00  0.00    -0.187 C  
HETATM   17  C   UNL     1      -9.628   5.055  72.324  1.00  0.00    -0.148 C  
HETATM   18  C   UNL     1      -8.050   6.050  68.885  1.00  0.00    -0.104 C  
HETATM   19  C   UNL     1      -7.564   6.392  71.355  1.00  0.00    -0.094 C  
HETATM   20  C   UNL     1      -9.071   6.394  71.748  1.00  0.00    -0.143 C  
HETATM   21  C   UNL     1      -7.159   5.631  70.067  1.00  0.00    -0.067 C  
HETATM   22  C   UNL     1      -9.256   7.569  72.760  1.00  0.00    -0.208 C  
ENDROOT
BRANCH  17  23
HETATM   23  O   UNL     1      -9.118   4.093  71.375  1.00  0.00    -0.116 OA 
BRANCH  23  24
HETATM   24  C   UNL     1      -9.612   2.840  71.305  1.00  0.00    -0.157 C  
HETATM   25  O   UNL     1     -10.396   2.347  72.107  1.00  0.00    -0.145 OA 
HETATM   26  C   UNL     1      -9.043   2.143  70.106  1.00  0.00    -0.172 C  
ENDBRANCH  23  24
ENDBRANCH  17  23
BRANCH  17  27
HETATM   27  C   UNL     1      -9.194   4.695  73.764  1.00  0.00    -0.111 C  
HETATM   28  C   UNL     1      -7.793   5.054  74.242  1.00  0.00    -0.097 C  
HETATM   29  O   UNL     1      -9.968   4.139  74.552  1.00  0.00    -0.141 OA 
ENDBRANCH  17  27
TORSDOF 3
ENDMDL
MODEL       74
REMARK 921   NORMALIZED FREE ENERGY PREDICTED BY IDOCK:   -2.24 KCAL/MOL
REMARK 922        TOTAL FREE ENERGY PREDICTED BY IDOCK:   -3.12 KCAL/MOL
REMARK 923 INTER-LIGAND FREE ENERGY PREDICTED BY IDOCK:   -2.74 KCAL/MOL
REMARK 924 INTRA-LIGAND FREE ENERGY PREDICTED BY IDOCK:   -0.38 KCAL/MOL
REMARK 927      BINDING AFFINITY PREDICTED BY RF-SCORE:    0.00 PKD
ROOT
HETATM    1  C   UNL     1     -10.313   6.811  73.503  1.00  0.00    -0.342 C  
HETATM    2  C   UNL     1     -10.053   8.213  73.577  1.00  0.00     0.279 C  
HETATM    3  C   UNL     1      -9.310   7.742  72.327  1.00  0.00    -0.212 C  
HETATM    4  C   UNL     1      -8.952   6.563  71.199  1.00  0.00    -0.145 C  
HETATM    5  C   UNL     1      -7.492   6.172  71.578  1.00  0.00    -0.094 C  
HETATM    6  C   UNL     1     -10.201   5.666  71.302  1.00  0.00    -0.279 C  
HETATM    7  C   UNL     1     -10.140   4.727  72.271  1.00  0.00    -0.245 C  
HETATM    8  C   UNL     1     -11.368   6.532  70.814  1.00  0.00    -0.342 C  
HETATM    9 CL   UNL     1     -12.952   6.340  71.486  1.00  0.00     0.228 Cl 
HETATM   10  C   UNL     1     -11.177   7.557  69.941  1.00  0.00    -0.124 C  
HETATM   11  C   UNL     1      -9.752   5.460  73.552  1.00  0.00    -0.148 C  
HETATM   12  C   UNL     1      -9.893   7.739  69.126  1.00  0.00    -0.173 C  
HETATM   13  O   UNL     1      -9.068   5.010  74.456  1.00  0.00    -0.113 OA 
HETATM   14  C   UNL     1     -10.263   7.673  67.605  1.00  0.00    -0.277 C  
HETATM   15  C   UNL     1     -10.595   9.110  67.137  1.00  0.00    -0.286 C  
HETATM   16  C   UNL     1      -9.629   9.436  66.018  1.00  0.00    -0.328 C  
HETATM   17  C   UNL     1      -8.449   8.458  66.176  1.00  0.00    -0.131 C  
HETATM   18  C   UNL     1      -8.994   6.627  69.590  1.00  0.00    -0.142 C  
HETATM   19  C   UNL     1      -8.301   6.033  67.219  1.00  0.00    -0.105 C  
HETATM   20  C   UNL     1      -9.187   7.144  66.582  1.00  0.00    -0.193 C  
HETATM   21  C   UNL     1      -7.816   6.250  68.676  1.00  0.00    -0.102 C  
HETATM   22  C   UNL     1      -9.894   6.485  65.353  1.00  0.00     1.120 C  
ENDROOT
BRANCH  17  23
HETATM   23  O   UNL     1      -7.668   8.731  67.359  1.00  0.00    -0.095 OA 
BRANCH  23  24
HETATM   24  C   UNL     1      -7.098   9.936  67.565  1.00  0.00    -0.088 C  
HETATM   25  O   UNL     1      -7.676  11.013  67.477  1.00  0.00    -0.109 OA 
HETATM   26  C   UNL     1      -5.648   9.754  67.900  1.00  0.00    -0.040 C  
ENDBRANCH  23  24
ENDBRANCH  17  23
BRANCH  17  27
HETATM   27  C   UNL     1      -7.547   8.378  64.923  1.00  0.00    -0.100 C  
HETATM   28  C   UNL     1      -6.455   7.320  64.845  1.00  0.00    -0.037 C  
HETATM   29  O   UNL     1      -7.705   9.143  63.964  1.00  0.00    -0.112 OA 
ENDBRANCH  17  27
TORSDOF 3
ENDMDL
MODEL       75
REMARK 921   NORMALIZED FREE ENERGY PREDICTED BY IDOCK:   -2.23 KCAL/MOL
REMARK 922        TOTAL FREE ENERGY PREDICTED BY IDOCK:   -3.11 KCAL/MOL
REMARK 923 INTER-LIGAND FREE ENERGY PREDICTED BY IDOCK:   -2.19 KCAL/MOL
REMARK 924 INTRA-LIGAND FREE ENERGY PREDICTED BY IDOCK:   -0.92 KCAL/MOL
REMARK 927      BINDING AFFINITY PREDICTED BY RF-SCORE:    0.00 PKD
ROOT
HETATM    1  C   UNL     1     -10.172  14.010  64.994  1.00  0.00    -0.395 C  
HETATM    2  C   UNL     1      -9.548  13.190  64.006  1.00  0.00     1.101 C  
HETATM    3  C   UNL     1      -9.162  12.556  65.342  1.00  0.00     0.341 C  
HETATM    4  C   UNL     1      -9.308  12.449  67.003  1.00  0.00    -0.204 C  
HETATM    5  C   UNL     1      -7.959  13.054  67.495  1.00  0.00    -0.177 C  
HETATM    6  C   UNL     1     -10.715  13.042  67.215  1.00  0.00    -0.261 C  
HETATM    7  C   UNL     1     -10.747  14.389  67.321  1.00  0.00    -0.285 C  
HETATM    8  C   UNL     1     -11.678  12.065  66.532  1.00  0.00    -0.256 C  
HETATM    9 CL   UNL     1     -13.129  12.635  65.780  1.00  0.00     0.864 Cl 
HETATM   10  C   UNL     1     -11.369  10.749  66.382  1.00  0.00     0.306 C  
HETATM   11  C   UNL     1      -9.981  14.930  66.116  1.00  0.00    -0.303 C  
HETATM   12  C   UNL     1     -10.230  10.061  67.138  1.00  0.00    -0.284 C  
HETATM   13  O   UNL     1      -9.303  15.943  66.094  1.00  0.00    -0.294 OA 
HETATM   14  C   UNL     1     -10.842   8.914  68.011  1.00  0.00    -0.079 C  
HETATM   15  C   UNL     1     -10.858   7.626  67.153  1.00  0.00    -0.258 C  
HETATM   16  C   UNL     1     -10.032   6.598  67.896  1.00  0.00    -0.152 C  
HETATM   17  C   UNL     1      -9.138   7.393  68.867  1.00  0.00    -0.136 C  
HETATM   18  C   UNL     1      -9.589  11.165  67.934  1.00  0.00    -0.181 C  
HETATM   19  C   UNL     1      -9.461   9.742  70.035  1.00  0.00    -0.278 C  
HETATM   20  C   UNL     1     -10.118   8.507  69.351  1.00  0.00    -0.205 C  
HETATM   21  C   UNL     1      -8.711  10.750  69.127  1.00  0.00    -0.101 C  
HETATM   22  C   UNL     1     -11.158   7.945  70.373  1.00  0.00    -0.249 C  
ENDROOT
BRANCH  17  23
HETATM   23  O   UNL     1      -8.134   8.167  68.176  1.00  0.00    -0.124 OA 
BRANCH  23  24
HETATM   24  C   UNL     1      -7.250   7.588  67.338  1.00  0.00    -0.087 C  
HETATM   25  O   UNL     1      -6.510   6.655  67.630  1.00  0.00    -0.041 OA 
HETATM   26  C   UNL     1      -7.302   8.270  66.005  1.00  0.00    -0.080 C  
ENDBRANCH  23  24
ENDBRANCH  17  23
BRANCH  17  27
HETATM   27  C   UNL     1      -8.500   6.516  69.969  1.00  0.00    -0.135 C  
HETATM   28  C   UNL     1      -8.942   5.068  70.133  1.00  0.00    -0.147 C  
HETATM   29  O   UNL     1      -7.616   6.957  70.714  1.00  0.00    -0.088 OA 
ENDBRANCH  17  27
TORSDOF 3
ENDMDL
MODEL       76
REMARK 921   NORMALIZED FREE ENERGY PREDICTED BY IDOCK:   -1.98 KCAL/MOL
REMARK 922        TOTAL FREE ENERGY PREDICTED BY IDOCK:   -2.81 KCAL/MOL
REMARK 923 INTER-LIGAND FREE ENERGY PREDICTED BY IDOCK:   -2.78 KCAL/MOL
REMARK 924 INTRA-LIGAND FREE ENERGY PREDICTED BY IDOCK:   -0.03 KCAL/MOL
REMARK 927      BINDING AFFINITY PREDICTED BY RF-SCORE:    0.00 PKD
ROOT
HETATM    1  C   UNL     1      -6.551  12.878  69.092  1.00  0.00    -0.104 C  
HETATM    2  C   UNL     1      -5.942  12.202  70.192  1.00  0.00    -0.154 C  
HETATM    3  C   UNL     1      -7.059  11.268  69.729  1.00  0.00     0.045 C  
HETATM    4  C   UNL     1      -8.250  10.847  68.635  1.00  0.00    -0.146 C  
HETATM    5  C   UNL     1      -9.555  11.164  69.425  1.00  0.00     0.187 C  
HETATM    6  C   UNL     1      -7.747  11.558  67.363  1.00  0.00    -0.143 C  
HETATM    7  C   UNL     1      -8.132  12.848  67.251  1.00  0.00    -0.164 C  
HETATM    8  C   UNL     1      -6.427  10.869  67.003  1.00  0.00    -0.085 C  
HETATM    9 CL   UNL     1      -5.139  11.758  66.263  1.00  0.00     0.041 Cl 
HETATM   10  C   UNL     1      -6.173   9.582  67.364  1.00  0.00    -0.060 C  
HETATM   11  C   UNL     1      -7.758  13.520  68.570  1.00  0.00    -0.125 C  
HETATM   12  C   UNL     1      -7.257   8.617  67.852  1.00  0.00    -0.088 C  
HETATM   13  O   UNL     1      -8.372  14.423  69.113  1.00  0.00    -0.075 OA 
HETATM   14  C   UNL     1      -7.316   7.403  66.863  1.00  0.00    -0.093 C  
HETATM   15  C   UNL     1      -6.328   6.328  67.377  1.00  0.00    -0.037 C  
HETATM   16  C   UNL     1      -7.141   5.075  67.626  1.00  0.00    -0.066 C  
HETATM   17  C   UNL     1      -8.604   5.538  67.762  1.00  0.00    -0.108 C  
HETATM   18  C   UNL     1      -8.511   9.447  67.882  1.00  0.00    -0.116 C  
HETATM   19  C   UNL     1      -9.891   7.624  66.773  1.00  0.00    -0.307 C  
HETATM   20  C   UNL     1      -8.684   6.646  66.667  1.00  0.00    -0.126 C  
HETATM   21  C   UNL     1      -9.851   8.692  67.896  1.00  0.00    -0.211 C  
HETATM   22  C   UNL     1      -8.752   6.025  65.234  1.00  0.00    -0.054 C  
ENDROOT
BRANCH  17  23
HETATM   23  O   UNL     1      -8.824   6.302  68.968  1.00  0.00    -0.124 OA 
BRANCH  23  24
HETATM   24  C   UNL     1      -8.734   5.736  70.188  1.00  0.00    -0.139 C  
HETATM   25  O   UNL     1      -9.608   5.057  70.716  1.00  0.00    -0.158 OA 
HETATM   26  C   UNL     1      -7.411   6.080  70.804  1.00  0.00    -0.091 C  
ENDBRANCH  23  24
ENDBRANCH  17  23
BRANCH  17  27
HETATM   27  C   UNL     1      -9.625   4.383  67.645  1.00  0.00    -0.166 C  
HETATM   28  C   UNL     1      -9.306   3.028  68.263  1.00  0.00    -0.253 C  
HETATM   29  O   UNL     1     -10.712   4.538  67.076  1.00  0.00     0.140 OA 
ENDBRANCH  17  27
TORSDOF 3
ENDMDL
MODEL       77
REMARK 921   NORMALIZED FREE ENERGY PREDICTED BY IDOCK:   -1.84 KCAL/MOL
REMARK 922        TOTAL FREE ENERGY PREDICTED BY IDOCK:   -2.64 KCAL/MOL
REMARK 923 INTER-LIGAND FREE ENERGY PREDICTED BY IDOCK:   -3.11 KCAL/MOL
REMARK 924 INTRA-LIGAND FREE ENERGY PREDICTED BY IDOCK:    0.47 KCAL/MOL
REMARK 927      BINDING AFFINITY PREDICTED BY RF-SCORE:    0.00 PKD
ROOT
HETATM    1  C   UNL     1      -7.162   4.872  74.117  1.00  0.00    -0.082 C  
HETATM    2  C   UNL     1      -7.185   6.299  74.153  1.00  0.00    -0.086 C  
HETATM    3  C   UNL     1      -6.934   5.949  72.687  1.00  0.00    -0.080 C  
HETATM    4  C   UNL     1      -6.833   4.830  71.450  1.00  0.00    -0.039 C  
HETATM    5  C   UNL     1      -5.298   4.764  71.187  1.00  0.00    -0.004 C  
HETATM    6  C   UNL     1      -7.722   3.699  72.001  1.00  0.00    -0.059 C  
HETATM    7  C   UNL     1      -7.084   2.827  72.813  1.00  0.00    -0.035 C  
HETATM    8  C   UNL     1      -9.136   4.287  72.072  1.00  0.00    -0.121 C  
HETATM    9 CL   UNL     1     -10.236   3.795  73.315  1.00  0.00    -0.204 Cl 
HETATM   10  C   UNL     1      -9.528   5.298  71.251  1.00  0.00    -0.197 C  
HETATM   11  C   UNL     1      -6.367   3.669  73.865  1.00  0.00    -0.025 C  
HETATM   12  C   UNL     1      -8.752   5.713  69.998  1.00  0.00    -0.132 C  
HETATM   13  O   UNL     1      -5.300   3.402  74.390  1.00  0.00     0.000 OA 
HETATM   14  C   UNL     1      -9.684   5.518  68.755  1.00  0.00    -0.190 C  
HETATM   15  C   UNL     1     -10.462   6.838  68.537  1.00  0.00    -0.234 C  
HETATM   16  C   UNL     1     -10.121   7.317  67.142  1.00  0.00    -0.306 C  
HETATM   17  C   UNL     1      -8.807   6.610  66.759  1.00  0.00    -0.130 C  
HETATM   18  C   UNL     1      -7.536   4.827  70.001  1.00  0.00    -0.055 C  
HETATM   19  C   UNL     1      -7.759   4.307  67.524  1.00  0.00    -0.084 C  
HETATM   20  C   UNL     1      -9.033   5.188  67.358  1.00  0.00    -0.109 C  
HETATM   21  C   UNL     1      -6.780   4.671  68.671  1.00  0.00    -0.050 C  
HETATM   22  C   UNL     1     -10.027   4.354  66.487  1.00  0.00    -0.245 C  
ENDROOT
BRANCH  17  23
HETATM   23  O   UNL     1      -7.686   7.081  67.539  1.00  0.00    -0.107 OA 
BRANCH  23  24
HETATM   24  C   UNL     1      -7.535   8.387  67.840  1.00  0.00    -0.098 C  
HETATM   25  O   UNL     1      -7.929   9.319  67.148  1.00  0.00    -0.105 OA 
HETATM   26  C   UNL     1      -6.799   8.520  69.138  1.00  0.00    -0.058 C  
ENDBRANCH  23  24
ENDBRANCH  17  23
BRANCH  17  27
HETATM   27  C   UNL     1      -8.495   6.675  65.246  1.00  0.00    -0.073 C  
HETATM   28  C   UNL     1      -8.247   5.388  64.470  1.00  0.00    -0.133 C  
HETATM   29  O   UNL     1      -8.462   7.753  64.639  1.00  0.00    -0.071 OA 
ENDBRANCH  17  27
TORSDOF 3
ENDMDL
MODEL       78
REMARK 921   NORMALIZED FREE ENERGY PREDICTED BY IDOCK:   -0.58 KCAL/MOL
REMARK 922        TOTAL FREE ENERGY PREDICTED BY IDOCK:   -1.16 KCAL/MOL
REMARK 923 INTER-LIGAND FREE ENERGY PREDICTED BY IDOCK:   -1.13 KCAL/MOL
REMARK 924 INTRA-LIGAND FREE ENERGY PREDICTED BY IDOCK:   -0.03 KCAL/MOL
REMARK 927      BINDING AFFINITY PREDICTED BY RF-SCORE:    0.00 PKD
ROOT
HETATM    1  C   UNL     1     -11.286  14.193  67.556  1.00  0.00    -0.323 C  
HETATM    2  C   UNL     1      -9.957  14.715  67.518  1.00  0.00    -0.223 C  
HETATM    3  C   UNL     1      -9.785  13.227  67.824  1.00  0.00    -0.217 C  
HETATM    4  C   UNL     1     -10.414  11.687  67.979  1.00  0.00    -0.217 C  
HETATM    5  C   UNL     1     -10.391  11.473  69.523  1.00  0.00     0.203 C  
HETATM    6  C   UNL     1     -11.663  11.785  67.082  1.00  0.00    -0.267 C  
HETATM    7  C   UNL     1     -12.762  12.272  67.699  1.00  0.00     2.113 C  
HETATM    8  C   UNL     1     -11.130  12.001  65.661  1.00  0.00    -0.313 C  
HETATM    9 CL   UNL     1     -12.014  12.960  64.523  1.00  0.00    -0.424 Cl 
HETATM   10  C   UNL     1      -9.898  11.562  65.288  1.00  0.00    -0.286 C  
HETATM   11  C   UNL     1     -12.332  13.574  68.371  1.00  0.00     0.092 C  
HETATM   12  C   UNL     1      -9.082  10.556  66.104  1.00  0.00    -0.184 C  
HETATM   13  O   UNL     1     -12.766  14.015  69.421  1.00  0.00    -0.056 OA 
HETATM   14  C   UNL     1      -8.837   9.287  65.218  1.00  0.00    -0.237 C  
HETATM   15  C   UNL     1      -7.520   9.506  64.436  1.00  0.00    -0.118 C  
HETATM   16  C   UNL     1      -6.593   8.372  64.821  1.00  0.00    -0.068 C  
HETATM   17  C   UNL     1      -7.130   7.819  66.154  1.00  0.00    -0.069 C  
HETATM   18  C   UNL     1      -9.919  10.300  67.328  1.00  0.00    -0.233 C  
HETATM   19  C   UNL     1      -9.559   7.788  67.197  1.00  0.00    -0.220 C  
HETATM   20  C   UNL     1      -8.672   7.887  65.921  1.00  0.00    -0.180 C  
HETATM   21  C   UNL     1      -9.613   9.024  68.131  1.00  0.00    -0.164 C  
HETATM   22  C   UNL     1      -9.153   6.747  64.966  1.00  0.00     0.578 C  
ENDROOT
BRANCH  17  23
HETATM   23  O   UNL     1      -6.958   8.753  67.242  1.00  0.00    -0.073 OA 
BRANCH  23  24
HETATM   24  C   UNL     1      -5.734   9.159  67.636  1.00  0.00    -0.042 C  
HETATM   25  O   UNL     1      -5.152   8.767  68.641  1.00  0.00    -0.033 OA 
HETATM   26  C   UNL     1      -5.205  10.172  66.666  1.00  0.00    -0.040 C  
ENDBRANCH  23  24
ENDBRANCH  17  23
BRANCH  17  27
HETATM   27  C   UNL     1      -6.553   6.432  66.519  1.00  0.00    -0.048 C  
HETATM   28  C   UNL     1      -5.245   5.969  65.891  1.00  0.00    -0.013 C  
HETATM   29  O   UNL     1      -7.119   5.690  67.331  1.00  0.00    -0.071 OA 
ENDBRANCH  17  27
TORSDOF 3
ENDMDL
MODEL       79
REMARK 921   NORMALIZED FREE ENERGY PREDICTED BY IDOCK:   -0.37 KCAL/MOL
REMARK 922        TOTAL FREE ENERGY PREDICTED BY IDOCK:   -0.92 KCAL/MOL
REMARK 923 INTER-LIGAND FREE ENERGY PREDICTED BY IDOCK:   -2.08 KCAL/MOL
REMARK 924 INTRA-LIGAND FREE ENERGY PREDICTED BY IDOCK:    1.16 KCAL/MOL
REMARK 927      BINDING AFFINITY PREDICTED BY RF-SCORE:    0.00 PKD
ROOT
HETATM    1  C   UNL     1     -10.171   7.901  72.344  1.00  0.00    -0.327 C  
HETATM    2  C   UNL     1      -9.781   9.174  71.829  1.00  0.00    -0.182 C  
HETATM    3  C   UNL     1      -9.022   8.157  70.977  1.00  0.00    -0.173 C  
HETATM    4  C   UNL     1      -8.721   6.583  70.506  1.00  0.00    -0.144 C  
HETATM    5  C   UNL     1      -7.327   6.305  71.145  1.00  0.00    -0.080 C  
HETATM    6  C   UNL     1     -10.055   5.904  70.874  1.00  0.00    -0.251 C  
HETATM    7  C   UNL     1     -10.136   5.482  72.155  1.00  0.00    -0.231 C  
HETATM    8  C   UNL     1     -11.105   6.542  69.958  1.00  0.00    -0.363 C  
HETATM    9 CL   UNL     1     -12.733   6.765  70.501  1.00  0.00    -0.035 Cl 
HETATM   10  C   UNL     1     -10.771   7.066  68.748  1.00  0.00    -0.226 C  
HETATM   11  C   UNL     1      -9.746   6.676  73.022  1.00  0.00    -0.159 C  
HETATM   12  C   UNL     1      -9.434   6.790  68.052  1.00  0.00    -0.119 C  
HETATM   13  O   UNL     1      -9.158   6.624  74.089  1.00  0.00    -0.156 OA 
HETATM   14  C   UNL     1      -9.728   6.088  66.683  1.00  0.00    -0.189 C  
HETATM   15  C   UNL     1      -9.894   7.193  65.613  1.00  0.00     0.891 C  
HETATM   16  C   UNL     1      -8.844   6.934  64.554  1.00  0.00     0.627 C  
HETATM   17  C   UNL     1      -7.775   6.050  65.224  1.00  0.00    -0.093 C  
HETATM   18  C   UNL     1      -8.672   5.938  69.030  1.00  0.00    -0.114 C  
HETATM   19  C   UNL     1      -7.916   4.323  67.221  1.00  0.00    -0.096 C  
HETATM   20  C   UNL     1      -8.656   5.097  66.090  1.00  0.00    -0.117 C  
HETATM   21  C   UNL     1      -7.490   5.125  68.478  1.00  0.00    -0.074 C  
HETATM   22  C   UNL     1      -9.357   4.014  65.208  1.00  0.00    -0.163 C  
ENDROOT
BRANCH  17  23
HETATM   23  O   UNL     1      -7.033   6.764  66.238  1.00  0.00    -0.059 OA 
BRANCH  23  24
HETATM   24  C   UNL     1      -6.416   7.932  65.969  1.00  0.00    -0.046 C  
HETATM   25  O   UNL     1      -5.503   8.415  66.629  1.00  0.00    -0.031 OA 
HETATM   26  C   UNL     1      -7.029   8.555  64.751  1.00  0.00    -0.073 C  
ENDBRANCH  23  24
ENDBRANCH  17  23
BRANCH  17  27
HETATM   27  C   UNL     1      -6.820   5.372  64.215  1.00  0.00    -0.047 C  
HETATM   28  C   UNL     1      -5.680   4.500  64.723  1.00  0.00    -0.014 C  
HETATM   29  O   UNL     1      -6.972   5.503  62.994  1.00  0.00    -0.035 OA 
ENDBRANCH  17  27
TORSDOF 3
ENDMDL
MODEL       80
REMARK 921   NORMALIZED FREE ENERGY PREDICTED BY IDOCK:   -0.22 KCAL/MOL
REMARK 922        TOTAL FREE ENERGY PREDICTED BY IDOCK:   -0.74 KCAL/MOL
REMARK 923 INTER-LIGAND FREE ENERGY PREDICTED BY IDOCK:   -1.64 KCAL/MOL
REMARK 924 INTRA-LIGAND FREE ENERGY PREDICTED BY IDOCK:    0.89 KCAL/MOL
REMARK 927      BINDING AFFINITY PREDICTED BY RF-SCORE:    0.00 PKD
ROOT
HETATM    1  C   UNL     1      -8.865  19.688  68.670  1.00  0.00    -0.323 C  
HETATM    2  C   UNL     1     -10.173  19.545  69.224  1.00  0.00    -0.183 C  
HETATM    3  C   UNL     1     -10.067  18.434  68.180  1.00  0.00    -0.408 C  
HETATM    4  C   UNL     1      -9.174  17.539  67.087  1.00  0.00    -0.245 C  
HETATM    5  C   UNL     1      -9.704  18.060  65.718  1.00  0.00     0.184 C  
HETATM    6  C   UNL     1      -7.751  17.716  67.652  1.00  0.00    -0.211 C  
HETATM    7  C   UNL     1      -7.113  18.829  67.227  1.00  0.00    -0.211 C  
HETATM    8  C   UNL     1      -7.765  17.026  69.020  1.00  0.00    -0.180 C  
HETATM    9 CL   UNL     1      -6.796  17.628  70.323  1.00  0.00     0.882 Cl 
HETATM   10  C   UNL     1      -8.623  16.008  69.296  1.00  0.00    -0.224 C  
HETATM   11  C   UNL     1      -8.069  19.992  67.480  1.00  0.00    -0.316 C  
HETATM   12  C   UNL     1      -9.401  15.249  68.217  1.00  0.00    -0.194 C  
HETATM   13  O   UNL     1      -8.174  20.995  66.795  1.00  0.00     0.044 OA 
HETATM   14  C   UNL     1      -8.980  13.742  68.276  1.00  0.00    -0.186 C  
HETATM   15  C   UNL     1      -9.930  13.025  69.265  1.00  0.00     0.546 C  
HETATM   16  C   UNL     1     -10.619  11.924  68.485  1.00  0.00    -0.245 C  
HETATM   17  C   UNL     1     -10.485  12.309  67.000  1.00  0.00    -0.216 C  
HETATM   18  C   UNL     1      -9.033  15.941  66.934  1.00  0.00    -0.257 C  
HETATM   19  C   UNL     1      -8.679  13.744  65.708  1.00  0.00     1.214 C  
HETATM   20  C   UNL     1      -9.034  12.883  66.956  1.00  0.00    -0.225 C  
HETATM   21  C   UNL     1      -9.281  15.170  65.626  1.00  0.00     0.054 C  
HETATM   22  C   UNL     1      -7.969  11.741  67.014  1.00  0.00    -0.164 C  
ENDROOT
BRANCH  17  23
HETATM   23  O   UNL     1     -11.270  13.474  66.664  1.00  0.00    -0.301 OA 
BRANCH  23  24
HETATM   24  C   UNL     1     -12.382  13.381  65.906  1.00  0.00    -0.437 C  
HETATM   25  O   UNL     1     -13.090  12.384  65.814  1.00  0.00     0.397 OA 
HETATM   26  C   UNL     1     -12.605  14.675  65.184  1.00  0.00    -0.141 C  
ENDBRANCH  23  24
ENDBRANCH  17  23
BRANCH  17  27
HETATM   27  C   UNL     1     -10.788  11.140  66.034  1.00  0.00    -0.166 C  
HETATM   28  C   UNL     1     -10.556  11.315  64.539  1.00  0.00    -0.401 C  
HETATM   29  O   UNL     1     -11.197  10.049  66.450  1.00  0.00     0.279 OA 
ENDBRANCH  17  27
TORSDOF 3
ENDMDL
MODEL       81
REMARK 921   NORMALIZED FREE ENERGY PREDICTED BY IDOCK:   -0.01 KCAL/MOL
REMARK 922        TOTAL FREE ENERGY PREDICTED BY IDOCK:   -0.49 KCAL/MOL
REMARK 923 INTER-LIGAND FREE ENERGY PREDICTED BY IDOCK:    0.25 KCAL/MOL
REMARK 924 INTRA-LIGAND FREE ENERGY PREDICTED BY IDOCK:   -0.74 KCAL/MOL
REMARK 927      BINDING AFFINITY PREDICTED BY RF-SCORE:    0.00 PKD
ROOT
HETATM    1  C   UNL     1     -13.348   8.732  71.528  1.00  0.00    -0.355 C  
HETATM    2  C   UNL     1     -13.937   7.833  70.588  1.00  0.00     0.660 C  
HETATM    3  C   UNL     1     -12.552   8.141  70.020  1.00  0.00     1.440 C  
HETATM    4  C   UNL     1     -11.034   8.824  70.165  1.00  0.00    -0.236 C  
HETATM    5  C   UNL     1     -11.126  10.046  69.202  1.00  0.00    -0.232 C  
HETATM    6  C   UNL     1     -10.874   8.868  71.697  1.00  0.00    -0.420 C  
HETATM    7  C   UNL     1     -11.399   9.965  72.285  1.00  0.00     1.353 C  
HETATM    8  C   UNL     1     -10.844   7.404  72.148  1.00  0.00    -0.235 C  
HETATM    9 CL   UNL     1     -11.503   6.937  73.679  1.00  0.00     0.520 Cl 
HETATM   10  C   UNL     1     -10.421   6.412  71.319  1.00  0.00    -0.258 C  
HETATM   11  C   UNL     1     -12.832  10.080  71.771  1.00  0.00    -0.446 C  
HETATM   12  C   UNL     1      -9.648   6.672  70.022  1.00  0.00    -0.163 C  
HETATM   13  O   UNL     1     -13.440  11.118  71.571  1.00  0.00    -0.208 OA 
HETATM   14  C   UNL     1      -8.250   5.974  70.135  1.00  0.00    -0.119 C  
HETATM   15  C   UNL     1      -8.397   4.533  69.590  1.00  0.00    -0.079 C  
HETATM   16  C   UNL     1      -7.423   4.403  68.439  1.00  0.00    -0.064 C  
HETATM   17  C   UNL     1      -7.106   5.840  67.986  1.00  0.00    -0.071 C  
HETATM   18  C   UNL     1      -9.582   8.171  69.921  1.00  0.00    -0.175 C  
HETATM   19  C   UNL     1      -7.121   8.141  69.288  1.00  0.00    -0.060 C  
HETATM   20  C   UNL     1      -7.027   6.588  69.353  1.00  0.00    -0.071 C  
HETATM   21  C   UNL     1      -8.509   8.763  68.991  1.00  0.00    -0.130 C  
HETATM   22  C   UNL     1      -5.695   6.263  70.103  1.00  0.00    -0.014 C  
ENDROOT
BRANCH  17  23
HETATM   23  O   UNL     1      -8.243   6.481  67.368  1.00  0.00    -0.119 OA 
BRANCH  23  24
HETATM   24  C   UNL     1      -8.611   6.198  66.102  1.00  0.00    -0.141 C  
HETATM   25  O   UNL     1      -8.781   5.070  65.653  1.00  0.00    -0.129 OA 
HETATM   26  C   UNL     1      -8.761   7.472  65.326  1.00  0.00     0.043 C  
ENDBRANCH  23  24
ENDBRANCH  17  23
BRANCH  17  27
HETATM   27  C   UNL     1      -5.857   5.936  67.080  1.00  0.00    -0.017 C  
HETATM   28  C   UNL     1      -5.186   4.662  66.583  1.00  0.00    -0.009 C  
HETATM   29  O   UNL     1      -5.397   7.029  66.727  1.00  0.00    -0.020 OA 
ENDBRANCH  17  27
TORSDOF 3
ENDMDL
MODEL       82
REMARK 921   NORMALIZED FREE ENERGY PREDICTED BY IDOCK:    0.39 KCAL/MOL
REMARK 922        TOTAL FREE ENERGY PREDICTED BY IDOCK:   -0.03 KCAL/MOL
REMARK 923 INTER-LIGAND FREE ENERGY PREDICTED BY IDOCK:    0.21 KCAL/MOL
REMARK 924 INTRA-LIGAND FREE ENERGY PREDICTED BY IDOCK:   -0.24 KCAL/MOL
REMARK 927      BINDING AFFINITY PREDICTED BY RF-SCORE:    0.00 PKD
ROOT
HETATM    1  C   UNL     1     -11.620  12.196  63.994  1.00  0.00    -0.504 C  
HETATM    2  C   UNL     1     -12.752  11.475  64.481  1.00  0.00     0.827 C  
HETATM    3  C   UNL     1     -11.978  11.882  65.735  1.00  0.00     0.022 C  
HETATM    4  C   UNL     1     -10.749  12.735  66.478  1.00  0.00    -0.277 C  
HETATM    5  C   UNL     1      -9.743  11.607  66.858  1.00  0.00    -0.211 C  
HETATM    6  C   UNL     1     -10.519  13.870  65.461  1.00  0.00    -0.333 C  
HETATM    7  C   UNL     1      -9.668  13.562  64.458  1.00  0.00     0.434 C  
HETATM    8  C   UNL     1     -11.814  14.691  65.464  1.00  0.00    -0.292 C  
HETATM    9 CL   UNL     1     -12.371  15.466  64.020  1.00  0.00    -0.151 Cl 
HETATM   10  C   UNL     1     -12.628  14.733  66.552  1.00  0.00     0.428 C  
HETATM   11  C   UNL     1     -10.163  12.243  63.869  1.00  0.00    -0.395 C  
HETATM   12  C   UNL     1     -12.196  14.261  67.944  1.00  0.00    -0.185 C  
HETATM   13  O   UNL     1      -9.464  11.363  63.397  1.00  0.00    -0.281 OA 
HETATM   14  C   UNL     1     -12.283  15.480  68.924  1.00  0.00    -0.097 C  
HETATM   15  C   UNL     1     -13.708  15.498  69.529  1.00  0.00     2.399 C  
HETATM   16  C   UNL     1     -13.544  15.387  71.030  1.00  0.00    -0.465 C  
HETATM   17  C   UNL     1     -12.139  14.800  71.262  1.00  0.00    -0.341 C  
HETATM   18  C   UNL     1     -10.803  13.731  67.743  1.00  0.00    -0.262 C  
HETATM   19  C   UNL     1      -9.926  14.905  69.819  1.00  0.00     0.018 C  
HETATM   20  C   UNL     1     -11.309  15.533  70.162  1.00  0.00    -0.339 C  
HETATM   21  C   UNL     1      -9.920  13.592  68.995  1.00  0.00     0.122 C  
HETATM   22  C   UNL     1     -11.027  17.018  70.559  1.00  0.00     0.554 C  
ENDROOT
BRANCH  17  23
HETATM   23  O   UNL     1     -12.045  13.424  70.831  1.00  0.00    -0.326 OA 
BRANCH  23  24
HETATM   24  C   UNL     1     -12.789  12.454  71.399  1.00  0.00    -0.260 C  
HETATM   25  O   UNL     1     -13.666  12.638  72.235  1.00  0.00    -0.507 OA 
HETATM   26  C   UNL     1     -12.366  11.120  70.863  1.00  0.00    -0.500 C  
ENDBRANCH  23  24
ENDBRANCH  17  23
BRANCH  17  27
HETATM   27  C   UNL     1     -11.641  14.959  72.717  1.00  0.00    -0.071 C  
HETATM   28  C   UNL     1     -12.643  15.219  73.834  1.00  0.00    -0.731 C  
HETATM   29  O   UNL     1     -10.442  14.858  73.003  1.00  0.00     1.939 OA 
ENDBRANCH  17  27
TORSDOF 3
ENDMDL
MODEL       83
REMARK 921   NORMALIZED FREE ENERGY PREDICTED BY IDOCK:    0.97 KCAL/MOL
REMARK 922        TOTAL FREE ENERGY PREDICTED BY IDOCK:    0.66 KCAL/MOL
REMARK 923 INTER-LIGAND FREE ENERGY PREDICTED BY IDOCK:   -2.46 KCAL/MOL
REMARK 924 INTRA-LIGAND FREE ENERGY PREDICTED BY IDOCK:    3.12 KCAL/MOL
REMARK 927      BINDING AFFINITY PREDICTED BY RF-SCORE:    0.00 PKD
ROOT
HETATM    1  C   UNL     1      -7.593   6.963  70.324  1.00  0.00    -0.091 C  
HETATM    2  C   UNL     1      -7.506   6.674  68.928  1.00  0.00    -0.096 C  
HETATM    3  C   UNL     1      -8.448   7.875  69.022  1.00  0.00    -0.131 C  
HETATM    4  C   UNL     1      -9.173   9.095  69.903  1.00  0.00    -0.194 C  
HETATM    5  C   UNL     1     -10.644   8.594  70.015  1.00  0.00    -0.233 C  
HETATM    6  C   UNL     1      -8.167   9.264  71.058  1.00  0.00    -0.122 C  
HETATM    7  C   UNL     1      -8.362   8.427  72.100  1.00  0.00    -0.225 C  
HETATM    8  C   UNL     1      -6.877   9.773  70.406  1.00  0.00    -0.135 C  
HETATM    9 CL   UNL     1      -5.330   9.332  71.046  1.00  0.00    -0.032 Cl 
HETATM   10  C   UNL     1      -6.897  10.475  69.241  1.00  0.00    -0.079 C  
HETATM   11  C   UNL     1      -8.451   7.022  71.508  1.00  0.00    -0.116 C  
HETATM   12  C   UNL     1      -8.168  11.096  68.655  1.00  0.00    -0.152 C  
HETATM   13  O   UNL     1      -9.139   6.109  71.931  1.00  0.00    -0.141 OA 
HETATM   14  C   UNL     1      -7.961  12.646  68.564  1.00  0.00    -0.093 C  
HETATM   15  C   UNL     1      -7.342  12.959  67.181  1.00  0.00     0.002 C  
HETATM   16  C   UNL     1      -8.299  13.898  66.479  1.00  0.00     0.421 C  
HETATM   17  C   UNL     1      -9.657  13.726  67.184  1.00  0.00    -0.244 C  
HETATM   18  C   UNL     1      -9.260  10.675  69.600  1.00  0.00     0.114 C  
HETATM   19  C   UNL     1     -10.282  13.000  69.648  1.00  0.00     1.013 C  
HETATM   20  C   UNL     1      -9.218  13.590  68.676  1.00  0.00    -0.022 C  
HETATM   21  C   UNL     1     -10.570  11.479  69.559  1.00  0.00     0.024 C  
HETATM   22  C   UNL     1      -8.800  14.971  69.274  1.00  0.00    -0.157 C  
ENDROOT
BRANCH  17  23
HETATM   23  O   UNL     1     -10.244  12.431  66.933  1.00  0.00    -0.222 OA 
BRANCH  23  24
HETATM   24  C   UNL     1     -11.564  12.287  66.700  1.00  0.00    -0.375 C  
HETATM   25  O   UNL     1     -12.183  12.829  65.791  1.00  0.00    -0.475 OA 
HETATM   26  C   UNL     1     -12.159  11.378  67.734  1.00  0.00     0.150 C  
ENDBRANCH  23  24
ENDBRANCH  17  23
BRANCH  17  27
HETATM   27  C   UNL     1     -10.660  14.859  66.867  1.00  0.00    -0.300 C  
HETATM   28  C   UNL     1     -11.728  15.231  67.887  1.00  0.00    -0.233 C  
HETATM   29  O   UNL     1     -10.605  15.492  65.805  1.00  0.00    -0.318 OA 
ENDBRANCH  17  27
TORSDOF 3
ENDMDL
MODEL       84
REMARK 921   NORMALIZED FREE ENERGY PREDICTED BY IDOCK:    0.99 KCAL/MOL
REMARK 922        TOTAL FREE ENERGY PREDICTED BY IDOCK:    0.68 KCAL/MOL
REMARK 923 INTER-LIGAND FREE ENERGY PREDICTED BY IDOCK:   -0.08 KCAL/MOL
REMARK 924 INTRA-LIGAND FREE ENERGY PREDICTED BY IDOCK:    0.76 KCAL/MOL
REMARK 927      BINDING AFFINITY PREDICTED BY RF-SCORE:    0.00 PKD
ROOT
HETATM    1  C   UNL     1      -9.695   5.737  65.103  1.00  0.00     0.645 C  
HETATM    2  C   UNL     1     -10.289   4.630  65.781  1.00  0.00    -0.295 C  
HETATM    3  C   UNL     1      -9.138   5.070  66.685  1.00  0.00    -0.119 C  
HETATM    4  C   UNL     1      -7.927   6.149  67.084  1.00  0.00    -0.102 C  
HETATM    5  C   UNL     1      -6.639   5.356  66.710  1.00  0.00    -0.056 C  
HETATM    6  C   UNL     1      -8.444   7.436  66.412  1.00  0.00    -0.129 C  
HETATM    7  C   UNL     1      -8.102   7.568  65.111  1.00  0.00    -0.130 C  
HETATM    8  C   UNL     1      -9.738   7.792  67.151  1.00  0.00    -0.186 C  
HETATM    9 CL   UNL     1     -11.050   8.556  66.318  1.00  0.00     1.375 Cl 
HETATM   10  C   UNL     1      -9.951   7.411  68.439  1.00  0.00    -0.177 C  
HETATM   11  C   UNL     1      -8.507   6.263  64.430  1.00  0.00     0.115 C  
HETATM   12  C   UNL     1      -8.838   6.900  69.359  1.00  0.00    -0.136 C  
HETATM   13  O   UNL     1      -7.927   5.732  63.498  1.00  0.00    -0.101 OA 
HETATM   14  C   UNL     1      -8.733   7.867  70.587  1.00  0.00    -0.135 C  
HETATM   15  C   UNL     1      -9.687   7.341  71.685  1.00  0.00    -0.166 C  
HETATM   16  C   UNL     1      -8.835   7.066  72.906  1.00  0.00    -0.146 C  
HETATM   17  C   UNL     1      -7.389   6.928  72.392  1.00  0.00    -0.086 C  
HETATM   18  C   UNL     1      -7.613   6.876  68.487  1.00  0.00    -0.111 C  
HETATM   19  C   UNL     1      -6.166   7.945  70.281  1.00  0.00    -0.033 C  
HETATM   20  C   UNL     1      -7.339   8.042  71.301  1.00  0.00    -0.067 C  
HETATM   21  C   UNL     1      -6.249   6.840  69.196  1.00  0.00    -0.027 C  
HETATM   22  C   UNL     1      -7.240   9.463  71.943  1.00  0.00     0.520 C  
ENDROOT
BRANCH  17  23
HETATM   23  O   UNL     1      -7.203   5.735  71.600  1.00  0.00    -0.081 OA 
BRANCH  23  24
HETATM   24  C   UNL     1      -7.719   4.548  71.980  1.00  0.00    -0.089 C  
HETATM   25  O   UNL     1      -8.541   4.392  72.876  1.00  0.00    -0.104 OA 
HETATM   26  C   UNL     1      -7.121   3.453  71.150  1.00  0.00    -0.033 C  
ENDBRANCH  23  24
ENDBRANCH  17  23
BRANCH  17  27
HETATM   27  C   UNL     1      -6.329   7.019  73.514  1.00  0.00    -0.065 C  
HETATM   28  C   UNL     1      -6.149   8.324  74.278  1.00  0.00    -0.126 C  
HETATM   29  O   UNL     1      -5.633   6.045  73.825  1.00  0.00    -0.039 OA 
ENDBRANCH  17  27
TORSDOF 3
ENDMDL
MODEL       85
REMARK 921   NORMALIZED FREE ENERGY PREDICTED BY IDOCK:    2.44 KCAL/MOL
REMARK 922        TOTAL FREE ENERGY PREDICTED BY IDOCK:    2.38 KCAL/MOL
REMARK 923 INTER-LIGAND FREE ENERGY PREDICTED BY IDOCK:    2.45 KCAL/MOL
REMARK 924 INTRA-LIGAND FREE ENERGY PREDICTED BY IDOCK:   -0.06 KCAL/MOL
REMARK 927      BINDING AFFINITY PREDICTED BY RF-SCORE:    0.00 PKD
ROOT
HETATM    1  C   UNL     1      -7.444  13.522  69.471  1.00  0.00     0.454 C  
HETATM    2  C   UNL     1      -8.498  13.884  68.579  1.00  0.00    -0.127 C  
HETATM    3  C   UNL     1      -7.687  12.833  67.821  1.00  0.00    -0.152 C  
HETATM    4  C   UNL     1      -6.480  11.679  67.769  1.00  0.00    -0.067 C  
HETATM    5  C   UNL     1      -5.383  12.384  66.916  1.00  0.00     0.161 C  
HETATM    6  C   UNL     1      -6.381  11.288  69.256  1.00  0.00    -0.081 C  
HETATM    7  C   UNL     1      -5.565  12.076  69.991  1.00  0.00    -0.123 C  
HETATM    8  C   UNL     1      -7.725  10.637  69.599  1.00  0.00    -0.070 C  
HETATM    9 CL   UNL     1      -8.409  10.801  71.181  1.00  0.00     3.902 Cl 
HETATM   10  C   UNL     1      -8.481  10.022  68.650  1.00  0.00    -0.118 C  
HETATM   11  C   UNL     1      -6.002  13.514  69.719  1.00  0.00    -0.123 C  
HETATM   12  C   UNL     1      -7.945   9.637  67.268  1.00  0.00    -0.106 C  
HETATM   13  O   UNL     1      -5.272  14.489  69.686  1.00  0.00    -0.092 OA 
HETATM   14  C   UNL     1      -8.061   8.082  67.113  1.00  0.00    -0.117 C  
HETATM   15  C   UNL     1      -9.449   7.771  66.504  1.00  0.00    -0.262 C  
HETATM   16  C   UNL     1      -9.199   7.031  65.207  1.00  0.00     0.532 C  
HETATM   17  C   UNL     1      -7.748   7.357  64.806  1.00  0.00    -0.114 C  
HETATM   18  C   UNL     1      -6.532  10.153  67.257  1.00  0.00    -0.068 C  
HETATM   19  C   UNL     1      -5.626   8.007  66.243  1.00  0.00    -0.029 C  
HETATM   20  C   UNL     1      -7.028   7.330  66.190  1.00  0.00    -0.065 C  
HETATM   21  C   UNL     1      -5.577   9.556  66.210  1.00  0.00    -0.052 C  
HETATM   22  C   UNL     1      -6.824   5.866  66.697  1.00  0.00    -0.059 C  
ENDROOT
BRANCH  17  23
HETATM   23  O   UNL     1      -7.585   8.738  64.418  1.00  0.00    -0.106 OA 
BRANCH  23  24
HETATM   24  C   UNL     1      -8.546   9.399  63.741  1.00  0.00    -0.211 C  
HETATM   25  O   UNL     1      -9.134  10.396  64.145  1.00  0.00    -0.201 OA 
HETATM   26  C   UNL     1      -8.793   8.717  62.429  1.00  0.00    -0.084 C  
ENDBRANCH  23  24
ENDBRANCH  17  23
BRANCH  17  27
HETATM   27  C   UNL     1      -7.184   6.408  63.722  1.00  0.00    -0.055 C  
HETATM   28  C   UNL     1      -7.896   5.096  63.423  1.00  0.00    -0.084 C  
HETATM   29  O   UNL     1      -6.174   6.700  63.070  1.00  0.00    -0.040 OA 
ENDBRANCH  17  27
TORSDOF 3
ENDMDL
MODEL       86
REMARK 921   NORMALIZED FREE ENERGY PREDICTED BY IDOCK:    3.55 KCAL/MOL
REMARK 922        TOTAL FREE ENERGY PREDICTED BY IDOCK:    3.68 KCAL/MOL
REMARK 923 INTER-LIGAND FREE ENERGY PREDICTED BY IDOCK:    0.26 KCAL/MOL
REMARK 924 INTRA-LIGAND FREE ENERGY PREDICTED BY IDOCK:    3.43 KCAL/MOL
REMARK 927      BINDING AFFINITY PREDICTED BY RF-SCORE:    0.00 PKD
ROOT
HETATM    1  C   UNL     1     -10.894   6.043  72.893  1.00  0.00    -0.291 C  
HETATM    2  C   UNL     1     -12.046   5.585  72.184  1.00  0.00     0.256 C  
HETATM    3  C   UNL     1     -11.129   6.169  71.109  1.00  0.00    -0.360 C  
HETATM    4  C   UNL     1      -9.660   6.805  70.632  1.00  0.00    -0.174 C  
HETATM    5  C   UNL     1     -10.004   8.310  70.416  1.00  0.00    -0.196 C  
HETATM    6  C   UNL     1      -8.722   6.219  71.705  1.00  0.00    -0.134 C  
HETATM    7  C   UNL     1      -8.643   6.947  72.841  1.00  0.00    -0.129 C  
HETATM    8  C   UNL     1      -8.742   4.703  71.483  1.00  0.00    -0.120 C  
HETATM    9 CL   UNL     1      -8.583   3.612  72.817  1.00  0.00    -0.089 Cl 
HETATM   10  C   UNL     1      -9.011   4.166  70.263  1.00  0.00    -0.153 C  
HETATM   11  C   UNL     1     -10.082   7.193  73.290  1.00  0.00    -0.276 C  
HETATM   12  C   UNL     1      -8.992   4.977  68.964  1.00  0.00    -0.125 C  
HETATM   13  O   UNL     1     -10.493   8.188  73.860  1.00  0.00     0.636 OA 
HETATM   14  C   UNL     1      -7.903   4.366  68.018  1.00  0.00    -0.080 C  
HETATM   15  C   UNL     1      -8.584   3.274  67.159  1.00  0.00    -0.120 C  
HETATM   16  C   UNL     1      -8.398   3.680  65.712  1.00  0.00    -0.106 C  
HETATM   17  C   UNL     1      -8.094   5.190  65.731  1.00  0.00    -0.110 C  
HETATM   18  C   UNL     1      -8.702   6.385  69.407  1.00  0.00    -0.129 C  
HETATM   19  C   UNL     1      -6.990   6.742  67.564  1.00  0.00    -0.083 C  
HETATM   20  C   UNL     1      -7.174   5.308  66.986  1.00  0.00    -0.078 C  
HETATM   21  C   UNL     1      -8.181   7.362  68.339  1.00  0.00    -0.125 C  
HETATM   22  C   UNL     1      -5.738   4.769  66.690  1.00  0.00    -0.021 C  
ENDROOT
BRANCH  17  23
HETATM   23  O   UNL     1      -9.240   5.972  66.134  1.00  0.00    -0.157 OA 
BRANCH  23  24
HETATM   24  C   UNL     1     -10.452   5.408  66.312  1.00  0.00    -0.221 C  
HETATM   25  O   UNL     1     -10.646   4.272  66.728  1.00  0.00     0.173 OA 
HETATM   26  C   UNL     1     -11.520   6.378  65.906  1.00  0.00     2.650 C  
ENDBRANCH  23  24
ENDBRANCH  17  23
BRANCH  17  27
HETATM   27  C   UNL     1      -7.508   5.714  64.400  1.00  0.00    -0.073 C  
HETATM   28  C   UNL     1      -7.367   4.770  63.213  1.00  0.00    -0.049 C  
HETATM   29  O   UNL     1      -7.167   6.896  64.265  1.00  0.00    -0.058 OA 
ENDBRANCH  17  27
TORSDOF 3
ENDMDL
MODEL       87
REMARK 921   NORMALIZED FREE ENERGY PREDICTED BY IDOCK:    4.08 KCAL/MOL
REMARK 922        TOTAL FREE ENERGY PREDICTED BY IDOCK:    4.31 KCAL/MOL
REMARK 923 INTER-LIGAND FREE ENERGY PREDICTED BY IDOCK:    4.81 KCAL/MOL
REMARK 924 INTRA-LIGAND FREE ENERGY PREDICTED BY IDOCK:   -0.50 KCAL/MOL
REMARK 927      BINDING AFFINITY PREDICTED BY RF-SCORE:    0.00 PKD
ROOT
HETATM    1  C   UNL     1     -10.819  12.298  69.776  1.00  0.00     0.368 C  
HETATM    2  C   UNL     1      -9.438  12.213  70.126  1.00  0.00     3.592 C  
HETATM    3  C   UNL     1      -9.473  13.100  68.882  1.00  0.00     0.231 C  
HETATM    4  C   UNL     1     -10.318  13.969  67.732  1.00  0.00    -0.236 C  
HETATM    5  C   UNL     1     -10.150  13.086  66.459  1.00  0.00    -0.270 C  
HETATM    6  C   UNL     1     -11.631  14.258  68.486  1.00  0.00    -0.355 C  
HETATM    7  C   UNL     1     -12.558  13.279  68.396  1.00  0.00     0.698 C  
HETATM    8  C   UNL     1     -11.239  15.166  69.657  1.00  0.00    -0.272 C  
HETATM    9 CL   UNL     1     -12.084  15.077  71.165  1.00  0.00    -0.345 Cl 
HETATM   10  C   UNL     1     -10.146  15.973  69.597  1.00  0.00    -0.244 C  
HETATM   11  C   UNL     1     -11.849  11.984  68.785  1.00  0.00    -0.302 C  
HETATM   12  C   UNL     1      -9.412  16.300  68.293  1.00  0.00    -0.214 C  
HETATM   13  O   UNL     1     -12.081  10.877  68.331  1.00  0.00    -0.559 OA 
HETATM   14  C   UNL     1      -9.479  17.849  68.067  1.00  0.00    -0.279 C  
HETATM   15  C   UNL     1      -8.244  18.479  68.753  1.00  0.00    -0.278 C  
HETATM   16  C   UNL     1      -7.473  19.209  67.674  1.00  0.00    -0.263 C  
HETATM   17  C   UNL     1      -7.933  18.599  66.337  1.00  0.00    -0.277 C  
HETATM   18  C   UNL     1     -10.131  15.493  67.247  1.00  0.00    -0.250 C  
HETATM   19  C   UNL     1     -10.198  17.441  65.617  1.00  0.00    -0.117 C  
HETATM   20  C   UNL     1      -9.460  18.405  66.592  1.00  0.00    -0.313 C  
HETATM   21  C   UNL     1      -9.943  15.920  65.782  1.00  0.00    -0.391 C  
HETATM   22  C   UNL     1     -10.227  19.765  66.523  1.00  0.00    -0.606 C  
ENDROOT
BRANCH  17  23
HETATM   23  O   UNL     1      -7.488  17.235  66.177  1.00  0.00    -0.300 OA 
BRANCH  23  24
HETATM   24  C   UNL     1      -6.179  16.911  66.216  1.00  0.00     0.179 C  
HETATM   25  O   UNL     1      -5.420  16.932  65.254  1.00  0.00     0.932 OA 
HETATM   26  C   UNL     1      -5.804  16.507  67.610  1.00  0.00    -0.163 C  
ENDBRANCH  23  24
ENDBRANCH  17  23
BRANCH  17  27
HETATM   27  C   UNL     1      -7.548  19.455  65.108  1.00  0.00     0.692 C  
HETATM   28  C   UNL     1      -6.652  20.673  65.288  1.00  0.00    -0.248 C  
HETATM   29  O   UNL     1      -7.933  19.161  63.970  1.00  0.00     4.399 OA 
ENDBRANCH  17  27
TORSDOF 3
ENDMDL
MODEL       88
REMARK 921   NORMALIZED FREE ENERGY PREDICTED BY IDOCK:    4.64 KCAL/MOL
REMARK 922        TOTAL FREE ENERGY PREDICTED BY IDOCK:    4.98 KCAL/MOL
REMARK 923 INTER-LIGAND FREE ENERGY PREDICTED BY IDOCK:    1.95 KCAL/MOL
REMARK 924 INTRA-LIGAND FREE ENERGY PREDICTED BY IDOCK:    3.03 KCAL/MOL
REMARK 927      BINDING AFFINITY PREDICTED BY RF-SCORE:    0.00 PKD
ROOT
HETATM    1  C   UNL     1      -9.526  10.857  64.438  1.00  0.00    -0.287 C  
HETATM    2  C   UNL     1     -10.097  11.831  65.312  1.00  0.00    -0.300 C  
HETATM    3  C   UNL     1     -10.027  10.551  66.144  1.00  0.00    -0.286 C  
HETATM    4  C   UNL     1      -9.529   8.970  66.351  1.00  0.00    -0.288 C  
HETATM    5  C   UNL     1     -10.863   8.179  66.200  1.00  0.00     1.698 C  
HETATM    6  C   UNL     1      -8.315   8.916  65.403  1.00  0.00    -0.155 C  
HETATM    7  C   UNL     1      -8.617   8.630  64.118  1.00  0.00    -0.033 C  
HETATM    8  C   UNL     1      -7.285   9.881  66.002  1.00  0.00    -0.106 C  
HETATM    9 CL   UNL     1      -6.216  10.778  64.979  1.00  0.00     0.012 Cl 
HETATM   10  C   UNL     1      -7.261  10.160  67.333  1.00  0.00    -0.088 C  
HETATM   11  C   UNL     1      -9.723   9.602  63.713  1.00  0.00     0.565 C  
HETATM   12  C   UNL     1      -8.005   9.326  68.380  1.00  0.00    -0.102 C  
HETATM   13  O   UNL     1     -10.633   9.367  62.937  1.00  0.00     3.253 OA 
HETATM   14  C   UNL     1      -6.952   8.738  69.379  1.00  0.00    -0.053 C  
HETATM   15  C   UNL     1      -6.769   9.758  70.528  1.00  0.00    -0.125 C  
HETATM   16  C   UNL     1      -7.131   9.038  71.810  1.00  0.00     0.034 C  
HETATM   17  C   UNL     1      -7.989   7.830  71.390  1.00  0.00    -0.095 C  
HETATM   18  C   UNL     1      -8.741   8.288  67.579  1.00  0.00    -0.129 C  
HETATM   19  C   UNL     1      -8.067   6.415  69.158  1.00  0.00    -0.111 C  
HETATM   20  C   UNL     1      -7.260   7.366  70.091  1.00  0.00    -0.070 C  
HETATM   21  C   UNL     1      -9.222   7.035  68.329  1.00  0.00    -0.128 C  
HETATM   22  C   UNL     1      -5.926   6.622  70.421  1.00  0.00    -0.024 C  
ENDROOT
BRANCH  17  23
HETATM   23  O   UNL     1      -9.278   8.227  70.876  1.00  0.00    -0.145 OA 
BRANCH  23  24
HETATM   24  C   UNL     1     -10.398   7.534  71.167  1.00  0.00    -0.200 C  
HETATM   25  O   UNL     1     -10.503   6.314  71.119  1.00  0.00    -0.210 OA 
HETATM   26  C   UNL     1     -11.494   8.487  71.540  1.00  0.00    -0.350 C  
ENDBRANCH  23  24
ENDBRANCH  17  23
BRANCH  17  27
HETATM   27  C   UNL     1      -8.140   6.770  72.506  1.00  0.00    -0.104 C  
HETATM   28  C   UNL     1      -8.695   5.392  72.168  1.00  0.00    -0.130 C  
HETATM   29  O   UNL     1      -7.800   7.006  73.672  1.00  0.00    -0.095 OA 
ENDBRANCH  17  27
TORSDOF 3
ENDMDL
MODEL       89
REMARK 921   NORMALIZED FREE ENERGY PREDICTED BY IDOCK:    5.16 KCAL/MOL
REMARK 922        TOTAL FREE ENERGY PREDICTED BY IDOCK:    5.58 KCAL/MOL
REMARK 923 INTER-LIGAND FREE ENERGY PREDICTED BY IDOCK:    2.70 KCAL/MOL
REMARK 924 INTRA-LIGAND FREE ENERGY PREDICTED BY IDOCK:    2.88 KCAL/MOL
REMARK 927      BINDING AFFINITY PREDICTED BY RF-SCORE:    0.00 PKD
ROOT
HETATM    1  C   UNL     1      -7.284  14.884  70.266  1.00  0.00     0.248 C  
HETATM    2  C   UNL     1      -6.427  13.944  70.915  1.00  0.00     0.292 C  
HETATM    3  C   UNL     1      -7.266  13.108  69.949  1.00  0.00     0.800 C  
HETATM    4  C   UNL     1      -8.368  12.990  68.699  1.00  0.00     0.027 C  
HETATM    5  C   UNL     1      -9.646  12.479  69.429  1.00  0.00     1.051 C  
HETATM    6  C   UNL     1      -8.184  14.357  68.012  1.00  0.00    -0.149 C  
HETATM    7  C   UNL     1      -8.925  15.356  68.541  1.00  0.00    -0.192 C  
HETATM    8  C   UNL     1      -6.753  14.351  67.463  1.00  0.00    -0.108 C  
HETATM    9 CL   UNL     1      -5.829  15.812  67.389  1.00  0.00    -0.122 Cl 
HETATM   10  C   UNL     1      -6.120  13.191  67.139  1.00  0.00     0.357 C  
HETATM   11  C   UNL     1      -8.658  15.335  70.044  1.00  0.00     0.372 C  
HETATM   12  C   UNL     1      -6.847  11.853  66.976  1.00  0.00    -0.122 C  
HETATM   13  O   UNL     1      -9.459  15.619  70.918  1.00  0.00     1.135 OA 
HETATM   14  C   UNL     1      -6.634  11.354  65.507  1.00  0.00     0.750 C  
HETATM   15  C   UNL     1      -5.348  10.495  65.483  1.00  0.00    -0.115 C  
HETATM   16  C   UNL     1      -5.752   9.122  64.990  1.00  0.00    -0.058 C  
HETATM   17  C   UNL     1      -7.271   9.018  65.221  1.00  0.00    -0.088 C  
HETATM   18  C   UNL     1      -8.279  12.162  67.320  1.00  0.00    -0.180 C  
HETATM   19  C   UNL     1      -9.166  10.858  65.328  1.00  0.00    -0.236 C  
HETATM   20  C   UNL     1      -7.743  10.455  64.839  1.00  0.00    -0.084 C  
HETATM   21  C   UNL     1      -9.346  11.165  66.837  1.00  0.00    -0.189 C  
HETATM   22  C   UNL     1      -7.740  10.662  63.290  1.00  0.00     0.055 C  
ENDROOT
BRANCH  17  23
HETATM   23  O   UNL     1      -7.608   8.963  66.624  1.00  0.00    -0.088 OA 
BRANCH  23  24
HETATM   24  C   UNL     1      -7.830   7.790  67.251  1.00  0.00    -0.117 C  
HETATM   25  O   UNL     1      -8.930   7.270  67.403  1.00  0.00    -0.122 OA 
HETATM   26  C   UNL     1      -6.530   7.232  67.746  1.00  0.00    -0.052 C  
ENDBRANCH  23  24
ENDBRANCH  17  23
BRANCH  17  27
HETATM   27  C   UNL     1      -7.930   7.852  64.448  1.00  0.00    -0.132 C  
HETATM   28  C   UNL     1      -8.161   6.518  65.145  1.00  0.00    -0.133 C  
HETATM   29  O   UNL     1      -8.298   7.983  63.274  1.00  0.00    -0.096 OA 
ENDBRANCH  17  27
TORSDOF 3
ENDMDL
MODEL       90
REMARK 921   NORMALIZED FREE ENERGY PREDICTED BY IDOCK:    5.44 KCAL/MOL
REMARK 922        TOTAL FREE ENERGY PREDICTED BY IDOCK:    5.92 KCAL/MOL
REMARK 923 INTER-LIGAND FREE ENERGY PREDICTED BY IDOCK:    4.58 KCAL/MOL
REMARK 924 INTRA-LIGAND FREE ENERGY PREDICTED BY IDOCK:    1.34 KCAL/MOL
REMARK 927      BINDING AFFINITY PREDICTED BY RF-SCORE:    0.00 PKD
ROOT
HETATM    1  C   UNL     1     -12.231  13.289  63.874  1.00  0.00    -0.491 C  
HETATM    2  C   UNL     1     -12.327  14.490  63.108  1.00  0.00     1.273 C  
HETATM    3  C   UNL     1     -11.944  14.952  64.513  1.00  0.00    -0.420 C  
HETATM    4  C   UNL     1     -11.460  14.619  66.078  1.00  0.00    -0.332 C  
HETATM    5  C   UNL     1     -12.752  14.921  66.896  1.00  0.00     1.084 C  
HETATM    6  C   UNL     1     -10.787  13.245  65.893  1.00  0.00    -0.289 C  
HETATM    7  C   UNL     1     -11.631  12.192  65.954  1.00  0.00    -0.425 C  
HETATM    8  C   UNL     1      -9.566  13.504  65.003  1.00  0.00     0.285 C  
HETATM    9 CL   UNL     1      -9.023  12.305  63.878  1.00  0.00     0.832 Cl 
HETATM   10  C   UNL     1      -8.952  14.717  64.971  1.00  0.00     2.410 C  
HETATM   11  C   UNL     1     -12.768  12.501  64.983  1.00  0.00    -0.219 C  
HETATM   12  C   UNL     1      -9.190  15.807  66.020  1.00  0.00    -0.379 C  
HETATM   13  O   UNL     1     -13.934  12.172  65.119  1.00  0.00     2.048 OA 
HETATM   14  C   UNL     1      -7.826  16.115  66.727  1.00  0.00    -0.296 C  
HETATM   15  C   UNL     1      -7.124  17.238  65.926  1.00  0.00    -0.061 C  
HETATM   16  C   UNL     1      -6.911  18.389  66.887  1.00  0.00    -0.214 C  
HETATM   17  C   UNL     1      -7.907  18.168  68.041  1.00  0.00    -0.261 C  
HETATM   18  C   UNL     1     -10.237  15.228  66.931  1.00  0.00    -0.268 C  
HETATM   19  C   UNL     1      -9.004  15.973  69.024  1.00  0.00    -0.244 C  
HETATM   20  C   UNL     1      -7.838  16.619  68.220  1.00  0.00    -0.182 C  
HETATM   21  C   UNL     1     -10.383  15.863  68.324  1.00  0.00    -0.242 C  
HETATM   22  C   UNL     1      -6.520  16.188  68.942  1.00  0.00    -0.133 C  
ENDROOT
BRANCH  17  23
HETATM   23  O   UNL     1      -9.277  18.353  67.623  1.00  0.00    -0.264 OA 
BRANCH  23  24
HETATM   24  C   UNL     1      -9.654  19.424  66.895  1.00  0.00    -0.339 C  
HETATM   25  O   UNL     1     -10.487  20.253  67.242  1.00  0.00    -0.346 OA 
HETATM   26  C   UNL     1      -8.910  19.431  65.594  1.00  0.00     0.416 C  
ENDBRANCH  23  24
ENDBRANCH  17  23
BRANCH  17  27
HETATM   27  C   UNL     1      -7.591  19.017  69.294  1.00  0.00    -0.118 C  
HETATM   28  C   UNL     1      -7.017  20.418  69.131  1.00  0.00     0.008 C  
HETATM   29  O   UNL     1      -7.814  18.593  70.434  1.00  0.00     1.746 OA 
ENDBRANCH  17  27
TORSDOF 3
ENDMDL
MODEL       91
REMARK 921   NORMALIZED FREE ENERGY PREDICTED BY IDOCK:    6.08 KCAL/MOL
REMARK 922        TOTAL FREE ENERGY PREDICTED BY IDOCK:    6.67 KCAL/MOL
REMARK 923 INTER-LIGAND FREE ENERGY PREDICTED BY IDOCK:    4.90 KCAL/MOL
REMARK 924 INTRA-LIGAND FREE ENERGY PREDICTED BY IDOCK:    1.77 KCAL/MOL
REMARK 927      BINDING AFFINITY PREDICTED BY RF-SCORE:    0.00 PKD
ROOT
HETATM    1  C   UNL     1      -8.919  16.785  69.667  1.00  0.00     0.575 C  
HETATM    2  C   UNL     1      -9.352  15.806  70.612  1.00  0.00     1.573 C  
HETATM    3  C   UNL     1      -9.625  15.178  69.246  1.00  0.00    -0.218 C  
HETATM    4  C   UNL     1      -9.487  15.189  67.581  1.00  0.00    -0.201 C  
HETATM    5  C   UNL     1     -10.937  15.537  67.129  1.00  0.00    -0.295 C  
HETATM    6  C   UNL     1      -8.230  16.061  67.394  1.00  0.00    -0.189 C  
HETATM    7  C   UNL     1      -8.468  17.391  67.361  1.00  0.00    -0.215 C  
HETATM    8  C   UNL     1      -7.080  15.262  68.018  1.00  0.00    -0.128 C  
HETATM    9 CL   UNL     1      -5.760  16.071  68.792  1.00  0.00    -0.107 Cl 
HETATM   10  C   UNL     1      -7.118  13.905  68.099  1.00  0.00    -0.118 C  
HETATM   11  C   UNL     1      -9.307  17.705  68.597  1.00  0.00    -0.270 C  
HETATM   12  C   UNL     1      -8.110  13.043  67.313  1.00  0.00    -0.164 C  
HETATM   13  O   UNL     1     -10.173  18.559  68.677  1.00  0.00    -0.377 OA 
HETATM   14  C   UNL     1      -7.296  12.088  66.376  1.00  0.00     0.392 C  
HETATM   15  C   UNL     1      -7.010  10.787  67.163  1.00  0.00    -0.091 C  
HETATM   16  C   UNL     1      -7.626   9.654  66.371  1.00  0.00    -0.101 C  
HETATM   17  C   UNL     1      -8.675  10.303  65.448  1.00  0.00    -0.169 C  
HETATM   18  C   UNL     1      -8.971  14.037  66.581  1.00  0.00    -0.177 C  
HETATM   19  C   UNL     1      -8.845  12.727  64.407  1.00  0.00     2.232 C  
HETATM   20  C   UNL     1      -7.945  11.614  65.020  1.00  0.00     1.258 C  
HETATM   21  C   UNL     1      -9.767  13.517  65.372  1.00  0.00    -0.043 C  
HETATM   22  C   UNL     1      -6.830  11.325  63.964  1.00  0.00     1.530 C  
ENDROOT
BRANCH  17  23
HETATM   23  O   UNL     1      -9.803  10.824  66.186  1.00  0.00    -0.204 OA 
BRANCH  23  24
HETATM   24  C   UNL     1      -9.988  10.534  67.490  1.00  0.00    -0.172 C  
HETATM   25  O   UNL     1     -10.216  11.357  68.369  1.00  0.00    -0.185 OA 
HETATM   26  C   UNL     1      -9.855   9.056  67.698  1.00  0.00    -0.220 C  
ENDBRANCH  23  24
ENDBRANCH  17  23
BRANCH  17  27
HETATM   27  C   UNL     1      -9.144   9.375  64.304  1.00  0.00    -0.106 C  
HETATM   28  C   UNL     1      -8.321   8.144  63.946  1.00  0.00     0.002 C  
HETATM   29  O   UNL     1     -10.190   9.595  63.681  1.00  0.00     1.083 OA 
ENDBRANCH  17  27
TORSDOF 3
ENDMDL
MODEL       92
REMARK 921   NORMALIZED FREE ENERGY PREDICTED BY IDOCK:    7.20 KCAL/MOL
REMARK 922        TOTAL FREE ENERGY PREDICTED BY IDOCK:    7.98 KCAL/MOL
REMARK 923 INTER-LIGAND FREE ENERGY PREDICTED BY IDOCK:    3.51 KCAL/MOL
REMARK 924 INTRA-LIGAND FREE ENERGY PREDICTED BY IDOCK:    4.47 KCAL/MOL
REMARK 927      BINDING AFFINITY PREDICTED BY RF-SCORE:    0.00 PKD
ROOT
HETATM    1  C   UNL     1      -6.116   5.512  71.795  1.00  0.00    -0.030 C  
HETATM    2  C   UNL     1      -5.434   6.758  71.650  1.00  0.00    -0.032 C  
HETATM    3  C   UNL     1      -5.775   6.330  70.223  1.00  0.00    -0.018 C  
HETATM    4  C   UNL     1      -6.553   5.312  69.151  1.00  0.00    -0.051 C  
HETATM    5  C   UNL     1      -5.372   4.485  68.561  1.00  0.00    -0.011 C  
HETATM    6  C   UNL     1      -7.701   4.780  70.030  1.00  0.00    -0.055 C  
HETATM    7  C   UNL     1      -7.380   3.705  70.784  1.00  0.00    -0.037 C  
HETATM    8  C   UNL     1      -8.579   5.997  70.340  1.00  0.00    -0.133 C  
HETATM    9 CL   UNL     1      -9.414   6.124  71.851  1.00  0.00    -0.157 Cl 
HETATM   10  C   UNL     1      -8.630   7.069  69.504  1.00  0.00    -0.134 C  
HETATM   11  C   UNL     1      -6.100   4.074  71.529  1.00  0.00    -0.014 C  
HETATM   12  C   UNL     1      -8.105   7.039  68.065  1.00  0.00    -0.119 C  
HETATM   13  O   UNL     1      -5.202   3.307  71.831  1.00  0.00     0.000 OA 
HETATM   14  C   UNL     1      -9.301   7.338  67.099  1.00  0.00    -0.170 C  
HETATM   15  C   UNL     1      -9.368   8.870  66.892  1.00  0.00    -0.213 C  
HETATM   16  C   UNL     1      -9.213   9.115  65.406  1.00  0.00    -0.266 C  
HETATM   17  C   UNL     1      -8.557   7.844  64.833  1.00  0.00     0.056 C  
HETATM   18  C   UNL     1      -7.518   5.663  67.910  1.00  0.00    -0.077 C  
HETATM   19  C   UNL     1      -8.599   5.325  65.636  1.00  0.00    -0.143 C  
HETATM   20  C   UNL     1      -9.280   6.726  65.647  1.00  0.00     0.166 C  
HETATM   21  C   UNL     1      -7.308   5.149  66.476  1.00  0.00    -0.086 C  
HETATM   22  C   UNL     1     -10.740   6.505  65.137  1.00  0.00     4.079 C  
ENDROOT
BRANCH  17  23
HETATM   23  O   UNL     1      -7.190   7.689  65.273  1.00  0.00    -0.062 OA 
BRANCH  23  24
HETATM   24  C   UNL     1      -6.156   7.793  64.413  1.00  0.00    -0.048 C  
HETATM   25  O   UNL     1      -5.172   7.062  64.404  1.00  0.00    -0.027 OA 
HETATM   26  C   UNL     1      -6.390   8.948  63.486  1.00  0.00    -0.089 C  
ENDBRANCH  23  24
ENDBRANCH  17  23
BRANCH  17  27
HETATM   27  C   UNL     1      -8.658   7.744  63.293  1.00  0.00     0.371 C  
HETATM   28  C   UNL     1      -8.067   8.846  62.425  1.00  0.00    -0.155 C  
HETATM   29  O   UNL     1      -9.191   6.772  62.743  1.00  0.00     0.963 OA 
ENDBRANCH  17  27
TORSDOF 3
ENDMDL
MODEL       93
REMARK 921   NORMALIZED FREE ENERGY PREDICTED BY IDOCK:    7.73 KCAL/MOL
REMARK 922        TOTAL FREE ENERGY PREDICTED BY IDOCK:    8.60 KCAL/MOL
REMARK 923 INTER-LIGAND FREE ENERGY PREDICTED BY IDOCK:    5.24 KCAL/MOL
REMARK 924 INTRA-LIGAND FREE ENERGY PREDICTED BY IDOCK:    3.36 KCAL/MOL
REMARK 927      BINDING AFFINITY PREDICTED BY RF-SCORE:    0.00 PKD
ROOT
HETATM    1  C   UNL     1      -6.725  10.765  69.827  1.00  0.00    -0.139 C  
HETATM    2  C   UNL     1      -8.055  10.282  69.636  1.00  0.00    -0.157 C  
HETATM    3  C   UNL     1      -8.195  11.803  69.698  1.00  0.00     1.160 C  
HETATM    4  C   UNL     1      -7.520  13.330  69.742  1.00  0.00     0.884 C  
HETATM    5  C   UNL     1      -7.784  13.769  71.213  1.00  0.00     5.067 C  
HETATM    6  C   UNL     1      -6.147  13.065  69.092  1.00  0.00    -0.095 C  
HETATM    7  C   UNL     1      -5.192  12.642  69.950  1.00  0.00    -0.087 C  
HETATM    8  C   UNL     1      -6.450  12.659  67.646  1.00  0.00    -0.146 C  
HETATM    9 CL   UNL     1      -5.444  11.519  66.819  1.00  0.00    -0.124 Cl 
HETATM   10  C   UNL     1      -7.579  13.075  67.011  1.00  0.00     0.090 C  
HETATM   11  C   UNL     1      -5.795  11.466  70.713  1.00  0.00    -0.031 C  
HETATM   12  C   UNL     1      -8.463  14.213  67.528  1.00  0.00    -0.194 C  
HETATM   13  O   UNL     1      -5.564  11.171  71.873  1.00  0.00    -0.296 OA 
HETATM   14  C   UNL     1      -8.491  15.344  66.445  1.00  0.00    -0.169 C  
HETATM   15  C   UNL     1      -9.672  15.053  65.488  1.00  0.00    -0.294 C  
HETATM   16  C   UNL     1     -10.587  16.257  65.548  1.00  0.00    -0.369 C  
HETATM   17  C   UNL     1     -10.248  16.983  66.863  1.00  0.00    -0.305 C  
HETATM   18  C   UNL     1      -7.826  14.621  68.828  1.00  0.00    -0.146 C  
HETATM   19  C   UNL     1      -8.024  17.096  68.289  1.00  0.00    -0.236 C  
HETATM   20  C   UNL     1      -8.695  16.837  66.908  1.00  0.00    -0.242 C  
HETATM   21  C   UNL     1      -8.191  16.009  69.382  1.00  0.00    -0.135 C  
HETATM   22  C   UNL     1      -8.003  17.810  65.899  1.00  0.00    -0.063 C  
ENDROOT
BRANCH  17  23
HETATM   23  O   UNL     1     -10.646  16.224  68.025  1.00  0.00    -0.285 OA 
BRANCH  23  24
HETATM   24  C   UNL     1     -11.038  16.831  69.164  1.00  0.00    -0.141 C  
HETATM   25  O   UNL     1     -11.104  18.044  69.329  1.00  0.00     0.821 OA 
HETATM   26  C   UNL     1     -11.362  15.796  70.198  1.00  0.00    -0.361 C  
ENDBRANCH  23  24
ENDBRANCH  17  23
BRANCH  17  27
HETATM   27  C   UNL     1     -10.802  18.425  66.927  1.00  0.00    -0.140 C  
HETATM   28  C   UNL     1     -10.064  19.483  67.736  1.00  0.00    -0.532 C  
HETATM   29  O   UNL     1     -11.827  18.751  66.315  1.00  0.00     1.904 OA 
ENDBRANCH  17  27
TORSDOF 3
ENDMDL
MODEL       94
REMARK 921   NORMALIZED FREE ENERGY PREDICTED BY IDOCK:    8.70 KCAL/MOL
REMARK 922        TOTAL FREE ENERGY PREDICTED BY IDOCK:    9.74 KCAL/MOL
REMARK 923 INTER-LIGAND FREE ENERGY PREDICTED BY IDOCK:    5.21 KCAL/MOL
REMARK 924 INTRA-LIGAND FREE ENERGY PREDICTED BY IDOCK:    4.53 KCAL/MOL
REMARK 927      BINDING AFFINITY PREDICTED BY RF-SCORE:    0.00 PKD
ROOT
HETATM    1  C   UNL     1      -7.305   3.182  68.447  1.00  0.00    -0.050 C  
HETATM    2  C   UNL     1      -8.582   2.990  69.055  1.00  0.00    -0.115 C  
HETATM    3  C   UNL     1      -8.340   4.497  69.123  1.00  0.00    -0.086 C  
HETATM    4  C   UNL     1      -7.450   5.852  68.717  1.00  0.00    -0.086 C  
HETATM    5  C   UNL     1      -6.752   6.207  70.064  1.00  0.00    -0.056 C  
HETATM    6  C   UNL     1      -6.763   5.378  67.421  1.00  0.00    -0.059 C  
HETATM    7  C   UNL     1      -5.608   4.703  67.612  1.00  0.00    -0.017 C  
HETATM    8  C   UNL     1      -7.896   5.164  66.412  1.00  0.00    -0.103 C  
HETATM    9 CL   UNL     1      -7.787   3.922  65.211  1.00  0.00    -0.088 Cl 
HETATM   10  C   UNL     1      -9.069   5.847  66.503  1.00  0.00    -0.149 C  
HETATM   11  C   UNL     1      -5.917   3.608  68.630  1.00  0.00    -0.024 C  
HETATM   12  C   UNL     1      -9.253   7.089  67.379  1.00  0.00    -0.134 C  
HETATM   13  O   UNL     1      -5.148   3.176  69.471  1.00  0.00    -0.007 OA 
HETATM   14  C   UNL     1      -9.639   8.292  66.453  1.00  0.00    -0.300 C  
HETATM   15  C   UNL     1     -11.181   8.321  66.336  1.00  0.00     2.193 C  
HETATM   16  C   UNL     1     -11.630   9.673  66.850  1.00  0.00     2.017 C  
HETATM   17  C   UNL     1     -10.473  10.203  67.717  1.00  0.00    -0.232 C  
HETATM   18  C   UNL     1      -7.932   7.251  68.080  1.00  0.00    -0.123 C  
HETATM   19  C   UNL     1      -7.869   9.753  67.644  1.00  0.00    -0.095 C  
HETATM   20  C   UNL     1      -9.230   9.751  66.888  1.00  0.00    -0.174 C  
HETATM   21  C   UNL     1      -7.625   8.631  68.686  1.00  0.00    -0.097 C  
HETATM   22  C   UNL     1      -9.029  10.650  65.626  1.00  0.00    -0.203 C  
ENDROOT
BRANCH  17  23
HETATM   23  O   UNL     1     -10.307   9.442  68.932  1.00  0.00    -0.201 OA 
BRANCH  23  24
HETATM   24  C   UNL     1     -11.103   8.392  69.221  1.00  0.00     0.162 C  
HETATM   25  O   UNL     1     -10.708   7.281  69.557  1.00  0.00    -0.233 OA 
HETATM   26  C   UNL     1     -12.538   8.789  69.051  1.00  0.00     4.117 C  
ENDBRANCH  23  24
ENDBRANCH  17  23
BRANCH  17  27
HETATM   27  C   UNL     1     -10.579  11.716  68.021  1.00  0.00    -0.202 C  
HETATM   28  C   UNL     1      -9.714  12.704  67.250  1.00  0.00    -0.207 C  
HETATM   29  O   UNL     1     -11.371  12.150  68.867  1.00  0.00    -0.241 OA 
ENDBRANCH  17  27
TORSDOF 3
ENDMDL
MODEL       95
REMARK 921   NORMALIZED FREE ENERGY PREDICTED BY IDOCK:    8.79 KCAL/MOL
REMARK 922        TOTAL FREE ENERGY PREDICTED BY IDOCK:    9.85 KCAL/MOL
REMARK 923 INTER-LIGAND FREE ENERGY PREDICTED BY IDOCK:    9.96 KCAL/MOL
REMARK 924 INTRA-LIGAND FREE ENERGY PREDICTED BY IDOCK:   -0.11 KCAL/MOL
REMARK 927      BINDING AFFINITY PREDICTED BY RF-SCORE:    0.00 PKD
ROOT
HETATM    1  C   UNL     1     -12.084  12.098  71.625  1.00  0.00     0.768 C  
HETATM    2  C   UNL     1     -10.867  11.549  71.118  1.00  0.00     3.267 C  
HETATM    3  C   UNL     1     -11.216  12.684  70.155  1.00  0.00     0.379 C  
HETATM    4  C   UNL     1     -12.147  14.005  69.733  1.00  0.00    -0.405 C  
HETATM    5  C   UNL     1     -13.005  13.446  68.558  1.00  0.00     1.953 C  
HETATM    6  C   UNL     1     -12.661  14.458  71.114  1.00  0.00    -0.422 C  
HETATM    7  C   UNL     1     -13.782  13.829  71.531  1.00  0.00    -0.286 C  
HETATM    8  C   UNL     1     -11.417  14.909  71.886  1.00  0.00    -0.172 C  
HETATM    9 CL   UNL     1     -11.315  14.698  73.601  1.00  0.00     0.534 Cl 
HETATM   10  C   UNL     1     -10.308  15.368  71.245  1.00  0.00     0.718 C  
HETATM   11  C   UNL     1     -13.508  12.333  71.390  1.00  0.00     0.265 C  
HETATM   12  C   UNL     1     -10.301  15.783  69.770  1.00  0.00    -0.307 C  
HETATM   13  O   UNL     1     -14.330  11.479  71.106  1.00  0.00     2.465 OA 
HETATM   14  C   UNL     1      -9.902  17.296  69.687  1.00  0.00     0.287 C  
HETATM   15  C   UNL     1      -8.361  17.371  69.568  1.00  0.00     0.640 C  
HETATM   16  C   UNL     1      -8.061  18.095  68.273  1.00  0.00    -0.306 C  
HETATM   17  C   UNL     1      -9.336  17.980  67.416  1.00  0.00    -0.254 C  
HETATM   18  C   UNL     1     -11.696  15.487  69.292  1.00  0.00    -0.380 C  
HETATM   19  C   UNL     1     -11.882  17.710  68.075  1.00  0.00     1.748 C  
HETATM   20  C   UNL     1     -10.451  18.164  68.492  1.00  0.00    -0.267 C  
HETATM   21  C   UNL     1     -12.157  16.186  68.002  1.00  0.00     0.661 C  
HETATM   22  C   UNL     1     -10.579  19.658  68.929  1.00  0.00     0.116 C  
ENDROOT
BRANCH  17  23
HETATM   23  O   UNL     1      -9.576  16.626  66.974  1.00  0.00    -0.234 OA 
BRANCH  23  24
HETATM   24  C   UNL     1      -8.800  16.041  66.039  1.00  0.00    -0.279 C  
HETATM   25  O   UNL     1      -7.632  16.332  65.811  1.00  0.00     0.549 OA 
HETATM   26  C   UNL     1      -9.593  14.997  65.312  1.00  0.00     0.008 C  
ENDBRANCH  23  24
ENDBRANCH  17  23
BRANCH  17  27
HETATM   27  C   UNL     1      -9.364  18.965  66.225  1.00  0.00    -0.282 C  
HETATM   28  C   UNL     1     -10.699  19.389  65.627  1.00  0.00    -0.377 C  
HETATM   29  O   UNL     1      -8.322  19.438  65.754  1.00  0.00    -0.430 OA 
ENDBRANCH  17  27
TORSDOF 3
ENDMDL
MODEL       96
REMARK 921   NORMALIZED FREE ENERGY PREDICTED BY IDOCK:    9.21 KCAL/MOL
REMARK 922        TOTAL FREE ENERGY PREDICTED BY IDOCK:   10.34 KCAL/MOL
REMARK 923 INTER-LIGAND FREE ENERGY PREDICTED BY IDOCK:    9.02 KCAL/MOL
REMARK 924 INTRA-LIGAND FREE ENERGY PREDICTED BY IDOCK:    1.31 KCAL/MOL
REMARK 927      BINDING AFFINITY PREDICTED BY RF-SCORE:    0.00 PKD
ROOT
HETATM    1  C   UNL     1      -8.235   6.612  70.926  1.00  0.00    -0.124 C  
HETATM    2  C   UNL     1      -9.141   7.397  71.702  1.00  0.00    -0.141 C  
HETATM    3  C   UNL     1      -8.215   8.413  71.033  1.00  0.00    -0.145 C  
HETATM    4  C   UNL     1      -7.007   8.790  69.943  1.00  0.00    -0.046 C  
HETATM    5  C   UNL     1      -5.796   9.085  70.878  1.00  0.00    -0.042 C  
HETATM    6  C   UNL     1      -7.136   7.624  68.943  1.00  0.00    -0.079 C  
HETATM    7  C   UNL     1      -6.450   6.511  69.286  1.00  0.00    -0.040 C  
HETATM    8  C   UNL     1      -8.512   7.794  68.291  1.00  0.00    -0.124 C  
HETATM    9 CL   UNL     1      -9.434   6.414  67.799  1.00  0.00    -0.116 Cl 
HETATM   10  C   UNL     1      -9.108   9.013  68.194  1.00  0.00    -0.134 C  
HETATM   11  C   UNL     1      -6.849   6.190  70.724  1.00  0.00    -0.062 C  
HETATM   12  C   UNL     1      -8.362  10.333  68.410  1.00  0.00    -0.119 C  
HETATM   13  O   UNL     1      -6.129   5.691  71.572  1.00  0.00    -0.028 OA 
HETATM   14  C   UNL     1      -8.442  11.164  67.084  1.00  0.00    -0.137 C  
HETATM   15  C   UNL     1      -9.717  12.039  67.152  1.00  0.00    -0.203 C  
HETATM   16  C   UNL     1      -9.264  13.478  67.030  1.00  0.00    -0.248 C  
HETATM   17  C   UNL     1      -7.771  13.487  67.407  1.00  0.00    -0.137 C  
HETATM   18  C   UNL     1      -6.969   9.917  68.793  1.00  0.00    -0.062 C  
HETATM   19  C   UNL     1      -5.902  11.624  67.242  1.00  0.00    -0.111 C  
HETATM   20  C   UNL     1      -7.274  12.165  66.742  1.00  0.00     0.090 C  
HETATM   21  C   UNL     1      -5.858  10.971  68.648  1.00  0.00    -0.043 C  
HETATM   22  C   UNL     1      -7.140  12.323  65.193  1.00  0.00     4.449 C  
ENDROOT
BRANCH  17  23
HETATM   23  O   UNL     1      -7.559  13.206  68.808  1.00  0.00    -0.110 OA 
BRANCH  23  24
HETATM   24  C   UNL     1      -7.518  14.193  69.726  1.00  0.00     0.341 C  
HETATM   25  O   UNL     1      -7.555  15.391  69.474  1.00  0.00    -0.213 OA 
HETATM   26  C   UNL     1      -7.401  13.596  71.097  1.00  0.00     3.586 C  
ENDBRANCH  23  24
ENDBRANCH  17  23
BRANCH  17  27
HETATM   27  C   UNL     1      -7.040  14.782  66.986  1.00  0.00     0.389 C  
HETATM   28  C   UNL     1      -7.570  15.602  65.817  1.00  0.00     2.841 C  
HETATM   29  O   UNL     1      -6.040  15.186  67.593  1.00  0.00    -0.205 OA 
ENDBRANCH  17  27
TORSDOF 3
ENDMDL
MODEL       97
REMARK 921   NORMALIZED FREE ENERGY PREDICTED BY IDOCK:    9.46 KCAL/MOL
REMARK 922        TOTAL FREE ENERGY PREDICTED BY IDOCK:   10.63 KCAL/MOL
REMARK 923 INTER-LIGAND FREE ENERGY PREDICTED BY IDOCK:   10.75 KCAL/MOL
REMARK 924 INTRA-LIGAND FREE ENERGY PREDICTED BY IDOCK:   -0.12 KCAL/MOL
REMARK 927      BINDING AFFINITY PREDICTED BY RF-SCORE:    0.00 PKD
ROOT
HETATM    1  C   UNL     1      -9.176   9.280  63.969  1.00  0.00     0.104 C  
HETATM    2  C   UNL     1      -9.260  10.543  63.309  1.00  0.00    -0.299 C  
HETATM    3  C   UNL     1      -9.261  10.880  64.800  1.00  0.00    -0.227 C  
HETATM    4  C   UNL     1      -9.094  10.425  66.399  1.00  0.00    -0.177 C  
HETATM    5  C   UNL     1     -10.562  10.488  66.917  1.00  0.00    -0.303 C  
HETATM    6  C   UNL     1      -8.220   9.164  66.258  1.00  0.00    -0.111 C  
HETATM    7  C   UNL     1      -8.910   8.025  66.029  1.00  0.00    -0.196 C  
HETATM    8  C   UNL     1      -6.879   9.654  65.701  1.00  0.00    -0.091 C  
HETATM    9 CL   UNL     1      -5.947   8.659  64.635  1.00  0.00    -0.064 Cl 
HETATM   10  C   UNL     1      -6.439  10.923  65.919  1.00  0.00    -0.056 C  
HETATM   11  C   UNL     1      -9.836   8.317  64.851  1.00  0.00     2.022 C  
HETATM   12  C   UNL     1      -7.044  11.853  66.975  1.00  0.00    -0.116 C  
HETATM   13  O   UNL     1     -10.949   7.848  64.682  1.00  0.00     8.111 OA 
HETATM   14  C   UNL     1      -5.923  12.225  68.003  1.00  0.00    -0.067 C  
HETATM   15  C   UNL     1      -5.217  13.503  67.488  1.00  0.00     0.113 C  
HETATM   16  C   UNL     1      -5.376  14.552  68.568  1.00  0.00    -0.103 C  
HETATM   17  C   UNL     1      -6.563  14.092  69.435  1.00  0.00    -0.121 C  
HETATM   18  C   UNL     1      -8.181  11.062  67.563  1.00  0.00    -0.117 C  
HETATM   19  C   UNL     1      -7.549  11.692  69.942  1.00  0.00     1.001 C  
HETATM   20  C   UNL     1      -6.330  12.550  69.490  1.00  0.00    -0.112 C  
HETATM   21  C   UNL     1      -8.713  11.513  68.934  1.00  0.00     0.031 C  
HETATM   22  C   UNL     1      -5.159  12.186  70.459  1.00  0.00    -0.112 C  
ENDROOT
BRANCH  17  23
HETATM   23  O   UNL     1      -7.819  14.173  68.728  1.00  0.00    -0.137 OA 
BRANCH  23  24
HETATM   24  C   UNL     1      -8.384  15.360  68.425  1.00  0.00    -0.147 C  
HETATM   25  O   UNL     1      -7.786  16.428  68.363  1.00  0.00    -0.162 OA 
HETATM   26  C   UNL     1      -9.853  15.172  68.195  1.00  0.00    -0.218 C  
ENDBRANCH  23  24
ENDBRANCH  17  23
BRANCH  17  27
HETATM   27  C   UNL     1      -6.646  14.821  70.796  1.00  0.00     0.226 C  
HETATM   28  C   UNL     1      -5.372  15.322  71.464  1.00  0.00     0.019 C  
HETATM   29  O   UNL     1      -7.732  15.030  71.352  1.00  0.00     2.054 OA 
ENDBRANCH  17  27
TORSDOF 3
ENDMDL
MODEL       98
REMARK 921   NORMALIZED FREE ENERGY PREDICTED BY IDOCK:   10.58 KCAL/MOL
REMARK 922        TOTAL FREE ENERGY PREDICTED BY IDOCK:   11.95 KCAL/MOL
REMARK 923 INTER-LIGAND FREE ENERGY PREDICTED BY IDOCK:    9.67 KCAL/MOL
REMARK 924 INTRA-LIGAND FREE ENERGY PREDICTED BY IDOCK:    2.27 KCAL/MOL
REMARK 927      BINDING AFFINITY PREDICTED BY RF-SCORE:    0.00 PKD
ROOT
HETATM    1  C   UNL     1     -11.233   9.618  69.009  1.00  0.00    -0.030 C  
HETATM    2  C   UNL     1     -12.049  10.330  69.939  1.00  0.00    -0.178 C  
HETATM    3  C   UNL     1     -10.739  11.115  69.886  1.00  0.00     0.033 C  
HETATM    4  C   UNL     1      -9.238  11.406  69.212  1.00  0.00     0.307 C  
HETATM    5  C   UNL     1      -8.271  10.879  70.314  1.00  0.00     1.550 C  
HETATM    6  C   UNL     1      -9.430  10.822  67.799  1.00  0.00    -0.165 C  
HETATM    7  C   UNL     1      -9.192   9.495  67.702  1.00  0.00    -0.138 C  
HETATM    8  C   UNL     1     -10.492  11.703  67.132  1.00  0.00    -0.220 C  
HETATM    9 CL   UNL     1     -11.607  11.032  65.990  1.00  0.00     0.389 Cl 
HETATM   10  C   UNL     1     -10.679  12.998  67.505  1.00  0.00    -0.248 C  
HETATM   11  C   UNL     1     -10.016   8.833  68.804  1.00  0.00    -0.185 C  
HETATM   12  C   UNL     1      -9.675  13.782  68.354  1.00  0.00    -0.219 C  
HETATM   13  O   UNL     1      -9.704   7.833  69.428  1.00  0.00    -0.166 OA 
HETATM   14  C   UNL     1      -9.181  15.012  67.520  1.00  0.00    -0.189 C  
HETATM   15  C   UNL     1     -10.135  16.194  67.813  1.00  0.00    -0.250 C  
HETATM   16  C   UNL     1      -9.282  17.310  68.378  1.00  0.00    -0.268 C  
HETATM   17  C   UNL     1      -7.992  16.642  68.890  1.00  0.00    -0.236 C  
HETATM   18  C   UNL     1      -8.597  12.783  68.676  1.00  0.00     0.054 C  
HETATM   19  C   UNL     1      -6.740  14.435  68.150  1.00  0.00    -0.129 C  
HETATM   20  C   UNL     1      -7.732  15.577  67.780  1.00  0.00    -0.156 C  
HETATM   21  C   UNL     1      -7.238  13.341  69.129  1.00  0.00     0.059 C  
HETATM   22  C   UNL     1      -7.172  16.236  66.478  1.00  0.00    -0.049 C  
ENDROOT
BRANCH  17  23
HETATM   23  O   UNL     1      -8.230  15.809  70.045  1.00  0.00     0.167 OA 
BRANCH  23  24
HETATM   24  C   UNL     1      -9.345  15.941  70.793  1.00  0.00     2.104 C  
HETATM   25  O   UNL     1     -10.460  16.198  70.355  1.00  0.00    -0.155 OA 
HETATM   26  C   UNL     1      -9.004  15.742  72.239  1.00  0.00     8.497 C  
ENDBRANCH  23  24
ENDBRANCH  17  23
BRANCH  17  27
HETATM   27  C   UNL     1      -6.847  17.646  69.157  1.00  0.00    -0.229 C  
HETATM   28  C   UNL     1      -6.498  18.691  68.106  1.00  0.00    -0.220 C  
HETATM   29  O   UNL     1      -6.215  17.636  70.221  1.00  0.00    -0.054 OA 
ENDBRANCH  17  27
TORSDOF 3
ENDMDL
MODEL       99
REMARK 921   NORMALIZED FREE ENERGY PREDICTED BY IDOCK:   16.06 KCAL/MOL
REMARK 922        TOTAL FREE ENERGY PREDICTED BY IDOCK:   18.39 KCAL/MOL
REMARK 923 INTER-LIGAND FREE ENERGY PREDICTED BY IDOCK:    9.61 KCAL/MOL
REMARK 924 INTRA-LIGAND FREE ENERGY PREDICTED BY IDOCK:    8.78 KCAL/MOL
REMARK 927      BINDING AFFINITY PREDICTED BY RF-SCORE:    0.00 PKD
ROOT
HETATM    1  C   UNL     1     -10.602  10.997  64.215  1.00  0.00    -0.402 C  
HETATM    2  C   UNL     1     -10.223   9.920  63.357  1.00  0.00     1.270 C  
HETATM    3  C   UNL     1      -9.334   9.769  64.591  1.00  0.00    -0.318 C  
HETATM    4  C   UNL     1      -8.912  10.204  66.148  1.00  0.00    -0.171 C  
HETATM    5  C   UNL     1      -7.579  10.980  65.927  1.00  0.00     0.007 C  
HETATM    6  C   UNL     1     -10.242  10.787  66.663  1.00  0.00    -0.283 C  
HETATM    7  C   UNL     1     -10.433  12.093  66.374  1.00  0.00    -0.261 C  
HETATM    8  C   UNL     1     -11.223   9.610  66.687  1.00  0.00     0.770 C  
HETATM    9 CL   UNL     1     -12.907   9.856  66.369  1.00  0.00    10.675 Cl 
HETATM   10  C   UNL     1     -10.793   8.327  66.829  1.00  0.00     0.140 C  
HETATM   11  C   UNL     1     -10.191  12.237  64.873  1.00  0.00    -0.281 C  
HETATM   12  C   UNL     1      -9.382   7.961  67.296  1.00  0.00    -0.180 C  
HETATM   13  O   UNL     1      -9.711  13.210  64.316  1.00  0.00    -0.077 OA 
HETATM   14  C   UNL     1      -9.501   7.140  68.625  1.00  0.00    -0.140 C  
HETATM   15  C   UNL     1      -9.611   5.644  68.247  1.00  0.00    -0.145 C  
HETATM   16  C   UNL     1      -8.447   4.941  68.913  1.00  0.00    -0.086 C  
HETATM   17  C   UNL     1      -7.411   6.037  69.223  1.00  0.00    -0.083 C  
HETATM   18  C   UNL     1      -8.683   9.284  67.450  1.00  0.00    -0.121 C  
HETATM   19  C   UNL     1      -7.671   8.627  69.686  1.00  0.00    -0.089 C  
HETATM   20  C   UNL     1      -8.329   7.215  69.675  1.00  0.00    -0.133 C  
HETATM   21  C   UNL     1      -7.414   9.309  68.318  1.00  0.00    -0.079 C  
HETATM   22  C   UNL     1      -8.884   6.983  71.117  1.00  0.00    -0.141 C  
ENDROOT
BRANCH  17  23
HETATM   23  O   UNL     1      -6.811   6.576  68.025  1.00  0.00    -0.068 OA 
BRANCH  23  24
HETATM   24  C   UNL     1      -5.945   7.610  68.073  1.00  0.00    -0.040 C  
HETATM   25  O   UNL     1      -5.248   7.900  69.039  1.00  0.00    -0.022 OA 
HETATM   26  C   UNL     1      -5.981   8.354  66.773  1.00  0.00    -0.053 C  
ENDBRANCH  23  24
ENDBRANCH  17  23
BRANCH  17  27
HETATM   27  C   UNL     1      -6.327   5.588  70.231  1.00  0.00    -0.030 C  
HETATM   28  C   UNL     1      -6.338   6.142  71.649  1.00  0.00    -0.045 C  
HETATM   29  O   UNL     1      -5.456   4.766  69.919  1.00  0.00    -0.007 OA 
ENDBRANCH  17  27
TORSDOF 3
ENDMDL
MODEL      100
REMARK 921   NORMALIZED FREE ENERGY PREDICTED BY IDOCK:   23.14 KCAL/MOL
REMARK 922        TOTAL FREE ENERGY PREDICTED BY IDOCK:   26.71 KCAL/MOL
REMARK 923 INTER-LIGAND FREE ENERGY PREDICTED BY IDOCK:   24.43 KCAL/MOL
REMARK 924 INTRA-LIGAND FREE ENERGY PREDICTED BY IDOCK:    2.28 KCAL/MOL
REMARK 927      BINDING AFFINITY PREDICTED BY RF-SCORE:    0.00 PKD
ROOT
HETATM    1  C   UNL     1      -7.408  12.692  69.744  1.00  0.00     0.855 C  
HETATM    2  C   UNL     1      -8.399  12.161  68.864  1.00  0.00     0.180 C  
HETATM    3  C   UNL     1      -8.853  13.593  69.148  1.00  0.00     0.484 C  
HETATM    4  C   UNL     1      -8.583  15.108  69.799  1.00  0.00     0.052 C  
HETATM    5  C   UNL     1      -9.539  15.115  71.030  1.00  0.00     1.808 C  
HETATM    6  C   UNL     1      -7.043  15.146  69.829  1.00  0.00    -0.169 C  
HETATM    7  C   UNL     1      -6.488  14.598  70.932  1.00  0.00     0.181 C  
HETATM    8  C   UNL     1      -6.604  15.113  68.361  1.00  0.00    -0.101 C  
HETATM    9 CL   UNL     1      -5.134  14.326  67.896  1.00  0.00    -0.083 Cl 
HETATM   10  C   UNL     1      -7.406  15.580  67.367  1.00  0.00    -0.241 C  
HETATM   11  C   UNL     1      -7.112  13.212  71.079  1.00  0.00     3.369 C  
HETATM   12  C   UNL     1      -8.635  16.458  67.621  1.00  0.00    -0.181 C  
HETATM   13  O   UNL     1      -7.350  12.643  72.130  1.00  0.00     7.356 OA 
HETATM   14  C   UNL     1      -8.419  17.829  66.895  1.00  0.00    -0.260 C  
HETATM   15  C   UNL     1      -8.987  17.698  65.461  1.00  0.00     0.918 C  
HETATM   16  C   UNL     1     -10.059  18.757  65.320  1.00  0.00     1.069 C  
HETATM   17  C   UNL     1     -10.472  19.137  66.754  1.00  0.00    -0.436 C  
HETATM   18  C   UNL     1      -8.717  16.562  69.120  1.00  0.00    -0.150 C  
HETATM   19  C   UNL     1      -9.154  19.063  69.045  1.00  0.00    -0.240 C  
HETATM   20  C   UNL     1      -9.096  19.122  67.489  1.00  0.00    -0.336 C  
HETATM   21  C   UNL     1      -9.555  17.715  69.697  1.00  0.00     0.563 C  
HETATM   22  C   UNL     1      -8.247  20.384  67.133  1.00  0.00    -0.374 C  
ENDROOT
BRANCH  17  23
HETATM   23  O   UNL     1     -11.172  18.065  67.422  1.00  0.00    -0.052 OA 
BRANCH  23  24
HETATM   24  C   UNL     1     -11.571  16.960  66.758  1.00  0.00     1.208 C  
HETATM   25  O   UNL     1     -11.565  16.831  65.540  1.00  0.00     0.588 OA 
HETATM   26  C   UNL     1     -12.035  15.926  67.739  1.00  0.00     0.425 C  
ENDBRANCH  23  24
ENDBRANCH  17  23
BRANCH  17  27
HETATM   27  C   UNL     1     -11.276  20.455  66.831  1.00  0.00     1.287 C  
HETATM   28  C   UNL     1     -11.294  21.254  68.128  1.00  0.00     3.650 C  
HETATM   29  O   UNL     1     -11.893  20.894  65.852  1.00  0.00     3.057 OA 
ENDBRANCH  17  27
TORSDOF 3
ENDMDL
MODEL      101
REMARK 921   NORMALIZED FREE ENERGY PREDICTED BY IDOCK:   24.82 KCAL/MOL
REMARK 922        TOTAL FREE ENERGY PREDICTED BY IDOCK:   28.69 KCAL/MOL
REMARK 923 INTER-LIGAND FREE ENERGY PREDICTED BY IDOCK:   23.88 KCAL/MOL
REMARK 924 INTRA-LIGAND FREE ENERGY PREDICTED BY IDOCK:    4.81 KCAL/MOL
REMARK 927      BINDING AFFINITY PREDICTED BY RF-SCORE:    0.00 PKD
ROOT
HETATM    1  C   UNL     1      -8.942  11.005  70.293  1.00  0.00     2.078 C  
HETATM    2  C   UNL     1     -10.289  11.452  70.453  1.00  0.00     1.838 C  
HETATM    3  C   UNL     1      -9.444  12.723  70.521  1.00  0.00     6.195 C  
HETATM    4  C   UNL     1      -7.979  13.512  70.365  1.00  0.00     3.137 C  
HETATM    5  C   UNL     1      -7.601  13.807  71.848  1.00  0.00     6.475 C  
HETATM    6  C   UNL     1      -7.238  12.571  69.395  1.00  0.00     0.249 C  
HETATM    7  C   UNL     1      -6.595  11.543  69.992  1.00  0.00     0.001 C  
HETATM    8  C   UNL     1      -8.021  12.639  68.080  1.00  0.00    -0.155 C  
HETATM    9 CL   UNL     1      -8.135  11.255  67.047  1.00  0.00    -0.142 Cl 
HETATM   10  C   UNL     1      -8.754  13.734  67.743  1.00  0.00    -0.182 C  
HETATM   11  C   UNL     1      -7.619  10.871  70.903  1.00  0.00     2.828 C  
HETATM   12  C   UNL     1      -8.614  15.088  68.445  1.00  0.00    -0.162 C  
HETATM   13  O   UNL     1      -7.383  10.336  71.973  1.00  0.00     1.799 OA 
HETATM   14  C   UNL     1      -8.163  16.148  67.384  1.00  0.00    -0.185 C  
HETATM   15  C   UNL     1      -9.439  16.764  66.762  1.00  0.00    -0.261 C  
HETATM   16  C   UNL     1      -9.378  18.253  67.029  1.00  0.00    -0.274 C  
HETATM   17  C   UNL     1      -8.396  18.434  68.202  1.00  0.00    -0.284 C  
HETATM   18  C   UNL     1      -7.606  14.841  69.535  1.00  0.00    -0.092 C  
HETATM   19  C   UNL     1      -6.342  16.984  69.019  1.00  0.00    -0.198 C  
HETATM   20  C   UNL     1      -7.299  17.379  67.856  1.00  0.00    -0.194 C  
HETATM   21  C   UNL     1      -6.911  16.074  70.138  1.00  0.00     0.323 C  
HETATM   22  C   UNL     1      -6.385  17.872  66.688  1.00  0.00    -0.218 C  
ENDROOT
BRANCH  17  23
HETATM   23  O   UNL     1      -8.923  17.911  69.441  1.00  0.00     0.183 OA 
BRANCH  23  24
HETATM   24  C   UNL     1     -10.240  17.669  69.600  1.00  0.00     0.233 C  
HETATM   25  O   UNL     1     -10.980  18.277  70.365  1.00  0.00     1.631 OA 
HETATM   26  C   UNL     1     -10.652  16.534  68.712  1.00  0.00    -0.322 C  
ENDBRANCH  23  24
ENDBRANCH  17  23
BRANCH  17  27
HETATM   27  C   UNL     1      -7.913  19.892  68.378  1.00  0.00    -0.222 C  
HETATM   28  C   UNL     1      -8.467  20.985  67.473  1.00  0.00     0.026 C  
HETATM   29  O   UNL     1      -7.098  20.201  69.256  1.00  0.00    -0.220 OA 
ENDBRANCH  17  27
TORSDOF 3
ENDMDL
MODEL      102
REMARK 921   NORMALIZED FREE ENERGY PREDICTED BY IDOCK:   25.37 KCAL/MOL
REMARK 922        TOTAL FREE ENERGY PREDICTED BY IDOCK:   29.34 KCAL/MOL
REMARK 923 INTER-LIGAND FREE ENERGY PREDICTED BY IDOCK:   26.33 KCAL/MOL
REMARK 924 INTRA-LIGAND FREE ENERGY PREDICTED BY IDOCK:    3.01 KCAL/MOL
REMARK 927      BINDING AFFINITY PREDICTED BY RF-SCORE:    0.00 PKD
ROOT
HETATM    1  C   UNL     1     -11.371  13.668  63.364  1.00  0.00     0.505 C  
HETATM    2  C   UNL     1     -10.434  14.561  63.968  1.00  0.00     1.340 C  
HETATM    3  C   UNL     1     -11.320  14.084  65.119  1.00  0.00    -0.328 C  
HETATM    4  C   UNL     1     -12.514  13.084  65.724  1.00  0.00    -0.394 C  
HETATM    5  C   UNL     1     -13.712  14.065  65.899  1.00  0.00     2.241 C  
HETATM    6  C   UNL     1     -12.431  11.898  64.744  1.00  0.00     0.068 C  
HETATM    7  C   UNL     1     -13.160  12.048  63.616  1.00  0.00    -0.186 C  
HETATM    8  C   UNL     1     -11.050  11.275  64.972  1.00  0.00    -0.089 C  
HETATM    9 CL   UNL     1     -10.183  10.545  63.663  1.00  0.00    -0.238 Cl 
HETATM   10  C   UNL     1     -10.407  11.385  66.165  1.00  0.00    -0.294 C  
HETATM   11  C   UNL     1     -12.772  13.407  63.036  1.00  0.00     0.706 C  
HETATM   12  C   UNL     1     -11.101  11.830  67.456  1.00  0.00    -0.330 C  
HETATM   13  O   UNL     1     -13.510  14.161  62.425  1.00  0.00     2.656 OA 
HETATM   14  C   UNL     1     -10.990  10.668  68.500  1.00  0.00    -0.296 C  
HETATM   15  C   UNL     1      -9.682  10.876  69.300  1.00  0.00    -0.087 C  
HETATM   16  C   UNL     1     -10.079  11.007  70.755  1.00  0.00     2.664 C  
HETATM   17  C   UNL     1     -11.571  11.391  70.755  1.00  0.00     0.235 C  
HETATM   18  C   UNL     1     -12.509  12.146  67.033  1.00  0.00     1.132 C  
HETATM   19  C   UNL     1     -13.510  10.922  69.022  1.00  0.00     3.843 C  
HETATM   20  C   UNL     1     -12.119  10.512  69.589  1.00  0.00    -0.241 C  
HETATM   21  C   UNL     1     -13.578  12.194  68.138  1.00  0.00     7.755 C  
HETATM   22  C   UNL     1     -12.247   9.014  70.017  1.00  0.00     0.655 C  
ENDROOT
BRANCH  17  23
HETATM   23  O   UNL     1     -11.791  12.724  70.245  1.00  0.00    -0.307 OA 
BRANCH  23  24
HETATM   24  C   UNL     1     -11.938  13.780  71.071  1.00  0.00    -0.121 C  
HETATM   25  O   UNL     1     -12.387  13.726  72.210  1.00  0.00    -0.037 OA 
HETATM   26  C   UNL     1     -11.485  15.028  70.375  1.00  0.00    -0.321 C  
ENDBRANCH  23  24
ENDBRANCH  17  23
BRANCH  17  27
HETATM   27  C   UNL     1     -12.251  11.205  72.131  1.00  0.00     1.183 C  
HETATM   28  C   UNL     1     -13.339  10.153  72.300  1.00  0.00    -0.337 C  
HETATM   29  O   UNL     1     -11.916  11.880  73.113  1.00  0.00     4.950 OA 
ENDBRANCH  17  27
TORSDOF 3
ENDMDL
MODEL      103
REMARK 921   NORMALIZED FREE ENERGY PREDICTED BY IDOCK:   32.26 KCAL/MOL
REMARK 922        TOTAL FREE ENERGY PREDICTED BY IDOCK:   37.44 KCAL/MOL
REMARK 923 INTER-LIGAND FREE ENERGY PREDICTED BY IDOCK:   12.74 KCAL/MOL
REMARK 924 INTRA-LIGAND FREE ENERGY PREDICTED BY IDOCK:   24.70 KCAL/MOL
REMARK 927      BINDING AFFINITY PREDICTED BY RF-SCORE:    0.00 PKD
ROOT
HETATM    1  C   UNL     1     -10.218   4.167  68.009  1.00  0.00     0.273 C  
HETATM    2  C   UNL     1      -8.813   4.161  68.259  1.00  0.00    -0.133 C  
HETATM    3  C   UNL     1      -9.099   5.540  67.663  1.00  0.00    -0.107 C  
HETATM    4  C   UNL     1     -10.170   6.710  67.141  1.00  0.00    -0.275 C  
HETATM    5  C   UNL     1      -9.996   6.654  65.594  1.00  0.00     0.904 C  
HETATM    6  C   UNL     1     -11.433   6.332  67.940  1.00  0.00     0.288 C  
HETATM    7  C   UNL     1     -12.208   5.392  67.354  1.00  0.00     6.355 C  
HETATM    8  C   UNL     1     -11.071   6.560  69.411  1.00  0.00    -0.348 C  
HETATM    9 CL   UNL     1     -11.745   5.560  70.652  1.00  0.00     0.637 Cl 
HETATM   10  C   UNL     1     -10.121   7.462  69.779  1.00  0.00    -0.193 C  
HETATM   11  C   UNL     1     -11.280   4.231  67.005  1.00  0.00     3.394 C  
HETATM   12  C   UNL     1      -9.573   8.537  68.836  1.00  0.00    -0.160 C  
HETATM   13  O   UNL     1     -11.387   3.495  66.039  1.00  0.00     2.958 OA 
HETATM   14  C   UNL     1      -9.892   9.941  69.454  1.00  0.00    -0.231 C  
HETATM   15  C   UNL     1      -8.705  10.336  70.365  1.00  0.00     0.655 C  
HETATM   16  C   UNL     1      -8.159  11.641  69.824  1.00  0.00     1.246 C  
HETATM   17  C   UNL     1      -8.649  11.735  68.367  1.00  0.00    -0.156 C  
HETATM   18  C   UNL     1     -10.261   8.271  67.525  1.00  0.00    -0.309 C  
HETATM   19  C   UNL     1     -10.774  10.732  67.155  1.00  0.00    -0.324 C  
HETATM   20  C   UNL     1     -10.098  11.170  68.489  1.00  0.00    -0.208 C  
HETATM   21  C   UNL     1     -10.280   9.417  66.499  1.00  0.00    -0.308 C  
HETATM   22  C   UNL     1     -11.062  12.211  69.144  1.00  0.00    -0.263 C  
ENDROOT
BRANCH  17  23
HETATM   23  O   UNL     1      -8.022  10.752  67.515  1.00  0.00    -0.109 OA 
BRANCH  23  24
HETATM   24  C   UNL     1      -7.973   9.449  67.859  1.00  0.00    -0.092 C  
HETATM   25  O   UNL     1      -8.906   8.809  68.330  1.00  0.00    -0.140 OA 
HETATM   26  C   UNL     1      -6.598   8.913  67.594  1.00  0.00    -0.061 C  
ENDBRANCH  23  24
ENDBRANCH  17  23
BRANCH  17  27
HETATM   27  C   UNL     1      -8.515  13.154  67.767  1.00  0.00    -0.185 C  
HETATM   28  C   UNL     1      -9.712  13.799  67.079  1.00  0.00    -0.251 C  
HETATM   29  O   UNL     1      -7.460  13.794  67.851  1.00  0.00    -0.118 OA 
ENDBRANCH  17  27
TORSDOF 3
ENDMDL
MODEL      104
REMARK 921   NORMALIZED FREE ENERGY PREDICTED BY IDOCK:   34.26 KCAL/MOL
REMARK 922        TOTAL FREE ENERGY PREDICTED BY IDOCK:   39.78 KCAL/MOL
REMARK 923 INTER-LIGAND FREE ENERGY PREDICTED BY IDOCK:   16.84 KCAL/MOL
REMARK 924 INTRA-LIGAND FREE ENERGY PREDICTED BY IDOCK:   22.94 KCAL/MOL
REMARK 927      BINDING AFFINITY PREDICTED BY RF-SCORE:    0.00 PKD
ROOT
HETATM    1  C   UNL     1     -11.815  12.921  64.486  1.00  0.00    -0.429 C  
HETATM    2  C   UNL     1     -10.552  12.395  64.076  1.00  0.00    -0.444 C  
HETATM    3  C   UNL     1     -10.210  13.514  65.058  1.00  0.00    -0.345 C  
HETATM    4  C   UNL     1     -10.669  14.656  66.188  1.00  0.00    -0.314 C  
HETATM    5  C   UNL     1     -10.477  15.992  65.408  1.00  0.00    -0.415 C  
HETATM    6  C   UNL     1     -12.003  14.062  66.682  1.00  0.00    -0.473 C  
HETATM    7  C   UNL     1     -13.079  14.399  65.937  1.00  0.00     0.268 C  
HETATM    8  C   UNL     1     -11.633  12.747  67.376  1.00  0.00    -0.356 C  
HETATM    9 CL   UNL     1     -12.710  11.393  67.335  1.00  0.00     2.625 Cl 
HETATM   10  C   UNL     1     -10.406  12.555  67.932  1.00  0.00    -0.219 C  
HETATM   11  C   UNL     1     -12.713  14.076  64.491  1.00  0.00    -0.063 C  
HETATM   12  C   UNL     1      -9.422  13.695  68.210  1.00  0.00    -0.213 C  
HETATM   13  O   UNL     1     -13.084  14.689  63.505  1.00  0.00     0.023 OA 
HETATM   14  C   UNL     1      -9.143  13.739  69.751  1.00  0.00     1.621 C  
HETATM   15  C   UNL     1      -7.935  12.816  70.037  1.00  0.00     2.565 C  
HETATM   16  C   UNL     1      -6.870  13.680  70.679  1.00  0.00     0.932 C  
HETATM   17  C   UNL     1      -7.221  15.133  70.305  1.00  0.00     0.246 C  
HETATM   18  C   UNL     1     -10.109  14.922  67.674  1.00  0.00    -0.227 C  
HETATM   19  C   UNL     1      -9.524  16.296  69.729  1.00  0.00     0.223 C  
HETATM   20  C   UNL     1      -8.777  15.117  70.421  1.00  0.00     1.085 C  
HETATM   21  C   UNL     1      -9.606  16.284  68.181  1.00  0.00    -0.219 C  
HETATM   22  C   UNL     1      -9.237  15.127  71.914  1.00  0.00     4.862 C  
ENDROOT
BRANCH  17  23
HETATM   23  O   UNL     1      -7.035  15.394  68.897  1.00  0.00    -0.114 OA 
BRANCH  23  24
HETATM   24  C   UNL     1      -7.552  14.581  67.954  1.00  0.00    -0.145 C  
HETATM   25  O   UNL     1      -8.071  14.955  66.909  1.00  0.00    -0.195 OA 
HETATM   26  C   UNL     1      -7.409  13.154  68.390  1.00  0.00    -0.116 C  
ENDBRANCH  23  24
ENDBRANCH  17  23
BRANCH  17  27
HETATM   27  C   UNL     1      -6.481  16.183  71.165  1.00  0.00     1.738 C  
HETATM   28  C   UNL     1      -6.625  16.155  72.681  1.00  0.00     5.082 C  
HETATM   29  O   UNL     1      -5.750  17.039  70.652  1.00  0.00    -0.138 OA 
ENDBRANCH  17  27
TORSDOF 3
ENDMDL
MODEL      105
REMARK 921   NORMALIZED FREE ENERGY PREDICTED BY IDOCK:   40.37 KCAL/MOL
REMARK 922        TOTAL FREE ENERGY PREDICTED BY IDOCK:   46.97 KCAL/MOL
REMARK 923 INTER-LIGAND FREE ENERGY PREDICTED BY IDOCK:   45.83 KCAL/MOL
REMARK 924 INTRA-LIGAND FREE ENERGY PREDICTED BY IDOCK:    1.15 KCAL/MOL
REMARK 927      BINDING AFFINITY PREDICTED BY RF-SCORE:    0.00 PKD
ROOT
HETATM    1  C   UNL     1      -7.994  18.114  72.207  1.00  0.00    12.266 C  
HETATM    2  C   UNL     1      -9.358  17.930  72.585  1.00  0.00    12.479 C  
HETATM    3  C   UNL     1      -9.313  17.581  71.098  1.00  0.00     6.471 C  
HETATM    4  C   UNL     1      -8.458  17.292  69.692  1.00  0.00     0.911 C  
HETATM    5  C   UNL     1      -8.761  18.567  68.850  1.00  0.00    -0.178 C  
HETATM    6  C   UNL     1      -7.090  16.867  70.260  1.00  0.00     1.426 C  
HETATM    7  C   UNL     1      -6.252  17.891  70.533  1.00  0.00     0.531 C  
HETATM    8  C   UNL     1      -7.346  15.553  71.007  1.00  0.00     2.104 C  
HETATM    9 CL   UNL     1      -6.437  15.151  72.424  1.00  0.00     1.538 Cl 
HETATM   10  C   UNL     1      -8.372  14.728  70.664  1.00  0.00     1.886 C  
HETATM   11  C   UNL     1      -7.044  18.873  71.393  1.00  0.00     3.246 C  
HETATM   12  C   UNL     1      -9.140  14.845  69.345  1.00  0.00    -0.045 C  
HETATM   13  O   UNL     1      -6.926  20.086  71.387  1.00  0.00     0.176 OA 
HETATM   14  C   UNL     1      -8.958  13.508  68.549  1.00  0.00    -0.086 C  
HETATM   15  C   UNL     1     -10.101  12.552  68.965  1.00  0.00     0.153 C  
HETATM   16  C   UNL     1     -10.863  12.210  67.703  1.00  0.00    -0.272 C  
HETATM   17  C   UNL     1     -10.522  13.318  66.688  1.00  0.00    -0.279 C  
HETATM   18  C   UNL     1      -8.543  16.050  68.670  1.00  0.00    -0.206 C  
HETATM   19  C   UNL     1      -8.399  14.871  66.424  1.00  0.00     0.226 C  
HETATM   20  C   UNL     1      -9.005  13.546  66.974  1.00  0.00    -0.237 C  
HETATM   21  C   UNL     1      -8.769  16.187  67.155  1.00  0.00    -0.216 C  
HETATM   22  C   UNL     1      -8.134  12.391  66.384  1.00  0.00     0.344 C  
ENDROOT
BRANCH  17  23
HETATM   23  O   UNL     1     -11.085  14.594  67.062  1.00  0.00    -0.315 OA 
BRANCH  23  24
HETATM   24  C   UNL     1     -11.938  15.253  66.252  1.00  0.00     0.321 C  
HETATM   25  O   UNL     1     -11.658  15.691  65.142  1.00  0.00    -0.145 OA 
HETATM   26  C   UNL     1     -13.271  15.381  66.925  1.00  0.00     3.709 C  
ENDBRANCH  23  24
ENDBRANCH  17  23
BRANCH  17  27
HETATM   27  C   UNL     1     -10.897  12.952  65.233  1.00  0.00    -0.292 C  
HETATM   28  C   UNL     1     -10.232  13.685  64.075  1.00  0.00     0.637 C  
HETATM   29  O   UNL     1     -11.713  12.057  64.982  1.00  0.00    -0.326 OA 
ENDBRANCH  17  27
TORSDOF 3
ENDMDL
MODEL      106
REMARK 921   NORMALIZED FREE ENERGY PREDICTED BY IDOCK:   40.63 KCAL/MOL
REMARK 922        TOTAL FREE ENERGY PREDICTED BY IDOCK:   47.27 KCAL/MOL
REMARK 923 INTER-LIGAND FREE ENERGY PREDICTED BY IDOCK:   45.35 KCAL/MOL
REMARK 924 INTRA-LIGAND FREE ENERGY PREDICTED BY IDOCK:    1.93 KCAL/MOL
REMARK 927      BINDING AFFINITY PREDICTED BY RF-SCORE:    0.00 PKD
ROOT
HETATM    1  C   UNL     1      -8.713   8.129  69.281  1.00  0.00    -0.140 C  
HETATM    2  C   UNL     1      -7.529   8.037  68.488  1.00  0.00    -0.102 C  
HETATM    3  C   UNL     1      -8.365   6.823  68.085  1.00  0.00    -0.118 C  
HETATM    4  C   UNL     1      -9.789   5.950  68.133  1.00  0.00    -0.155 C  
HETATM    5  C   UNL     1      -9.403   4.733  69.027  1.00  0.00    -0.193 C  
HETATM    6  C   UNL     1     -10.803   7.059  68.476  1.00  0.00    -0.187 C  
HETATM    7  C   UNL     1     -10.938   7.309  69.797  1.00  0.00    -0.235 C  
HETATM    8  C   UNL     1     -10.800   8.004  67.270  1.00  0.00    -0.089 C  
HETATM    9 CL   UNL     1     -11.062   9.702  67.477  1.00  0.00    -0.174 Cl 
HETATM   10  C   UNL     1     -10.466   7.569  66.025  1.00  0.00     1.163 C  
HETATM   11  C   UNL     1      -9.526   7.523  70.336  1.00  0.00    -0.161 C  
HETATM   12  C   UNL     1     -10.388   6.088  65.645  1.00  0.00     0.811 C  
HETATM   13  O   UNL     1      -9.131   7.218  71.448  1.00  0.00    -0.142 OA 
HETATM   14  C   UNL     1     -11.428   5.817  64.505  1.00  0.00     5.142 C  
HETATM   15  C   UNL     1     -10.717   6.054  63.152  1.00  0.00     5.796 C  
HETATM   16  C   UNL     1     -10.805   4.755  62.380  1.00  0.00     0.521 C  
HETATM   17  C   UNL     1     -11.079   3.658  63.427  1.00  0.00     0.075 C  
HETATM   18  C   UNL     1     -10.677   5.357  66.928  1.00  0.00    -0.264 C  
HETATM   19  C   UNL     1     -12.265   3.733  65.789  1.00  0.00     8.199 C  
HETATM   20  C   UNL     1     -12.073   4.384  64.386  1.00  0.00     2.903 C  
HETATM   21  C   UNL     1     -11.112   3.886  66.814  1.00  0.00     3.360 C  
HETATM   22  C   UNL     1     -13.499   4.488  63.756  1.00  0.00    12.846 C  
ENDROOT
BRANCH  17  23
HETATM   23  O   UNL     1      -9.946   3.435  64.294  1.00  0.00    -0.164 OA 
BRANCH  23  24
HETATM   24  C   UNL     1      -8.706   3.842  63.952  1.00  0.00    -0.098 C  
HETATM   25  O   UNL     1      -8.184   3.668  62.857  1.00  0.00    -0.078 OA 
HETATM   26  C   UNL     1      -8.062   4.522  65.122  1.00  0.00    -0.103 C  
ENDBRANCH  23  24
ENDBRANCH  17  23
BRANCH  17  27
HETATM   27  C   UNL     1     -11.571   2.330  62.807  1.00  0.00     0.181 C  
HETATM   28  C   UNL     1     -13.065   2.042  62.727  1.00  0.00     6.845 C  
HETATM   29  O   UNL     1     -10.778   1.497  62.351  1.00  0.00    -0.096 OA 
ENDBRANCH  17  27
TORSDOF 3
ENDMDL
MODEL      107
REMARK 921   NORMALIZED FREE ENERGY PREDICTED BY IDOCK:   41.04 KCAL/MOL
REMARK 922        TOTAL FREE ENERGY PREDICTED BY IDOCK:   47.75 KCAL/MOL
REMARK 923 INTER-LIGAND FREE ENERGY PREDICTED BY IDOCK:   17.75 KCAL/MOL
REMARK 924 INTRA-LIGAND FREE ENERGY PREDICTED BY IDOCK:   30.00 KCAL/MOL
REMARK 927      BINDING AFFINITY PREDICTED BY RF-SCORE:    0.00 PKD
ROOT
HETATM    1  C   UNL     1     -11.980   9.515  68.616  1.00  0.00     1.427 C  
HETATM    2  C   UNL     1     -13.020  10.037  69.444  1.00  0.00     1.652 C  
HETATM    3  C   UNL     1     -12.032  11.192  69.281  1.00  0.00    -0.421 C  
HETATM    4  C   UNL     1     -10.680  11.866  68.569  1.00  0.00    -0.254 C  
HETATM    5  C   UNL     1      -9.640  11.829  69.729  1.00  0.00     1.572 C  
HETATM    6  C   UNL     1     -10.615  11.074  67.248  1.00  0.00    -0.287 C  
HETATM    7  C   UNL     1      -9.957   9.897  67.331  1.00  0.00    -0.235 C  
HETATM    8  C   UNL     1     -11.876  11.468  66.472  1.00  0.00     0.377 C  
HETATM    9 CL   UNL     1     -12.667  10.330  65.435  1.00  0.00     7.858 Cl 
HETATM   10  C   UNL     1     -12.487  12.668  66.667  1.00  0.00     0.429 C  
HETATM   11  C   UNL     1     -10.567   9.150  68.514  1.00  0.00    -0.169 C  
HETATM   12  C   UNL     1     -11.825  13.839  67.399  1.00  0.00    -0.431 C  
HETATM   13  O   UNL     1      -9.974   8.395  69.267  1.00  0.00    -0.185 OA 
HETATM   14  C   UNL     1     -11.721  15.044  66.405  1.00  0.00    -0.110 C  
HETATM   15  C   UNL     1     -13.017  15.879  66.539  1.00  0.00     3.684 C  
HETATM   16  C   UNL     1     -12.595  17.275  66.945  1.00  0.00     5.307 C  
HETATM   17  C   UNL     1     -11.180  17.135  67.538  1.00  0.00     0.172 C  
HETATM   18  C   UNL     1     -10.496  13.295  67.849  1.00  0.00    -0.244 C  
HETATM   19  C   UNL     1      -9.253  15.380  67.099  1.00  0.00    -0.226 C  
HETATM   20  C   UNL     1     -10.545  16.079  66.581  1.00  0.00    -0.297 C  
HETATM   21  C   UNL     1      -9.410  14.320  68.219  1.00  0.00    -0.208 C  
HETATM   22  C   UNL     1     -10.175  16.711  65.201  1.00  0.00     0.148 C  
ENDROOT
BRANCH  17  23
HETATM   23  O   UNL     1     -11.183  16.426  68.796  1.00  0.00    -0.337 OA 
BRANCH  23  24
HETATM   24  C   UNL     1     -11.427  15.101  68.859  1.00  0.00    -0.320 C  
HETATM   25  O   UNL     1     -10.626  14.222  68.563  1.00  0.00    -0.243 OA 
HETATM   26  C   UNL     1     -12.832  14.872  69.329  1.00  0.00     0.459 C  
ENDBRANCH  23  24
ENDBRANCH  17  23
BRANCH  17  27
HETATM   27  C   UNL     1     -10.433  18.482  67.664  1.00  0.00    -0.417 C  
HETATM   28  C   UNL     1     -10.218  19.345  66.427  1.00  0.00    -0.556 C  
HETATM   29  O   UNL     1     -10.020  18.892  68.756  1.00  0.00    -0.391 OA 
ENDBRANCH  17  27
TORSDOF 3
ENDMDL
MODEL      108
REMARK 921   NORMALIZED FREE ENERGY PREDICTED BY IDOCK:   43.42 KCAL/MOL
REMARK 922        TOTAL FREE ENERGY PREDICTED BY IDOCK:   50.55 KCAL/MOL
REMARK 923 INTER-LIGAND FREE ENERGY PREDICTED BY IDOCK:   19.47 KCAL/MOL
REMARK 924 INTRA-LIGAND FREE ENERGY PREDICTED BY IDOCK:   31.08 KCAL/MOL
REMARK 927      BINDING AFFINITY PREDICTED BY RF-SCORE:    0.00 PKD
ROOT
HETATM    1  C   UNL     1      -9.659  11.058  63.447  1.00  0.00    -0.361 C  
HETATM    2  C   UNL     1     -10.067  12.337  63.933  1.00  0.00    -0.374 C  
HETATM    3  C   UNL     1     -10.086  11.427  65.161  1.00  0.00    -0.319 C  
HETATM    4  C   UNL     1      -9.750   9.967  65.901  1.00  0.00    -0.309 C  
HETATM    5  C   UNL     1     -11.169   9.343  66.063  1.00  0.00     2.025 C  
HETATM    6  C   UNL     1      -8.609   9.440  65.010  1.00  0.00    -0.193 C  
HETATM    7  C   UNL     1      -9.018   8.764  63.913  1.00  0.00     0.288 C  
HETATM    8  C   UNL     1      -7.447  10.418  65.211  1.00  0.00    -0.113 C  
HETATM    9 CL   UNL     1      -6.350  10.767  63.918  1.00  0.00     0.157 Cl 
HETATM   10  C   UNL     1      -7.312  11.137  66.358  1.00  0.00    -0.099 C  
HETATM   11  C   UNL     1     -10.034   9.663  63.213  1.00  0.00     1.362 C  
HETATM   12  C   UNL     1      -8.076  10.817  67.646  1.00  0.00    -0.114 C  
HETATM   13  O   UNL     1     -11.010   9.287  62.587  1.00  0.00     5.197 OA 
HETATM   14  C   UNL     1      -7.034  10.487  68.767  1.00  0.00    -0.070 C  
HETATM   15  C   UNL     1      -6.673  11.812  69.480  1.00  0.00    -0.067 C  
HETATM   16  C   UNL     1      -7.031  11.632  70.940  1.00  0.00     2.633 C  
HETATM   17  C   UNL     1      -8.039  10.468  70.989  1.00  0.00     2.827 C  
HETATM   18  C   UNL     1      -8.967   9.663  67.275  1.00  0.00    -0.146 C  
HETATM   19  C   UNL     1      -8.405   8.388  69.399  1.00  0.00    -0.120 C  
HETATM   20  C   UNL     1      -7.444   9.496  69.922  1.00  0.00    -0.113 C  
HETATM   21  C   UNL     1      -9.534   8.817  68.427  1.00  0.00    -0.148 C  
HETATM   22  C   UNL     1      -6.181   8.756  70.468  1.00  0.00    -0.037 C  
ENDROOT
BRANCH  17  23
HETATM   23  O   UNL     1      -9.306  10.817  70.392  1.00  0.00     0.946 OA 
BRANCH  23  24
HETATM   24  C   UNL     1     -10.080   9.893  69.786  1.00  0.00    -0.242 C  
HETATM   25  O   UNL     1     -11.256   9.675  70.053  1.00  0.00    -0.241 OA 
HETATM   26  C   UNL     1      -9.274   9.166  68.752  1.00  0.00    -0.136 C  
ENDBRANCH  23  24
ENDBRANCH  17  23
BRANCH  17  27
HETATM   27  C   UNL     1      -8.236   9.888  72.409  1.00  0.00     3.968 C  
HETATM   28  C   UNL     1      -9.384   8.924  72.678  1.00  0.00     0.288 C  
HETATM   29  O   UNL     1      -7.466  10.172  73.335  1.00  0.00     2.977 OA 
ENDBRANCH  17  27
TORSDOF 3
ENDMDL
MODEL      109
REMARK 921   NORMALIZED FREE ENERGY PREDICTED BY IDOCK:   56.96 KCAL/MOL
REMARK 922        TOTAL FREE ENERGY PREDICTED BY IDOCK:   66.46 KCAL/MOL
REMARK 923 INTER-LIGAND FREE ENERGY PREDICTED BY IDOCK:   65.23 KCAL/MOL
REMARK 924 INTRA-LIGAND FREE ENERGY PREDICTED BY IDOCK:    1.24 KCAL/MOL
REMARK 927      BINDING AFFINITY PREDICTED BY RF-SCORE:    0.00 PKD
ROOT
HETATM    1  C   UNL     1     -10.718  10.845  71.225  1.00  0.00     2.430 C  
HETATM    2  C   UNL     1      -9.952  10.260  70.171  1.00  0.00    -0.050 C  
HETATM    3  C   UNL     1     -10.207  11.697  69.718  1.00  0.00     0.796 C  
HETATM    4  C   UNL     1     -10.760  13.245  70.016  1.00  0.00     0.906 C  
HETATM    5  C   UNL     1     -12.067  13.299  69.170  1.00  0.00    -0.283 C  
HETATM    6  C   UNL     1     -10.655  13.305  71.553  1.00  0.00     6.277 C  
HETATM    7  C   UNL     1     -11.731  12.818  72.209  1.00  0.00     3.531 C  
HETATM    8  C   UNL     1      -9.158  13.206  71.865  1.00  0.00    17.114 C  
HETATM    9 CL   UNL     1      -8.606  12.417  73.303  1.00  0.00    20.920 Cl 
HETATM   10  C   UNL     1      -8.216  13.615  70.973  1.00  0.00     6.167 C  
HETATM   11  C   UNL     1     -11.996  11.433  71.624  1.00  0.00     0.814 C  
HETATM   12  C   UNL     1      -8.534  14.488  69.756  1.00  0.00     0.523 C  
HETATM   13  O   UNL     1     -13.090  10.912  71.486  1.00  0.00    -0.406 OA 
HETATM   14  C   UNL     1      -7.728  15.825  69.885  1.00  0.00     0.239 C  
HETATM   15  C   UNL     1      -6.356  15.617  69.200  1.00  0.00    -0.127 C  
HETATM   16  C   UNL     1      -6.258  16.654  68.101  1.00  0.00    -0.136 C  
HETATM   17  C   UNL     1      -7.703  17.097  67.805  1.00  0.00    -0.177 C  
HETATM   18  C   UNL     1     -10.027  14.662  69.800  1.00  0.00     0.201 C  
HETATM   19  C   UNL     1      -9.873  17.152  69.315  1.00  0.00    -0.100 C  
HETATM   20  C   UNL     1      -8.317  17.136  69.239  1.00  0.00     0.137 C  
HETATM   21  C   UNL     1     -10.620  15.832  68.995  1.00  0.00    -0.232 C  
HETATM   22  C   UNL     1      -7.830  18.391  70.033  1.00  0.00     1.505 C  
ENDROOT
BRANCH  17  23
HETATM   23  O   UNL     1      -8.479  16.049  67.183  1.00  0.00    -0.172 OA 
BRANCH  23  24
HETATM   24  C   UNL     1      -7.958  15.263  66.220  1.00  0.00     0.693 C  
HETATM   25  O   UNL     1      -8.263  15.306  65.034  1.00  0.00     3.666 OA 
HETATM   26  C   UNL     1      -6.964  14.319  66.827  1.00  0.00     1.407 C  
ENDBRANCH  23  24
ENDBRANCH  17  23
BRANCH  17  27
HETATM   27  C   UNL     1      -7.787  18.407  66.988  1.00  0.00    -0.227 C  
HETATM   28  C   UNL     1      -8.969  18.642  66.057  1.00  0.00     0.012 C  
HETATM   29  O   UNL     1      -6.923  19.287  67.089  1.00  0.00    -0.199 OA 
ENDBRANCH  17  27
TORSDOF 3
ENDMDL
MODEL      110
REMARK 921   NORMALIZED FREE ENERGY PREDICTED BY IDOCK:   89.84 KCAL/MOL
REMARK 922        TOTAL FREE ENERGY PREDICTED BY IDOCK:  105.11 KCAL/MOL
REMARK 923 INTER-LIGAND FREE ENERGY PREDICTED BY IDOCK:   82.65 KCAL/MOL
REMARK 924 INTRA-LIGAND FREE ENERGY PREDICTED BY IDOCK:   22.46 KCAL/MOL
REMARK 927      BINDING AFFINITY PREDICTED BY RF-SCORE:    0.00 PKD
ROOT
HETATM    1  C   UNL     1     -13.099  14.497  63.852  1.00  0.00     1.409 C  
HETATM    2  C   UNL     1     -14.070  13.965  64.753  1.00  0.00     3.967 C  
HETATM    3  C   UNL     1     -12.868  14.310  65.632  1.00  0.00    -0.321 C  
HETATM    4  C   UNL     1     -11.365  15.009  65.840  1.00  0.00    -0.273 C  
HETATM    5  C   UNL     1     -10.433  13.766  65.955  1.00  0.00    -0.297 C  
HETATM    6  C   UNL     1     -11.368  16.057  64.709  1.00  0.00    -0.285 C  
HETATM    7  C   UNL     1     -10.959  15.589  63.509  1.00  0.00     2.819 C  
HETATM    8  C   UNL     1     -12.473  17.053  65.076  1.00  0.00     4.623 C  
HETATM    9 CL   UNL     1     -13.399  17.839  63.842  1.00  0.00    12.747 Cl 
HETATM   10  C   UNL     1     -12.850  17.255  66.367  1.00  0.00     7.562 C  
HETATM   11  C   UNL     1     -11.781  14.331  63.239  1.00  0.00     1.144 C  
HETATM   12  C   UNL     1     -12.023  16.785  67.567  1.00  0.00     1.348 C  
HETATM   13  O   UNL     1     -11.398  13.342  62.638  1.00  0.00     1.070 OA 
HETATM   14  C   UNL     1     -11.619  18.043  68.409  1.00  0.00     1.704 C  
HETATM   15  C   UNL     1     -12.734  18.289  69.454  1.00  0.00    12.359 C  
HETATM   16  C   UNL     1     -12.076  18.218  70.815  1.00  0.00     9.766 C  
HETATM   17  C   UNL     1     -10.758  17.447  70.611  1.00  0.00     1.294 C  
HETATM   18  C   UNL     1     -10.859  16.054  66.956  1.00  0.00    -0.227 C  
HETATM   19  C   UNL     1      -9.185  17.176  68.504  1.00  0.00    -0.264 C  
HETATM   20  C   UNL     1     -10.278  18.008  69.236  1.00  0.00    -0.043 C  
HETATM   21  C   UNL     1      -9.621  15.843  67.844  1.00  0.00    -0.215 C  
HETATM   22  C   UNL     1      -9.701  19.453  69.382  1.00  0.00    -0.207 C  
ENDROOT
BRANCH  17  23
HETATM   23  O   UNL     1     -10.983  16.056  70.296  1.00  0.00    -0.328 OA 
BRANCH  23  24
HETATM   24  C   UNL     1     -11.824  15.683  69.309  1.00  0.00    -0.363 C  
HETATM   25  O   UNL     1     -12.340  16.444  68.499  1.00  0.00     0.464 OA 
HETATM   26  C   UNL     1     -12.042  14.201  69.370  1.00  0.00    -0.372 C  
ENDBRANCH  23  24
ENDBRANCH  17  23
BRANCH  17  27
HETATM   27  C   UNL     1      -9.772  17.594  71.793  1.00  0.00     7.865 C  
HETATM   28  C   UNL     1      -9.644  18.933  72.507  1.00  0.00     6.548 C  
HETATM   29  O   UNL     1      -9.095  16.638  72.191  1.00  0.00     9.162 OA 
ENDBRANCH  17  27
TORSDOF 3
ENDMDL
