MODEL        1
REMARK 921   NORMALIZED FREE ENERGY PREDICTED BY IDOCK:   -4.15 KCAL/MOL
REMARK 922        TOTAL FREE ENERGY PREDICTED BY IDOCK:   -4.40 KCAL/MOL
REMARK 923 INTER-LIGAND FREE ENERGY PREDICTED BY IDOCK:   -4.40 KCAL/MOL
REMARK 924 INTRA-LIGAND FREE ENERGY PREDICTED BY IDOCK:   -0.00 KCAL/MOL
REMARK 927      BINDING AFFINITY PREDICTED BY RF-SCORE:    0.00 PKD
ROOT
ATOM      1  N   CYS A   1     -12.512  14.283  63.453  1.00  0.00    -1.101 NA 
ATOM      2  H1  CYS A   1     -13.279  14.954  63.474  1.00  0.00     0.000 HD 
ATOM      3  CA  CYS A   1     -11.620  14.365  64.661  1.00  0.00    -0.409 C  
ATOM      4  H2  CYS A   1     -12.862  13.334  63.326  1.00  0.00     0.000 HD 
ATOM      5  C   CYS A   1     -11.040  15.782  64.739  1.00  0.00    -0.400 C  
ATOM      6  O   CYS A   1     -11.630  16.610  63.839  1.00  0.00    -1.204 OA 
ATOM      7  OXT CYS A   1     -10.164  16.141  65.510  1.00  0.00    -0.414 OA 
ENDROOT
BRANCH   3   8
ATOM      8  CB  CYS A   1     -10.465  13.356  64.631  1.00  0.00    -0.411 C  
ATOM      9  SG  CYS A   1     -10.915  11.832  63.734  1.00  0.00    -0.457 SA 
ATOM     10  HG  CYS A   1      -9.868  10.918  63.707  1.00  0.00     0.000 H  
ENDBRANCH   3   8
TORSDOF 1
ENDMDL
MODEL        2
REMARK 921   NORMALIZED FREE ENERGY PREDICTED BY IDOCK:   -4.01 KCAL/MOL
REMARK 922        TOTAL FREE ENERGY PREDICTED BY IDOCK:   -4.24 KCAL/MOL
REMARK 923 INTER-LIGAND FREE ENERGY PREDICTED BY IDOCK:   -4.21 KCAL/MOL
REMARK 924 INTRA-LIGAND FREE ENERGY PREDICTED BY IDOCK:   -0.04 KCAL/MOL
REMARK 927      BINDING AFFINITY PREDICTED BY RF-SCORE:    0.00 PKD
ROOT
ATOM      1  N   CYS A   1     -12.286  13.850  63.080  1.00  0.00    -1.106 NA 
ATOM      2  H1  CYS A   1     -13.298  13.978  63.053  1.00  0.00     0.000 HD 
ATOM      3  CA  CYS A   1     -11.862  12.659  63.895  1.00  0.00    -0.467 C  
ATOM      4  H2  CYS A   1     -11.902  13.800  62.137  1.00  0.00     0.000 HD 
ATOM      5  C   CYS A   1     -12.377  12.842  65.326  1.00  0.00    -0.490 C  
ATOM      6  O   CYS A   1     -13.225  13.900  65.417  1.00  0.00    -0.750 OA 
ATOM      7  OXT CYS A   1     -12.082  12.135  66.275  1.00  0.00    -0.626 OA 
ENDROOT
BRANCH   3   8
ATOM      8  CB  CYS A   1     -10.341  12.464  63.935  1.00  0.00    -0.423 C  
ATOM      9  SG  CYS A   1      -9.863  10.742  63.568  1.00  0.00    -0.344 SA 
ATOM     10  HG  CYS A   1      -8.485  10.566  63.605  1.00  0.00     0.000 H  
ENDBRANCH   3   8
TORSDOF 1
ENDMDL
MODEL        3
REMARK 921   NORMALIZED FREE ENERGY PREDICTED BY IDOCK:   -3.92 KCAL/MOL
REMARK 922        TOTAL FREE ENERGY PREDICTED BY IDOCK:   -4.15 KCAL/MOL
REMARK 923 INTER-LIGAND FREE ENERGY PREDICTED BY IDOCK:   -4.15 KCAL/MOL
REMARK 924 INTRA-LIGAND FREE ENERGY PREDICTED BY IDOCK:   -0.00 KCAL/MOL
REMARK 927      BINDING AFFINITY PREDICTED BY RF-SCORE:    0.00 PKD
ROOT
ATOM      1  N   CYS A   1     -11.375  16.489  64.008  1.00  0.00    -1.559 NA 
ATOM      2  H1  CYS A   1     -11.480  16.257  63.021  1.00  0.00     0.000 HD 
ATOM      3  CA  CYS A   1     -10.849  15.346  64.833  1.00  0.00    -0.425 C  
ATOM      4  H2  CYS A   1     -10.794  17.318  64.126  1.00  0.00     0.000 HD 
ATOM      5  C   CYS A   1     -11.818  14.167  64.700  1.00  0.00    -0.431 C  
ATOM      6  O   CYS A   1     -12.753  14.398  63.742  1.00  0.00    -0.785 OA 
ATOM      7  OXT CYS A   1     -11.768  13.140  65.357  1.00  0.00    -0.323 OA 
ENDROOT
BRANCH   3   8
ATOM      8  CB  CYS A   1     -10.690  15.694  66.318  1.00  0.00    -0.295 C  
ATOM      9  SG  CYS A   1     -10.058  17.390  66.557  1.00  0.00    -0.328 SA 
ATOM     10  HG  CYS A   1      -9.914  17.706  67.903  1.00  0.00     0.000 H  
ENDBRANCH   3   8
TORSDOF 1
ENDMDL
MODEL        4
REMARK 921   NORMALIZED FREE ENERGY PREDICTED BY IDOCK:   -3.84 KCAL/MOL
REMARK 922        TOTAL FREE ENERGY PREDICTED BY IDOCK:   -4.07 KCAL/MOL
REMARK 923 INTER-LIGAND FREE ENERGY PREDICTED BY IDOCK:   -4.05 KCAL/MOL
REMARK 924 INTRA-LIGAND FREE ENERGY PREDICTED BY IDOCK:   -0.03 KCAL/MOL
REMARK 927      BINDING AFFINITY PREDICTED BY RF-SCORE:    0.00 PKD
ROOT
ATOM      1  N   CYS A   1     -12.420  14.194  63.214  1.00  0.00    -1.098 NA 
ATOM      2  H1  CYS A   1     -12.509  13.432  62.542  1.00  0.00     0.000 HD 
ATOM      3  CA  CYS A   1     -11.669  13.804  64.457  1.00  0.00    -0.407 C  
ATOM      4  H2  CYS A   1     -11.999  15.015  62.779  1.00  0.00     0.000 HD 
ATOM      5  C   CYS A   1     -12.408  12.638  65.123  1.00  0.00    -0.484 C  
ATOM      6  O   CYS A   1     -13.397  12.156  64.325  1.00  0.00    -0.761 OA 
ATOM      7  OXT CYS A   1     -12.151  12.181  66.224  1.00  0.00    -0.626 OA 
ENDROOT
BRANCH   3   8
ATOM      8  CB  CYS A   1     -11.535  14.950  65.468  1.00  0.00    -0.307 C  
ATOM      9  SG  CYS A   1      -9.791  15.402  65.759  1.00  0.00    -0.363 SA 
ATOM     10  HG  CYS A   1      -9.670  16.440  66.675  1.00  0.00     0.000 H  
ENDBRANCH   3   8
TORSDOF 1
ENDMDL
MODEL        5
REMARK 921   NORMALIZED FREE ENERGY PREDICTED BY IDOCK:   -3.75 KCAL/MOL
REMARK 922        TOTAL FREE ENERGY PREDICTED BY IDOCK:   -3.97 KCAL/MOL
REMARK 923 INTER-LIGAND FREE ENERGY PREDICTED BY IDOCK:   -3.93 KCAL/MOL
REMARK 924 INTRA-LIGAND FREE ENERGY PREDICTED BY IDOCK:   -0.04 KCAL/MOL
REMARK 927      BINDING AFFINITY PREDICTED BY RF-SCORE:    0.00 PKD
ROOT
ATOM      1  N   CYS A   1     -11.488  16.379  63.902  1.00  0.00    -1.618 NA 
ATOM      2  H1  CYS A   1     -11.627  17.308  64.298  1.00  0.00     0.000 HD 
ATOM      3  CA  CYS A   1     -11.271  15.317  64.944  1.00  0.00    -0.415 C  
ATOM      4  H2  CYS A   1     -12.260  16.128  63.285  1.00  0.00     0.000 HD 
ATOM      5  C   CYS A   1     -10.036  15.694  65.770  1.00  0.00    -0.366 C  
ATOM      6  O   CYS A   1      -9.608  16.950  65.477  1.00  0.00    -0.519 OA 
ATOM      7  OXT CYS A   1      -9.497  14.976  66.596  1.00  0.00    -0.236 OA 
ENDROOT
BRANCH   3   8
ATOM      8  CB  CYS A   1     -11.062  13.918  64.349  1.00  0.00    -0.319 C  
ATOM      9  SG  CYS A   1     -12.041  12.651  65.225  1.00  0.00    -0.459 SA 
ATOM     10  HG  CYS A   1     -11.852  11.385  64.686  1.00  0.00     0.000 H  
ENDBRANCH   3   8
TORSDOF 1
ENDMDL
MODEL        6
REMARK 921   NORMALIZED FREE ENERGY PREDICTED BY IDOCK:   -3.67 KCAL/MOL
REMARK 922        TOTAL FREE ENERGY PREDICTED BY IDOCK:   -3.89 KCAL/MOL
REMARK 923 INTER-LIGAND FREE ENERGY PREDICTED BY IDOCK:   -3.83 KCAL/MOL
REMARK 924 INTRA-LIGAND FREE ENERGY PREDICTED BY IDOCK:   -0.06 KCAL/MOL
REMARK 927      BINDING AFFINITY PREDICTED BY RF-SCORE:    0.00 PKD
ROOT
ATOM      1  N   CYS A   1     -10.258  14.029  64.514  1.00  0.00    -0.689 NA 
ATOM      2  H1  CYS A   1     -10.237  14.645  63.701  1.00  0.00     0.000 HD 
ATOM      3  CA  CYS A   1     -10.773  12.651  64.201  1.00  0.00    -0.406 C  
ATOM      4  H2  CYS A   1      -9.340  13.980  64.956  1.00  0.00     0.000 HD 
ATOM      5  C   CYS A   1     -12.193  12.781  63.640  1.00  0.00    -0.512 C  
ATOM      6  O   CYS A   1     -12.514  14.079  63.396  1.00  0.00    -0.826 OA 
ATOM      7  OXT CYS A   1     -12.952  11.851  63.426  1.00  0.00    -0.730 OA 
ENDROOT
BRANCH   3   8
ATOM      8  CB  CYS A   1     -10.804  11.724  65.422  1.00  0.00    -0.295 C  
ATOM      9  SG  CYS A   1     -11.459  12.568  66.902  1.00  0.00    -0.371 SA 
ATOM     10  HG  CYS A   1     -11.487  11.729  68.009  1.00  0.00     0.000 H  
ENDBRANCH   3   8
TORSDOF 1
ENDMDL
MODEL        7
REMARK 921   NORMALIZED FREE ENERGY PREDICTED BY IDOCK:   -3.57 KCAL/MOL
REMARK 922        TOTAL FREE ENERGY PREDICTED BY IDOCK:   -3.78 KCAL/MOL
REMARK 923 INTER-LIGAND FREE ENERGY PREDICTED BY IDOCK:   -3.82 KCAL/MOL
REMARK 924 INTRA-LIGAND FREE ENERGY PREDICTED BY IDOCK:    0.04 KCAL/MOL
REMARK 927      BINDING AFFINITY PREDICTED BY RF-SCORE:    0.00 PKD
ROOT
ATOM      1  N   CYS A   1      -9.742  16.112  65.691  1.00  0.00    -0.468 NA 
ATOM      2  H1  CYS A   1      -9.279  16.542  64.890  1.00  0.00     0.000 HD 
ATOM      3  CA  CYS A   1     -10.592  14.928  65.318  1.00  0.00    -0.401 C  
ATOM      4  H2  CYS A   1      -9.063  15.859  66.409  1.00  0.00     0.000 HD 
ATOM      5  C   CYS A   1     -11.657  15.393  64.320  1.00  0.00    -0.191 C  
ATOM      6  O   CYS A   1     -11.425  16.664  63.901  1.00  0.00    -1.186 OA 
ATOM      7  OXT CYS A   1     -12.598  14.720  63.933  1.00  0.00    -0.834 OA 
ENDROOT
BRANCH   3   8
ATOM      8  CB  CYS A   1     -11.287  14.279  66.522  1.00  0.00    -0.346 C  
ATOM      9  SG  CYS A   1     -11.520  12.484  66.289  1.00  0.00    -0.389 SA 
ATOM     10  HG  CYS A   1     -12.150  11.897  67.379  1.00  0.00     0.000 H  
ENDBRANCH   3   8
TORSDOF 1
ENDMDL
MODEL        8
REMARK 921   NORMALIZED FREE ENERGY PREDICTED BY IDOCK:   -3.48 KCAL/MOL
REMARK 922        TOTAL FREE ENERGY PREDICTED BY IDOCK:   -3.68 KCAL/MOL
REMARK 923 INTER-LIGAND FREE ENERGY PREDICTED BY IDOCK:   -3.62 KCAL/MOL
REMARK 924 INTRA-LIGAND FREE ENERGY PREDICTED BY IDOCK:   -0.06 KCAL/MOL
REMARK 927      BINDING AFFINITY PREDICTED BY RF-SCORE:    0.00 PKD
ROOT
ATOM      1  N   CYS A   1     -10.064  13.346  64.163  1.00  0.00    -0.779 NA 
ATOM      2  H1  CYS A   1     -10.320  12.705  63.412  1.00  0.00     0.000 HD 
ATOM      3  CA  CYS A   1     -11.055  13.358  65.295  1.00  0.00    -0.291 C  
ATOM      4  H2  CYS A   1      -9.125  13.146  64.506  1.00  0.00     0.000 HD 
ATOM      5  C   CYS A   1     -12.422  13.768  64.737  1.00  0.00    -0.349 C  
ATOM      6  O   CYS A   1     -12.412  13.809  63.379  1.00  0.00    -0.817 OA 
ATOM      7  OXT CYS A   1     -13.408  14.021  65.409  1.00  0.00    -0.721 OA 
ENDROOT
BRANCH   3   8
ATOM      8  CB  CYS A   1     -10.671  14.321  66.425  1.00  0.00    -0.297 C  
ATOM      9  SG  CYS A   1     -10.079  15.924  65.783  1.00  0.00    -0.369 SA 
ATOM     10  HG  CYS A   1      -9.731  16.797  66.807  1.00  0.00     0.000 H  
ENDBRANCH   3   8
TORSDOF 1
ENDMDL
MODEL        9
REMARK 921   NORMALIZED FREE ENERGY PREDICTED BY IDOCK:   -3.47 KCAL/MOL
REMARK 922        TOTAL FREE ENERGY PREDICTED BY IDOCK:   -3.68 KCAL/MOL
REMARK 923 INTER-LIGAND FREE ENERGY PREDICTED BY IDOCK:   -3.65 KCAL/MOL
REMARK 924 INTRA-LIGAND FREE ENERGY PREDICTED BY IDOCK:   -0.03 KCAL/MOL
REMARK 927      BINDING AFFINITY PREDICTED BY RF-SCORE:    0.00 PKD
ROOT
ATOM      1  N   CYS A   1     -12.422  12.478  65.375  1.00  0.00    -0.647 NA 
ATOM      2  H1  CYS A   1     -13.158  12.122  64.765  1.00  0.00     0.000 HD 
ATOM      3  CA  CYS A   1     -12.494  13.966  65.584  1.00  0.00    -0.505 C  
ATOM      4  H2  CYS A   1     -12.422  11.986  66.268  1.00  0.00     0.000 HD 
ATOM      5  C   CYS A   1     -12.383  14.653  64.219  1.00  0.00    -0.349 C  
ATOM      6  O   CYS A   1     -12.451  13.753  63.203  1.00  0.00    -0.786 OA 
ATOM      7  OXT CYS A   1     -12.255  15.853  64.045  1.00  0.00    -0.719 OA 
ENDROOT
BRANCH   3   8
ATOM      8  CB  CYS A   1     -11.389  14.503  66.502  1.00  0.00    -0.352 C  
ATOM      9  SG  CYS A   1      -9.952  13.379  66.568  1.00  0.00    -0.291 SA 
ATOM     10  HG  CYS A   1      -8.951  13.866  67.400  1.00  0.00     0.000 H  
ENDBRANCH   3   8
TORSDOF 1
ENDMDL
MODEL       10
REMARK 921   NORMALIZED FREE ENERGY PREDICTED BY IDOCK:   -3.46 KCAL/MOL
REMARK 922        TOTAL FREE ENERGY PREDICTED BY IDOCK:   -3.67 KCAL/MOL
REMARK 923 INTER-LIGAND FREE ENERGY PREDICTED BY IDOCK:   -3.65 KCAL/MOL
REMARK 924 INTRA-LIGAND FREE ENERGY PREDICTED BY IDOCK:   -0.02 KCAL/MOL
REMARK 927      BINDING AFFINITY PREDICTED BY RF-SCORE:    0.00 PKD
ROOT
ATOM      1  N   CYS A   1     -12.565  11.504  62.920  1.00  0.00    -0.874 NA 
ATOM      2  H1  CYS A   1     -13.487  11.784  63.256  1.00  0.00     0.000 HD 
ATOM      3  CA  CYS A   1     -11.450  11.903  63.846  1.00  0.00    -0.426 C  
ATOM      4  H2  CYS A   1     -12.537  10.503  62.729  1.00  0.00     0.000 HD 
ATOM      5  C   CYS A   1     -11.478  13.427  64.010  1.00  0.00    -0.352 C  
ATOM      6  O   CYS A   1     -12.593  13.965  63.452  1.00  0.00    -0.853 OA 
ATOM      7  OXT CYS A   1     -10.621  14.089  64.572  1.00  0.00    -0.416 OA 
ENDROOT
BRANCH   3   8
ATOM      8  CB  CYS A   1     -10.064  11.483  63.341  1.00  0.00    -0.420 C  
ATOM      9  SG  CYS A   1      -9.331  10.169  64.374  1.00  0.00    -0.309 SA 
ATOM     10  HG  CYS A   1      -8.075   9.788  63.916  1.00  0.00     0.000 H  
ENDBRANCH   3   8
TORSDOF 1
ENDMDL
MODEL       11
REMARK 921   NORMALIZED FREE ENERGY PREDICTED BY IDOCK:   -3.45 KCAL/MOL
REMARK 922        TOTAL FREE ENERGY PREDICTED BY IDOCK:   -3.66 KCAL/MOL
REMARK 923 INTER-LIGAND FREE ENERGY PREDICTED BY IDOCK:   -3.63 KCAL/MOL
REMARK 924 INTRA-LIGAND FREE ENERGY PREDICTED BY IDOCK:   -0.03 KCAL/MOL
REMARK 927      BINDING AFFINITY PREDICTED BY RF-SCORE:    0.00 PKD
ROOT
ATOM      1  N   CYS A   1     -12.765  12.383  63.273  1.00  0.00    -0.781 NA 
ATOM      2  H1  CYS A   1     -13.647  12.848  63.059  1.00  0.00     0.000 HD 
ATOM      3  CA  CYS A   1     -12.321  12.581  64.696  1.00  0.00    -0.474 C  
ATOM      4  H2  CYS A   1     -12.813  11.390  63.044  1.00  0.00     0.000 HD 
ATOM      5  C   CYS A   1     -12.164  14.085  64.949  1.00  0.00    -0.437 C  
ATOM      6  O   CYS A   1     -12.650  14.816  63.912  1.00  0.00    -0.834 OA 
ATOM      7  OXT CYS A   1     -11.675  14.581  65.950  1.00  0.00    -0.361 OA 
ENDROOT
BRANCH   3   8
ATOM      8  CB  CYS A   1     -10.994  11.882  65.019  1.00  0.00    -0.312 C  
ATOM      9  SG  CYS A   1      -9.999  11.580  63.519  1.00  0.00    -0.430 SA 
ATOM     10  HG  CYS A   1      -8.798  10.946  63.812  1.00  0.00     0.000 H  
ENDBRANCH   3   8
TORSDOF 1
ENDMDL
MODEL       12
REMARK 921   NORMALIZED FREE ENERGY PREDICTED BY IDOCK:   -3.42 KCAL/MOL
REMARK 922        TOTAL FREE ENERGY PREDICTED BY IDOCK:   -3.62 KCAL/MOL
REMARK 923 INTER-LIGAND FREE ENERGY PREDICTED BY IDOCK:   -3.62 KCAL/MOL
REMARK 924 INTRA-LIGAND FREE ENERGY PREDICTED BY IDOCK:   -0.00 KCAL/MOL
REMARK 927      BINDING AFFINITY PREDICTED BY RF-SCORE:    0.00 PKD
ROOT
ATOM      1  N   CYS A   1     -11.968  16.464  72.042  1.00  0.00    -0.649 NA 
ATOM      2  H1  CYS A   1     -12.262  16.996  72.861  1.00  0.00     0.000 HD 
ATOM      3  CA  CYS A   1     -13.001  15.474  71.576  1.00  0.00    -0.472 C  
ATOM      4  H2  CYS A   1     -11.696  17.087  71.282  1.00  0.00     0.000 HD 
ATOM      5  C   CYS A   1     -13.290  14.501  72.724  1.00  0.00    -0.507 C  
ATOM      6  O   CYS A   1     -12.703  14.907  73.880  1.00  0.00    -0.496 OA 
ATOM      7  OXT CYS A   1     -13.965  13.488  72.633  1.00  0.00    -0.752 OA 
ENDROOT
BRANCH   3   8
ATOM      8  CB  CYS A   1     -12.561  14.674  70.344  1.00  0.00    -0.343 C  
ATOM      9  SG  CYS A   1     -11.647  15.708  69.150  1.00  0.00    -0.397 SA 
ATOM     10  HG  CYS A   1     -11.248  14.983  68.034  1.00  0.00     0.000 H  
ENDBRANCH   3   8
TORSDOF 1
ENDMDL
MODEL       13
REMARK 921   NORMALIZED FREE ENERGY PREDICTED BY IDOCK:   -3.40 KCAL/MOL
REMARK 922        TOTAL FREE ENERGY PREDICTED BY IDOCK:   -3.61 KCAL/MOL
REMARK 923 INTER-LIGAND FREE ENERGY PREDICTED BY IDOCK:   -3.54 KCAL/MOL
REMARK 924 INTRA-LIGAND FREE ENERGY PREDICTED BY IDOCK:   -0.06 KCAL/MOL
REMARK 927      BINDING AFFINITY PREDICTED BY RF-SCORE:    0.00 PKD
ROOT
ATOM      1  N   CYS A   1     -13.867  13.175  72.658  1.00  0.00    -0.746 NA 
ATOM      2  H1  CYS A   1     -13.949  12.337  72.082  1.00  0.00     0.000 HD 
ATOM      3  CA  CYS A   1     -14.002  14.450  71.871  1.00  0.00    -0.487 C  
ATOM      4  H2  CYS A   1     -14.533  13.153  73.429  1.00  0.00     0.000 HD 
ATOM      5  C   CYS A   1     -12.908  14.475  70.798  1.00  0.00    -0.361 C  
ATOM      6  O   CYS A   1     -12.262  13.283  70.720  1.00  0.00    -0.358 OA 
ATOM      7  OXT CYS A   1     -12.642  15.431  70.089  1.00  0.00    -0.364 OA 
ENDROOT
BRANCH   3   8
ATOM      8  CB  CYS A   1     -13.878  15.711  72.736  1.00  0.00    -0.545 C  
ATOM      9  SG  CYS A   1     -12.461  15.616  73.881  1.00  0.00    -0.681 SA 
ATOM     10  HG  CYS A   1     -12.349  16.758  74.665  1.00  0.00     0.000 H  
ENDBRANCH   3   8
TORSDOF 1
ENDMDL
MODEL       14
REMARK 921   NORMALIZED FREE ENERGY PREDICTED BY IDOCK:   -3.40 KCAL/MOL
REMARK 922        TOTAL FREE ENERGY PREDICTED BY IDOCK:   -3.61 KCAL/MOL
REMARK 923 INTER-LIGAND FREE ENERGY PREDICTED BY IDOCK:   -3.60 KCAL/MOL
REMARK 924 INTRA-LIGAND FREE ENERGY PREDICTED BY IDOCK:   -0.01 KCAL/MOL
REMARK 927      BINDING AFFINITY PREDICTED BY RF-SCORE:    0.00 PKD
ROOT
ATOM      1  N   CYS A   1     -10.056  13.611  64.558  1.00  0.00    -0.655 NA 
ATOM      2  H1  CYS A   1     -10.185  14.539  64.156  1.00  0.00     0.000 HD 
ATOM      3  CA  CYS A   1     -10.774  12.530  63.797  1.00  0.00    -0.445 C  
ATOM      4  H2  CYS A   1      -9.064  13.390  64.650  1.00  0.00     0.000 HD 
ATOM      5  C   CYS A   1     -12.271  12.861  63.784  1.00  0.00    -0.476 C  
ATOM      6  O   CYS A   1     -12.508  14.107  64.272  1.00  0.00    -0.650 OA 
ATOM      7  OXT CYS A   1     -13.151  12.118  63.383  1.00  0.00    -0.752 OA 
ENDROOT
BRANCH   3   8
ATOM      8  CB  CYS A   1     -10.580  11.134  64.401  1.00  0.00    -0.343 C  
ATOM      9  SG  CYS A   1      -9.101  10.300  63.730  1.00  0.00    -0.277 SA 
ATOM     10  HG  CYS A   1      -8.925   9.035  64.277  1.00  0.00     0.000 H  
ENDBRANCH   3   8
TORSDOF 1
ENDMDL
MODEL       15
REMARK 921   NORMALIZED FREE ENERGY PREDICTED BY IDOCK:   -3.40 KCAL/MOL
REMARK 922        TOTAL FREE ENERGY PREDICTED BY IDOCK:   -3.60 KCAL/MOL
REMARK 923 INTER-LIGAND FREE ENERGY PREDICTED BY IDOCK:   -3.54 KCAL/MOL
REMARK 924 INTRA-LIGAND FREE ENERGY PREDICTED BY IDOCK:   -0.07 KCAL/MOL
REMARK 927      BINDING AFFINITY PREDICTED BY RF-SCORE:    0.00 PKD
ROOT
ATOM      1  N   CYS A   1     -12.626  14.508  63.889  1.00  0.00    -0.946 NA 
ATOM      2  H1  CYS A   1     -13.105  14.415  62.993  1.00  0.00     0.000 HD 
ATOM      3  CA  CYS A   1     -11.413  13.626  64.007  1.00  0.00    -0.271 C  
ATOM      4  H2  CYS A   1     -12.386  15.481  64.073  1.00  0.00     0.000 HD 
ATOM      5  C   CYS A   1     -11.854  12.169  63.828  1.00  0.00    -0.500 C  
ATOM      6  O   CYS A   1     -13.148  12.089  63.421  1.00  0.00    -0.747 OA 
ATOM      7  OXT CYS A   1     -11.147  11.193  64.014  1.00  0.00    -0.331 OA 
ENDROOT
BRANCH   3   8
ATOM      8  CB  CYS A   1     -10.693  13.765  65.354  1.00  0.00    -0.317 C  
ATOM      9  SG  CYS A   1     -11.851  13.653  66.761  1.00  0.00    -0.425 SA 
ATOM     10  HG  CYS A   1     -11.198  13.779  67.982  1.00  0.00     0.000 H  
ENDBRANCH   3   8
TORSDOF 1
ENDMDL
MODEL       16
REMARK 921   NORMALIZED FREE ENERGY PREDICTED BY IDOCK:   -3.39 KCAL/MOL
REMARK 922        TOTAL FREE ENERGY PREDICTED BY IDOCK:   -3.60 KCAL/MOL
REMARK 923 INTER-LIGAND FREE ENERGY PREDICTED BY IDOCK:   -3.57 KCAL/MOL
REMARK 924 INTRA-LIGAND FREE ENERGY PREDICTED BY IDOCK:   -0.03 KCAL/MOL
REMARK 927      BINDING AFFINITY PREDICTED BY RF-SCORE:    0.00 PKD
ROOT
ATOM      1  N   CYS A   1      -9.657  13.993  66.024  1.00  0.00    -0.470 NA 
ATOM      2  H1  CYS A   1      -8.734  14.426  66.014  1.00  0.00     0.000 HD 
ATOM      3  CA  CYS A   1     -10.504  14.375  64.841  1.00  0.00    -0.423 C  
ATOM      4  H2  CYS A   1      -9.582  12.979  66.103  1.00  0.00     0.000 HD 
ATOM      5  C   CYS A   1     -10.670  15.898  64.836  1.00  0.00    -0.341 C  
ATOM      6  O   CYS A   1      -9.863  16.488  65.757  1.00  0.00    -0.457 OA 
ATOM      7  OXT CYS A   1     -11.419  16.521  64.102  1.00  0.00    -1.059 OA 
ENDROOT
BRANCH   3   8
ATOM      8  CB  CYS A   1     -11.893  13.724  64.855  1.00  0.00    -0.375 C  
ATOM      9  SG  CYS A   1     -12.139  12.611  63.429  1.00  0.00    -0.445 SA 
ATOM     10  HG  CYS A   1     -13.397  12.022  63.442  1.00  0.00     0.000 H  
ENDBRANCH   3   8
TORSDOF 1
ENDMDL
MODEL       17
REMARK 921   NORMALIZED FREE ENERGY PREDICTED BY IDOCK:   -3.36 KCAL/MOL
REMARK 922        TOTAL FREE ENERGY PREDICTED BY IDOCK:   -3.57 KCAL/MOL
REMARK 923 INTER-LIGAND FREE ENERGY PREDICTED BY IDOCK:   -3.53 KCAL/MOL
REMARK 924 INTRA-LIGAND FREE ENERGY PREDICTED BY IDOCK:   -0.04 KCAL/MOL
REMARK 927      BINDING AFFINITY PREDICTED BY RF-SCORE:    0.00 PKD
ROOT
ATOM      1  N   CYS A   1     -10.479  11.914  63.093  1.00  0.00    -0.651 NA 
ATOM      2  H1  CYS A   1     -10.848  10.979  62.918  1.00  0.00     0.000 HD 
ATOM      3  CA  CYS A   1     -10.969  12.512  64.383  1.00  0.00    -0.340 C  
ATOM      4  H2  CYS A   1      -9.460  11.915  63.056  1.00  0.00     0.000 HD 
ATOM      5  C   CYS A   1     -12.499  12.581  64.334  1.00  0.00    -0.446 C  
ATOM      6  O   CYS A   1     -12.992  11.918  63.256  1.00  0.00    -0.707 OA 
ATOM      7  OXT CYS A   1     -13.203  13.149  65.153  1.00  0.00    -0.683 OA 
ENDROOT
BRANCH   3   8
ATOM      8  CB  CYS A   1     -10.416  13.918  64.647  1.00  0.00    -0.396 C  
ATOM      9  SG  CYS A   1      -9.866  14.121  66.375  1.00  0.00    -0.305 SA 
ATOM     10  HG  CYS A   1      -9.364  15.394  66.614  1.00  0.00     0.000 H  
ENDBRANCH   3   8
TORSDOF 1
ENDMDL
MODEL       18
REMARK 921   NORMALIZED FREE ENERGY PREDICTED BY IDOCK:   -3.31 KCAL/MOL
REMARK 922        TOTAL FREE ENERGY PREDICTED BY IDOCK:   -3.51 KCAL/MOL
REMARK 923 INTER-LIGAND FREE ENERGY PREDICTED BY IDOCK:   -3.47 KCAL/MOL
REMARK 924 INTRA-LIGAND FREE ENERGY PREDICTED BY IDOCK:   -0.04 KCAL/MOL
REMARK 927      BINDING AFFINITY PREDICTED BY RF-SCORE:    0.00 PKD
ROOT
ATOM      1  N   CYS A   1     -14.042   8.915  73.101  1.00  0.00    -1.225 NA 
ATOM      2  H1  CYS A   1     -14.016   9.723  73.722  1.00  0.00     0.000 HD 
ATOM      3  CA  CYS A   1     -12.717   8.624  72.451  1.00  0.00    -0.362 C  
ATOM      4  H2  CYS A   1     -14.394   8.092  73.590  1.00  0.00     0.000 HD 
ATOM      5  C   CYS A   1     -12.292   9.856  71.645  1.00  0.00    -0.406 C  
ATOM      6  O   CYS A   1     -13.105  10.916  71.894  1.00  0.00    -0.482 OA 
ATOM      7  OXT CYS A   1     -11.344   9.901  70.879  1.00  0.00    -0.316 OA 
ENDROOT
BRANCH   3   8
ATOM      8  CB  CYS A   1     -12.754   7.408  71.517  1.00  0.00    -0.372 C  
ATOM      9  SG  CYS A   1     -11.378   6.255  71.844  1.00  0.00    -0.309 SA 
ATOM     10  HG  CYS A   1     -11.411   5.153  70.998  1.00  0.00     0.000 H  
ENDBRANCH   3   8
TORSDOF 1
ENDMDL
MODEL       19
REMARK 921   NORMALIZED FREE ENERGY PREDICTED BY IDOCK:   -3.23 KCAL/MOL
REMARK 922        TOTAL FREE ENERGY PREDICTED BY IDOCK:   -3.42 KCAL/MOL
REMARK 923 INTER-LIGAND FREE ENERGY PREDICTED BY IDOCK:   -3.37 KCAL/MOL
REMARK 924 INTRA-LIGAND FREE ENERGY PREDICTED BY IDOCK:   -0.05 KCAL/MOL
REMARK 927      BINDING AFFINITY PREDICTED BY RF-SCORE:    0.00 PKD
ROOT
ATOM      1  N   CYS A   1     -11.641  14.824  64.313  1.00  0.00    -0.655 NA 
ATOM      2  H1  CYS A   1     -11.758  15.606  64.958  1.00  0.00     0.000 HD 
ATOM      3  CA  CYS A   1     -12.373  13.584  64.745  1.00  0.00    -0.392 C  
ATOM      4  H2  CYS A   1     -11.909  15.091  63.366  1.00  0.00     0.000 HD 
ATOM      5  C   CYS A   1     -11.853  13.171  66.126  1.00  0.00    -0.401 C  
ATOM      6  O   CYS A   1     -11.042  14.123  66.657  1.00  0.00    -0.302 OA 
ATOM      7  OXT CYS A   1     -12.126  12.128  66.697  1.00  0.00    -0.622 OA 
ENDROOT
BRANCH   3   8
ATOM      8  CB  CYS A   1     -12.197  12.408  63.776  1.00  0.00    -0.533 C  
ATOM      9  SG  CYS A   1     -10.441  11.964  63.554  1.00  0.00    -0.464 SA 
ATOM     10  HG  CYS A   1     -10.282  10.899  62.676  1.00  0.00     0.000 H  
ENDBRANCH   3   8
TORSDOF 1
ENDMDL
MODEL       20
REMARK 921   NORMALIZED FREE ENERGY PREDICTED BY IDOCK:   -3.22 KCAL/MOL
REMARK 922        TOTAL FREE ENERGY PREDICTED BY IDOCK:   -3.41 KCAL/MOL
REMARK 923 INTER-LIGAND FREE ENERGY PREDICTED BY IDOCK:   -3.37 KCAL/MOL
REMARK 924 INTRA-LIGAND FREE ENERGY PREDICTED BY IDOCK:   -0.03 KCAL/MOL
REMARK 927      BINDING AFFINITY PREDICTED BY RF-SCORE:    0.00 PKD
ROOT
ATOM      1  N   CYS A   1     -10.432  18.027  66.050  1.00  0.00    -0.489 NA 
ATOM      2  H1  CYS A   1     -10.113  18.421  65.165  1.00  0.00     0.000 HD 
ATOM      3  CA  CYS A   1     -10.174  16.549  66.167  1.00  0.00    -0.346 C  
ATOM      4  H2  CYS A   1     -10.025  18.529  66.838  1.00  0.00     0.000 HD 
ATOM      5  C   CYS A   1     -10.897  15.839  65.018  1.00  0.00    -0.443 C  
ATOM      6  O   CYS A   1     -11.391  16.729  64.117  1.00  0.00    -1.194 OA 
ATOM      7  OXT CYS A   1     -11.019  14.631  64.905  1.00  0.00    -0.374 OA 
ENDROOT
BRANCH   3   8
ATOM      8  CB  CYS A   1     -10.653  15.956  67.498  1.00  0.00    -0.315 C  
ATOM      9  SG  CYS A   1      -9.458  14.757  68.179  1.00  0.00    -0.214 SA 
ATOM     10  HG  CYS A   1      -9.892  14.219  69.385  1.00  0.00     0.000 H  
ENDBRANCH   3   8
TORSDOF 1
ENDMDL
MODEL       21
REMARK 921   NORMALIZED FREE ENERGY PREDICTED BY IDOCK:   -3.19 KCAL/MOL
REMARK 922        TOTAL FREE ENERGY PREDICTED BY IDOCK:   -3.38 KCAL/MOL
REMARK 923 INTER-LIGAND FREE ENERGY PREDICTED BY IDOCK:   -3.31 KCAL/MOL
REMARK 924 INTRA-LIGAND FREE ENERGY PREDICTED BY IDOCK:   -0.07 KCAL/MOL
REMARK 927      BINDING AFFINITY PREDICTED BY RF-SCORE:    0.00 PKD
ROOT
ATOM      1  N   CYS A   1     -11.080  14.913  64.388  1.00  0.00    -0.645 NA 
ATOM      2  H1  CYS A   1     -11.509  14.627  63.508  1.00  0.00     0.000 HD 
ATOM      3  CA  CYS A   1     -10.669  13.753  65.252  1.00  0.00    -0.339 C  
ATOM      4  H2  CYS A   1     -10.291  15.538  64.220  1.00  0.00     0.000 HD 
ATOM      5  C   CYS A   1     -11.913  12.912  65.557  1.00  0.00    -0.436 C  
ATOM      6  O   CYS A   1     -12.979  13.318  64.819  1.00  0.00    -0.710 OA 
ATOM      7  OXT CYS A   1     -11.958  11.988  66.351  1.00  0.00    -0.611 OA 
ENDROOT
BRANCH   3   8
ATOM      8  CB  CYS A   1     -10.022  14.182  66.575  1.00  0.00    -0.283 C  
ATOM      9  SG  CYS A   1     -11.065  15.368  67.490  1.00  0.00    -0.291 SA 
ATOM     10  HG  CYS A   1     -10.480  15.757  68.688  1.00  0.00     0.000 H  
ENDBRANCH   3   8
TORSDOF 1
ENDMDL
MODEL       22
REMARK 921   NORMALIZED FREE ENERGY PREDICTED BY IDOCK:   -3.07 KCAL/MOL
REMARK 922        TOTAL FREE ENERGY PREDICTED BY IDOCK:   -3.26 KCAL/MOL
REMARK 923 INTER-LIGAND FREE ENERGY PREDICTED BY IDOCK:   -3.29 KCAL/MOL
REMARK 924 INTRA-LIGAND FREE ENERGY PREDICTED BY IDOCK:    0.03 KCAL/MOL
REMARK 927      BINDING AFFINITY PREDICTED BY RF-SCORE:    0.00 PKD
ROOT
ATOM      1  N   CYS A   1     -11.103  11.974  65.894  1.00  0.00    -0.313 NA 
ATOM      2  H1  CYS A   1     -11.024  11.077  65.415  1.00  0.00     0.000 HD 
ATOM      3  CA  CYS A   1     -12.216  12.835  65.364  1.00  0.00    -0.478 C  
ATOM      4  H2  CYS A   1     -11.197  11.840  66.901  1.00  0.00     0.000 HD 
ATOM      5  C   CYS A   1     -11.963  13.089  63.874  1.00  0.00    -0.485 C  
ATOM      6  O   CYS A   1     -10.943  12.324  63.406  1.00  0.00    -0.441 OA 
ATOM      7  OXT CYS A   1     -12.591  13.870  63.178  1.00  0.00    -0.775 OA 
ENDROOT
BRANCH   3   8
ATOM      8  CB  CYS A   1     -12.335  14.183  66.085  1.00  0.00    -0.436 C  
ATOM      9  SG  CYS A   1     -10.908  15.268  65.743  1.00  0.00    -0.359 SA 
ATOM     10  HG  CYS A   1     -11.015  16.489  66.397  1.00  0.00     0.000 H  
ENDBRANCH   3   8
TORSDOF 1
ENDMDL
MODEL       23
REMARK 921   NORMALIZED FREE ENERGY PREDICTED BY IDOCK:   -3.03 KCAL/MOL
REMARK 922        TOTAL FREE ENERGY PREDICTED BY IDOCK:   -3.22 KCAL/MOL
REMARK 923 INTER-LIGAND FREE ENERGY PREDICTED BY IDOCK:   -3.21 KCAL/MOL
REMARK 924 INTRA-LIGAND FREE ENERGY PREDICTED BY IDOCK:   -0.00 KCAL/MOL
REMARK 927      BINDING AFFINITY PREDICTED BY RF-SCORE:    0.00 PKD
ROOT
ATOM      1  N   CYS A   1     -12.050  13.176  70.943  1.00  0.00    -0.474 NA 
ATOM      2  H1  CYS A   1     -11.973  12.495  71.698  1.00  0.00     0.000 HD 
ATOM      3  CA  CYS A   1     -12.264  14.582  71.433  1.00  0.00    -0.358 C  
ATOM      4  H2  CYS A   1     -11.241  13.127  70.325  1.00  0.00     0.000 HD 
ATOM      5  C   CYS A   1     -13.550  14.615  72.265  1.00  0.00    -0.433 C  
ATOM      6  O   CYS A   1     -14.024  13.363  72.496  1.00  0.00    -0.707 OA 
ATOM      7  OXT CYS A   1     -14.092  15.625  72.682  1.00  0.00    -0.564 OA 
ENDROOT
BRANCH   3   8
ATOM      8  CB  CYS A   1     -12.380  15.607  70.297  1.00  0.00    -0.370 C  
ATOM      9  SG  CYS A   1     -11.199  15.268  68.948  1.00  0.00    -0.306 SA 
ATOM     10  HG  CYS A   1     -11.304  16.196  67.920  1.00  0.00     0.000 H  
ENDBRANCH   3   8
TORSDOF 1
ENDMDL
MODEL       24
REMARK 921   NORMALIZED FREE ENERGY PREDICTED BY IDOCK:   -2.98 KCAL/MOL
REMARK 922        TOTAL FREE ENERGY PREDICTED BY IDOCK:   -3.16 KCAL/MOL
REMARK 923 INTER-LIGAND FREE ENERGY PREDICTED BY IDOCK:   -3.12 KCAL/MOL
REMARK 924 INTRA-LIGAND FREE ENERGY PREDICTED BY IDOCK:   -0.03 KCAL/MOL
REMARK 927      BINDING AFFINITY PREDICTED BY RF-SCORE:    0.00 PKD
ROOT
ATOM      1  N   CYS A   1     -10.220  13.222  64.048  1.00  0.00    -0.758 NA 
ATOM      2  H1  CYS A   1      -9.939  12.270  64.282  1.00  0.00     0.000 HD 
ATOM      3  CA  CYS A   1     -10.567  14.051  65.254  1.00  0.00    -0.363 C  
ATOM      4  H2  CYS A   1      -9.506  13.683  63.485  1.00  0.00     0.000 HD 
ATOM      5  C   CYS A   1     -11.716  13.363  66.000  1.00  0.00    -0.362 C  
ATOM      6  O   CYS A   1     -11.964  12.125  65.497  1.00  0.00    -0.461 OA 
ATOM      7  OXT CYS A   1     -12.336  13.845  66.933  1.00  0.00    -0.410 OA 
ENDROOT
BRANCH   3   8
ATOM      8  CB  CYS A   1     -10.990  15.483  64.903  1.00  0.00    -0.436 C  
ATOM      9  SG  CYS A   1     -10.270  16.707  66.050  1.00  0.00    -0.332 SA 
ATOM     10  HG  CYS A   1     -10.652  18.004  65.731  1.00  0.00     0.000 H  
ENDBRANCH   3   8
TORSDOF 1
ENDMDL
MODEL       25
REMARK 921   NORMALIZED FREE ENERGY PREDICTED BY IDOCK:   -2.97 KCAL/MOL
REMARK 922        TOTAL FREE ENERGY PREDICTED BY IDOCK:   -3.15 KCAL/MOL
REMARK 923 INTER-LIGAND FREE ENERGY PREDICTED BY IDOCK:   -3.13 KCAL/MOL
REMARK 924 INTRA-LIGAND FREE ENERGY PREDICTED BY IDOCK:   -0.02 KCAL/MOL
REMARK 927      BINDING AFFINITY PREDICTED BY RF-SCORE:    0.00 PKD
ROOT
ATOM      1  N   CYS A   1      -9.867  13.852  65.911  1.00  0.00    -0.413 NA 
ATOM      2  H1  CYS A   1     -10.112  14.830  66.069  1.00  0.00     0.000 HD 
ATOM      3  CA  CYS A   1     -10.761  13.172  64.911  1.00  0.00    -0.346 C  
ATOM      4  H2  CYS A   1      -8.888  13.763  65.641  1.00  0.00     0.000 HD 
ATOM      5  C   CYS A   1     -12.204  13.246  65.421  1.00  0.00    -0.456 C  
ATOM      6  O   CYS A   1     -12.306  14.058  66.506  1.00  0.00    -0.457 OA 
ATOM      7  OXT CYS A   1     -13.155  12.663  64.927  1.00  0.00    -0.850 OA 
ENDROOT
BRANCH   3   8
ATOM      8  CB  CYS A   1     -10.393  11.702  64.671  1.00  0.00    -0.292 C  
ATOM      9  SG  CYS A   1      -9.728  11.430  62.994  1.00  0.00    -0.317 SA 
ATOM     10  HG  CYS A   1      -9.395  10.098  62.777  1.00  0.00     0.000 H  
ENDBRANCH   3   8
TORSDOF 1
ENDMDL
MODEL       26
REMARK 921   NORMALIZED FREE ENERGY PREDICTED BY IDOCK:   -2.97 KCAL/MOL
REMARK 922        TOTAL FREE ENERGY PREDICTED BY IDOCK:   -3.15 KCAL/MOL
REMARK 923 INTER-LIGAND FREE ENERGY PREDICTED BY IDOCK:   -3.12 KCAL/MOL
REMARK 924 INTRA-LIGAND FREE ENERGY PREDICTED BY IDOCK:   -0.03 KCAL/MOL
REMARK 927      BINDING AFFINITY PREDICTED BY RF-SCORE:    0.00 PKD
ROOT
ATOM      1  N   CYS A   1     -13.362   8.880  73.120  1.00  0.00    -0.896 NA 
ATOM      2  H1  CYS A   1     -14.140   9.268  72.586  1.00  0.00     0.000 HD 
ATOM      3  CA  CYS A   1     -12.244   8.369  72.252  1.00  0.00    -0.387 C  
ATOM      4  H2  CYS A   1     -13.013   9.557  73.798  1.00  0.00     0.000 HD 
ATOM      5  C   CYS A   1     -12.806   7.281  71.330  1.00  0.00    -0.382 C  
ATOM      6  O   CYS A   1     -14.161   7.219  71.404  1.00  0.00    -0.422 OA 
ATOM      7  OXT CYS A   1     -12.138   6.558  70.609  1.00  0.00    -0.366 OA 
ENDROOT
BRANCH   3   8
ATOM      8  CB  CYS A   1     -11.074   7.786  73.054  1.00  0.00    -0.359 C  
ATOM      9  SG  CYS A   1      -9.460   8.256  72.344  1.00  0.00    -0.303 SA 
ATOM     10  HG  CYS A   1      -8.399   7.728  73.070  1.00  0.00     0.000 H  
ENDBRANCH   3   8
TORSDOF 1
ENDMDL
MODEL       27
REMARK 921   NORMALIZED FREE ENERGY PREDICTED BY IDOCK:   -2.92 KCAL/MOL
REMARK 922        TOTAL FREE ENERGY PREDICTED BY IDOCK:   -3.09 KCAL/MOL
REMARK 923 INTER-LIGAND FREE ENERGY PREDICTED BY IDOCK:   -3.09 KCAL/MOL
REMARK 924 INTRA-LIGAND FREE ENERGY PREDICTED BY IDOCK:   -0.00 KCAL/MOL
REMARK 927      BINDING AFFINITY PREDICTED BY RF-SCORE:    0.00 PKD
ROOT
ATOM      1  N   CYS A   1     -13.708  15.344  70.687  1.00  0.00    -0.841 NA 
ATOM      2  H1  CYS A   1     -14.179  15.382  69.783  1.00  0.00     0.000 HD 
ATOM      3  CA  CYS A   1     -12.267  15.772  70.623  1.00  0.00    -0.384 C  
ATOM      4  H2  CYS A   1     -14.217  15.888  71.384  1.00  0.00     0.000 HD 
ATOM      5  C   CYS A   1     -11.532  14.853  69.642  1.00  0.00    -0.294 C  
ATOM      6  O   CYS A   1     -12.399  14.055  68.965  1.00  0.00    -0.307 OA 
ATOM      7  OXT CYS A   1     -10.325  14.829  69.472  1.00  0.00    -0.196 OA 
ENDROOT
BRANCH   3   8
ATOM      8  CB  CYS A   1     -11.559  15.717  71.983  1.00  0.00    -0.450 C  
ATOM      9  SG  CYS A   1     -12.736  15.846  73.371  1.00  0.00    -0.616 SA 
ATOM     10  HG  CYS A   1     -12.094  15.796  74.602  1.00  0.00     0.000 H  
ENDBRANCH   3   8
TORSDOF 1
ENDMDL
MODEL       28
REMARK 921   NORMALIZED FREE ENERGY PREDICTED BY IDOCK:   -2.91 KCAL/MOL
REMARK 922        TOTAL FREE ENERGY PREDICTED BY IDOCK:   -3.09 KCAL/MOL
REMARK 923 INTER-LIGAND FREE ENERGY PREDICTED BY IDOCK:   -3.05 KCAL/MOL
REMARK 924 INTRA-LIGAND FREE ENERGY PREDICTED BY IDOCK:   -0.04 KCAL/MOL
REMARK 927      BINDING AFFINITY PREDICTED BY RF-SCORE:    0.00 PKD
ROOT
ATOM      1  N   CYS A   1     -10.407  14.428  66.753  1.00  0.00    -0.270 NA 
ATOM      2  H1  CYS A   1     -11.174  13.765  66.634  1.00  0.00     0.000 HD 
ATOM      3  CA  CYS A   1     -10.763  15.827  66.332  1.00  0.00    -0.277 C  
ATOM      4  H2  CYS A   1     -10.061  14.414  67.712  1.00  0.00     0.000 HD 
ATOM      5  C   CYS A   1     -11.172  15.800  64.856  1.00  0.00    -0.350 C  
ATOM      6  O   CYS A   1     -11.294  14.527  64.398  1.00  0.00    -0.327 OA 
ATOM      7  OXT CYS A   1     -11.375  16.785  64.165  1.00  0.00    -1.194 OA 
ENDROOT
BRANCH   3   8
ATOM      8  CB  CYS A   1      -9.611  16.824  66.511  1.00  0.00    -0.266 C  
ATOM      9  SG  CYS A   1     -10.118  18.288  67.475  1.00  0.00    -0.368 SA 
ATOM     10  HG  CYS A   1      -9.075  19.191  67.636  1.00  0.00     0.000 H  
ENDBRANCH   3   8
TORSDOF 1
ENDMDL
MODEL       29
REMARK 921   NORMALIZED FREE ENERGY PREDICTED BY IDOCK:   -2.90 KCAL/MOL
REMARK 922        TOTAL FREE ENERGY PREDICTED BY IDOCK:   -3.08 KCAL/MOL
REMARK 923 INTER-LIGAND FREE ENERGY PREDICTED BY IDOCK:   -3.04 KCAL/MOL
REMARK 924 INTRA-LIGAND FREE ENERGY PREDICTED BY IDOCK:   -0.04 KCAL/MOL
REMARK 927      BINDING AFFINITY PREDICTED BY RF-SCORE:    0.00 PKD
ROOT
ATOM      1  N   CYS A   1     -10.855  13.920  64.106  1.00  0.00    -0.556 NA 
ATOM      2  H1  CYS A   1     -11.393  13.478  63.360  1.00  0.00     0.000 HD 
ATOM      3  CA  CYS A   1     -10.544  12.987  65.245  1.00  0.00    -0.304 C  
ATOM      4  H2  CYS A   1     -10.002  14.340  63.738  1.00  0.00     0.000 HD 
ATOM      5  C   CYS A   1     -11.867  12.472  65.823  1.00  0.00    -0.437 C  
ATOM      6  O   CYS A   1     -12.922  12.828  65.044  1.00  0.00    -0.811 OA 
ATOM      7  OXT CYS A   1     -11.978  11.819  66.847  1.00  0.00    -0.605 OA 
ENDROOT
BRANCH   3   8
ATOM      8  CB  CYS A   1      -9.736  13.651  66.366  1.00  0.00    -0.292 C  
ATOM      9  SG  CYS A   1      -8.371  12.587  66.945  1.00  0.00    -0.034 SA 
ATOM     10  HG  CYS A   1      -7.638  13.188  67.961  1.00  0.00     0.000 H  
ENDBRANCH   3   8
TORSDOF 1
ENDMDL
MODEL       30
REMARK 921   NORMALIZED FREE ENERGY PREDICTED BY IDOCK:   -2.90 KCAL/MOL
REMARK 922        TOTAL FREE ENERGY PREDICTED BY IDOCK:   -3.07 KCAL/MOL
REMARK 923 INTER-LIGAND FREE ENERGY PREDICTED BY IDOCK:   -3.04 KCAL/MOL
REMARK 924 INTRA-LIGAND FREE ENERGY PREDICTED BY IDOCK:   -0.04 KCAL/MOL
REMARK 927      BINDING AFFINITY PREDICTED BY RF-SCORE:    0.00 PKD
ROOT
ATOM      1  N   CYS A   1     -13.651  13.575  72.749  1.00  0.00    -0.671 NA 
ATOM      2  H1  CYS A   1     -13.312  13.293  73.668  1.00  0.00     0.000 HD 
ATOM      3  CA  CYS A   1     -12.667  14.420  71.987  1.00  0.00    -0.328 C  
ATOM      4  H2  CYS A   1     -13.932  12.763  72.200  1.00  0.00     0.000 HD 
ATOM      5  C   CYS A   1     -12.366  15.675  72.813  1.00  0.00    -0.435 C  
ATOM      6  O   CYS A   1     -12.898  15.589  74.060  1.00  0.00    -0.531 OA 
ATOM      7  OXT CYS A   1     -11.726  16.637  72.420  1.00  0.00    -0.480 OA 
ENDROOT
BRANCH   3   8
ATOM      8  CB  CYS A   1     -13.176  14.844  70.604  1.00  0.00    -0.274 C  
ATOM      9  SG  CYS A   1     -11.890  14.668  69.321  1.00  0.00    -0.318 SA 
ATOM     10  HG  CYS A   1     -12.351  15.053  68.068  1.00  0.00     0.000 H  
ENDBRANCH   3   8
TORSDOF 1
ENDMDL
MODEL       31
REMARK 921   NORMALIZED FREE ENERGY PREDICTED BY IDOCK:   -2.88 KCAL/MOL
REMARK 922        TOTAL FREE ENERGY PREDICTED BY IDOCK:   -3.05 KCAL/MOL
REMARK 923 INTER-LIGAND FREE ENERGY PREDICTED BY IDOCK:   -2.99 KCAL/MOL
REMARK 924 INTRA-LIGAND FREE ENERGY PREDICTED BY IDOCK:   -0.06 KCAL/MOL
REMARK 927      BINDING AFFINITY PREDICTED BY RF-SCORE:    0.00 PKD
ROOT
ATOM      1  N   CYS A   1     -10.355  19.600  69.026  1.00  0.00    -0.595 NA 
ATOM      2  H1  CYS A   1     -11.239  19.172  69.301  1.00  0.00     0.000 HD 
ATOM      3  CA  CYS A   1     -10.212  19.760  67.537  1.00  0.00    -0.436 C  
ATOM      4  H2  CYS A   1     -10.222  20.493  69.501  1.00  0.00     0.000 HD 
ATOM      5  C   CYS A   1     -10.315  18.376  66.889  1.00  0.00    -0.390 C  
ATOM      6  O   CYS A   1     -10.699  17.433  67.790  1.00  0.00    -0.373 OA 
ATOM      7  OXT CYS A   1     -10.092  18.131  65.715  1.00  0.00    -0.563 OA 
ENDROOT
BRANCH   3   8
ATOM      8  CB  CYS A   1      -8.883  20.405  67.123  1.00  0.00    -0.327 C  
ATOM      9  SG  CYS A   1      -7.461  19.649  67.981  1.00  0.00    -0.302 SA 
ATOM     10  HG  CYS A   1      -6.257  20.233  67.606  1.00  0.00     0.000 H  
ENDBRANCH   3   8
TORSDOF 1
ENDMDL
MODEL       32
REMARK 921   NORMALIZED FREE ENERGY PREDICTED BY IDOCK:   -2.87 KCAL/MOL
REMARK 922        TOTAL FREE ENERGY PREDICTED BY IDOCK:   -3.04 KCAL/MOL
REMARK 923 INTER-LIGAND FREE ENERGY PREDICTED BY IDOCK:   -3.15 KCAL/MOL
REMARK 924 INTRA-LIGAND FREE ENERGY PREDICTED BY IDOCK:    0.12 KCAL/MOL
REMARK 927      BINDING AFFINITY PREDICTED BY RF-SCORE:    0.00 PKD
ROOT
ATOM      1  N   CYS A   1     -13.895   8.999  72.960  1.00  0.00    -1.108 NA 
ATOM      2  H1  CYS A   1     -13.980   7.987  73.055  1.00  0.00     0.000 HD 
ATOM      3  CA  CYS A   1     -12.940   9.415  71.875  1.00  0.00    -0.417 C  
ATOM      4  H2  CYS A   1     -14.809   9.429  72.823  1.00  0.00     0.000 HD 
ATOM      5  C   CYS A   1     -11.561   8.828  72.193  1.00  0.00    -0.364 C  
ATOM      6  O   CYS A   1     -11.621   7.950  73.229  1.00  0.00    -0.252 OA 
ATOM      7  OXT CYS A   1     -10.529   9.096  71.599  1.00  0.00    -0.331 OA 
ENDROOT
BRANCH   3   8
ATOM      8  CB  CYS A   1     -12.811  10.937  71.732  1.00  0.00    -0.404 C  
ATOM      9  SG  CYS A   1     -12.278  11.422  70.056  1.00  0.00    -0.279 SA 
ATOM     10  HG  CYS A   1     -12.161  12.800  69.926  1.00  0.00     0.000 H  
ENDBRANCH   3   8
TORSDOF 1
ENDMDL
MODEL       33
REMARK 921   NORMALIZED FREE ENERGY PREDICTED BY IDOCK:   -2.84 KCAL/MOL
REMARK 922        TOTAL FREE ENERGY PREDICTED BY IDOCK:   -3.01 KCAL/MOL
REMARK 923 INTER-LIGAND FREE ENERGY PREDICTED BY IDOCK:   -2.95 KCAL/MOL
REMARK 924 INTRA-LIGAND FREE ENERGY PREDICTED BY IDOCK:   -0.07 KCAL/MOL
REMARK 927      BINDING AFFINITY PREDICTED BY RF-SCORE:    0.00 PKD
ROOT
ATOM      1  N   CYS A   1      -9.821  14.052  65.310  1.00  0.00    -0.579 NA 
ATOM      2  H1  CYS A   1      -9.019  14.058  65.940  1.00  0.00     0.000 HD 
ATOM      3  CA  CYS A   1     -11.129  13.831  66.019  1.00  0.00    -0.291 C  
ATOM      4  H2  CYS A   1      -9.851  14.904  64.752  1.00  0.00     0.000 HD 
ATOM      5  C   CYS A   1     -11.062  12.487  66.752  1.00  0.00    -0.279 C  
ATOM      6  O   CYS A   1      -9.805  11.971  66.729  1.00  0.00    -0.199 OA 
ATOM      7  OXT CYS A   1     -12.004  11.937  67.298  1.00  0.00    -0.605 OA 
ENDROOT
BRANCH   3   8
ATOM      8  CB  CYS A   1     -12.336  13.822  65.073  1.00  0.00    -0.428 C  
ATOM      9  SG  CYS A   1     -12.105  12.659  63.685  1.00  0.00    -0.565 SA 
ATOM     10  HG  CYS A   1     -13.199  12.651  62.828  1.00  0.00     0.000 H  
ENDBRANCH   3   8
TORSDOF 1
ENDMDL
MODEL       34
REMARK 921   NORMALIZED FREE ENERGY PREDICTED BY IDOCK:   -2.84 KCAL/MOL
REMARK 922        TOTAL FREE ENERGY PREDICTED BY IDOCK:   -3.01 KCAL/MOL
REMARK 923 INTER-LIGAND FREE ENERGY PREDICTED BY IDOCK:   -2.99 KCAL/MOL
REMARK 924 INTRA-LIGAND FREE ENERGY PREDICTED BY IDOCK:   -0.02 KCAL/MOL
REMARK 927      BINDING AFFINITY PREDICTED BY RF-SCORE:    0.00 PKD
ROOT
ATOM      1  N   CYS A   1     -14.231   8.803  73.072  1.00  0.00    -1.132 NA 
ATOM      2  H1  CYS A   1     -15.067   8.219  73.047  1.00  0.00     0.000 HD 
ATOM      3  CA  CYS A   1     -13.459   8.789  71.781  1.00  0.00    -0.393 C  
ATOM      4  H2  CYS A   1     -14.463   9.758  73.344  1.00  0.00     0.000 HD 
ATOM      5  C   CYS A   1     -13.047   7.344  71.480  1.00  0.00    -0.374 C  
ATOM      6  O   CYS A   1     -13.647   6.469  72.329  1.00  0.00     0.021 OA 
ATOM      7  OXT CYS A   1     -12.285   7.001  70.591  1.00  0.00    -0.330 OA 
ENDROOT
BRANCH   3   8
ATOM      8  CB  CYS A   1     -12.202   9.667  71.817  1.00  0.00    -0.384 C  
ATOM      9  SG  CYS A   1     -12.345  11.108  70.707  1.00  0.00    -0.399 SA 
ATOM     10  HG  CYS A   1     -11.206  11.904  70.740  1.00  0.00     0.000 H  
ENDBRANCH   3   8
TORSDOF 1
ENDMDL
MODEL       35
REMARK 921   NORMALIZED FREE ENERGY PREDICTED BY IDOCK:   -2.83 KCAL/MOL
REMARK 922        TOTAL FREE ENERGY PREDICTED BY IDOCK:   -3.00 KCAL/MOL
REMARK 923 INTER-LIGAND FREE ENERGY PREDICTED BY IDOCK:   -3.00 KCAL/MOL
REMARK 924 INTRA-LIGAND FREE ENERGY PREDICTED BY IDOCK:   -0.01 KCAL/MOL
REMARK 927      BINDING AFFINITY PREDICTED BY RF-SCORE:    0.00 PKD
ROOT
ATOM      1  N   CYS A   1     -11.562  12.625  70.241  1.00  0.00    -0.538 NA 
ATOM      2  H1  CYS A   1     -11.531  13.524  69.758  1.00  0.00     0.000 HD 
ATOM      3  CA  CYS A   1     -12.903  12.329  70.855  1.00  0.00    -0.092 C  
ATOM      4  H2  CYS A   1     -11.273  11.870  69.620  1.00  0.00     0.000 HD 
ATOM      5  C   CYS A   1     -13.234  13.442  71.855  1.00  0.00    -0.431 C  
ATOM      6  O   CYS A   1     -12.347  14.468  71.768  1.00  0.00    -0.335 OA 
ATOM      7  OXT CYS A   1     -14.173  13.430  72.634  1.00  0.00    -0.747 OA 
ENDROOT
BRANCH   3   8
ATOM      8  CB  CYS A   1     -12.950  10.978  71.581  1.00  0.00    -0.456 C  
ATOM      9  SG  CYS A   1     -11.664   9.833  70.975  1.00  0.00    -0.399 SA 
ATOM     10  HG  CYS A   1     -11.707   8.610  71.633  1.00  0.00     0.000 H  
ENDBRANCH   3   8
TORSDOF 1
ENDMDL
MODEL       36
REMARK 921   NORMALIZED FREE ENERGY PREDICTED BY IDOCK:   -2.83 KCAL/MOL
REMARK 922        TOTAL FREE ENERGY PREDICTED BY IDOCK:   -3.00 KCAL/MOL
REMARK 923 INTER-LIGAND FREE ENERGY PREDICTED BY IDOCK:   -2.97 KCAL/MOL
REMARK 924 INTRA-LIGAND FREE ENERGY PREDICTED BY IDOCK:   -0.03 KCAL/MOL
REMARK 927      BINDING AFFINITY PREDICTED BY RF-SCORE:    0.00 PKD
ROOT
ATOM      1  N   CYS A   1     -12.644   7.019  72.447  1.00  0.00    -0.505 NA 
ATOM      2  H1  CYS A   1     -13.155   6.944  73.327  1.00  0.00     0.000 HD 
ATOM      3  CA  CYS A   1     -12.039   8.378  72.227  1.00  0.00    -0.392 C  
ATOM      4  H2  CYS A   1     -11.933   6.291  72.377  1.00  0.00     0.000 HD 
ATOM      5  C   CYS A   1     -13.166   9.417  72.237  1.00  0.00    -0.446 C  
ATOM      6  O   CYS A   1     -14.344   8.867  72.633  1.00  0.00    -0.613 OA 
ATOM      7  OXT CYS A   1     -13.040  10.593  71.938  1.00  0.00    -0.469 OA 
ENDROOT
BRANCH   3   8
ATOM      8  CB  CYS A   1     -11.271   8.492  70.904  1.00  0.00    -0.266 C  
ATOM      9  SG  CYS A   1      -9.504   8.864  71.172  1.00  0.00    -0.279 SA 
ATOM     10  HG  CYS A   1      -8.808   8.967  69.974  1.00  0.00     0.000 H  
ENDBRANCH   3   8
TORSDOF 1
ENDMDL
MODEL       37
REMARK 921   NORMALIZED FREE ENERGY PREDICTED BY IDOCK:   -2.82 KCAL/MOL
REMARK 922        TOTAL FREE ENERGY PREDICTED BY IDOCK:   -2.99 KCAL/MOL
REMARK 923 INTER-LIGAND FREE ENERGY PREDICTED BY IDOCK:   -2.92 KCAL/MOL
REMARK 924 INTRA-LIGAND FREE ENERGY PREDICTED BY IDOCK:   -0.07 KCAL/MOL
REMARK 927      BINDING AFFINITY PREDICTED BY RF-SCORE:    0.00 PKD
ROOT
ATOM      1  N   CYS A   1     -12.214  14.020  68.297  1.00  0.00    -0.540 NA 
ATOM      2  H1  CYS A   1     -12.954  13.424  68.666  1.00  0.00     0.000 HD 
ATOM      3  CA  CYS A   1     -12.111  13.978  66.798  1.00  0.00    -0.447 C  
ATOM      4  H2  CYS A   1     -12.322  14.979  68.627  1.00  0.00     0.000 HD 
ATOM      5  C   CYS A   1     -11.842  12.531  66.371  1.00  0.00    -0.381 C  
ATOM      6  O   CYS A   1     -11.969  11.674  67.417  1.00  0.00    -0.621 OA 
ATOM      7  OXT CYS A   1     -11.557  12.174  65.240  1.00  0.00    -0.344 OA 
ENDROOT
BRANCH   3   8
ATOM      8  CB  CYS A   1     -10.997  14.875  66.242  1.00  0.00    -0.338 C  
ATOM      9  SG  CYS A   1      -9.387  14.530  67.030  1.00  0.00    -0.249 SA 
ATOM     10  HG  CYS A   1      -8.378  15.343  66.527  1.00  0.00     0.000 H  
ENDBRANCH   3   8
TORSDOF 1
ENDMDL
MODEL       38
REMARK 921   NORMALIZED FREE ENERGY PREDICTED BY IDOCK:   -2.81 KCAL/MOL
REMARK 922        TOTAL FREE ENERGY PREDICTED BY IDOCK:   -2.98 KCAL/MOL
REMARK 923 INTER-LIGAND FREE ENERGY PREDICTED BY IDOCK:   -2.96 KCAL/MOL
REMARK 924 INTRA-LIGAND FREE ENERGY PREDICTED BY IDOCK:   -0.02 KCAL/MOL
REMARK 927      BINDING AFFINITY PREDICTED BY RF-SCORE:    0.00 PKD
ROOT
ATOM      1  N   CYS A   1     -12.365  14.163  67.530  1.00  0.00    -0.560 NA 
ATOM      2  H1  CYS A   1     -12.928  14.988  67.324  1.00  0.00     0.000 HD 
ATOM      3  CA  CYS A   1     -11.332  13.871  66.476  1.00  0.00    -0.331 C  
ATOM      4  H2  CYS A   1     -11.932  14.240  68.450  1.00  0.00     0.000 HD 
ATOM      5  C   CYS A   1     -12.052  13.660  65.139  1.00  0.00    -0.403 C  
ATOM      6  O   CYS A   1     -13.368  13.984  65.227  1.00  0.00    -0.741 OA 
ATOM      7  OXT CYS A   1     -11.525  13.259  64.114  1.00  0.00    -0.374 OA 
ENDROOT
BRANCH   3   8
ATOM      8  CB  CYS A   1     -10.485  12.631  66.786  1.00  0.00    -0.240 C  
ATOM      9  SG  CYS A   1     -11.292  11.540  68.006  1.00  0.00    -0.312 SA 
ATOM     10  HG  CYS A   1     -10.525  10.417  68.287  1.00  0.00     0.000 H  
ENDBRANCH   3   8
TORSDOF 1
ENDMDL
MODEL       39
REMARK 921   NORMALIZED FREE ENERGY PREDICTED BY IDOCK:   -2.78 KCAL/MOL
REMARK 922        TOTAL FREE ENERGY PREDICTED BY IDOCK:   -2.95 KCAL/MOL
REMARK 923 INTER-LIGAND FREE ENERGY PREDICTED BY IDOCK:   -2.89 KCAL/MOL
REMARK 924 INTRA-LIGAND FREE ENERGY PREDICTED BY IDOCK:   -0.06 KCAL/MOL
REMARK 927      BINDING AFFINITY PREDICTED BY RF-SCORE:    0.00 PKD
ROOT
ATOM      1  N   CYS A   1     -11.991  11.614  67.524  1.00  0.00    -0.621 NA 
ATOM      2  H1  CYS A   1     -12.946  11.333  67.301  1.00  0.00     0.000 HD 
ATOM      3  CA  CYS A   1     -11.772  13.099  67.426  1.00  0.00    -0.370 C  
ATOM      4  H2  CYS A   1     -11.716  11.267  68.442  1.00  0.00     0.000 HD 
ATOM      5  C   CYS A   1     -12.100  13.543  65.996  1.00  0.00    -0.445 C  
ATOM      6  O   CYS A   1     -12.675  12.539  65.284  1.00  0.00    -0.654 OA 
ATOM      7  OXT CYS A   1     -11.885  14.653  65.539  1.00  0.00    -0.349 OA 
ENDROOT
BRANCH   3   8
ATOM      8  CB  CYS A   1     -10.337  13.523  67.761  1.00  0.00    -0.241 C  
ATOM      9  SG  CYS A   1      -9.104  12.390  67.034  1.00  0.00    -0.212 SA 
ATOM     10  HG  CYS A   1      -7.803  12.774  67.338  1.00  0.00     0.000 H  
ENDBRANCH   3   8
TORSDOF 1
ENDMDL
MODEL       40
REMARK 921   NORMALIZED FREE ENERGY PREDICTED BY IDOCK:   -2.78 KCAL/MOL
REMARK 922        TOTAL FREE ENERGY PREDICTED BY IDOCK:   -2.95 KCAL/MOL
REMARK 923 INTER-LIGAND FREE ENERGY PREDICTED BY IDOCK:   -2.94 KCAL/MOL
REMARK 924 INTRA-LIGAND FREE ENERGY PREDICTED BY IDOCK:   -0.00 KCAL/MOL
REMARK 927      BINDING AFFINITY PREDICTED BY RF-SCORE:    0.00 PKD
ROOT
ATOM      1  N   CYS A   1      -7.476  21.220  67.045  1.00  0.00    -0.788 NA 
ATOM      2  H1  CYS A   1      -7.958  21.354  66.156  1.00  0.00     0.000 HD 
ATOM      3  CA  CYS A   1      -7.779  19.896  67.691  1.00  0.00    -0.291 C  
ATOM      4  H2  CYS A   1      -6.471  21.348  66.935  1.00  0.00     0.000 HD 
ATOM      5  C   CYS A   1      -9.290  19.807  67.927  1.00  0.00    -0.344 C  
ATOM      6  O   CYS A   1      -9.948  20.830  67.323  1.00  0.00    -0.433 OA 
ATOM      7  OXT CYS A   1      -9.850  18.932  68.567  1.00  0.00    -0.356 OA 
ENDROOT
BRANCH   3   8
ATOM      8  CB  CYS A   1      -7.054  19.694  69.027  1.00  0.00    -0.352 C  
ATOM      9  SG  CYS A   1      -5.540  20.708  69.142  1.00  0.00    -0.377 SA 
ATOM     10  HG  CYS A   1      -4.883  20.526  70.353  1.00  0.00     0.000 H  
ENDBRANCH   3   8
TORSDOF 1
ENDMDL
MODEL       41
REMARK 921   NORMALIZED FREE ENERGY PREDICTED BY IDOCK:   -2.77 KCAL/MOL
REMARK 922        TOTAL FREE ENERGY PREDICTED BY IDOCK:   -2.94 KCAL/MOL
REMARK 923 INTER-LIGAND FREE ENERGY PREDICTED BY IDOCK:   -2.93 KCAL/MOL
REMARK 924 INTRA-LIGAND FREE ENERGY PREDICTED BY IDOCK:   -0.01 KCAL/MOL
REMARK 927      BINDING AFFINITY PREDICTED BY RF-SCORE:    0.00 PKD
ROOT
ATOM      1  N   CYS A   1     -11.691  16.519  72.033  1.00  0.00    -0.594 NA 
ATOM      2  H1  CYS A   1     -10.700  16.761  72.049  1.00  0.00     0.000 HD 
ATOM      3  CA  CYS A   1     -12.000  15.345  71.146  1.00  0.00    -0.362 C  
ATOM      4  H2  CYS A   1     -12.041  16.361  72.978  1.00  0.00     0.000 HD 
ATOM      5  C   CYS A   1     -11.548  15.683  69.721  1.00  0.00    -0.352 C  
ATOM      6  O   CYS A   1     -10.829  16.835  69.688  1.00  0.00    -0.333 OA 
ATOM      7  OXT CYS A   1     -11.788  15.012  68.730  1.00  0.00    -0.324 OA 
ENDROOT
BRANCH   3   8
ATOM      8  CB  CYS A   1     -13.489  14.979  71.122  1.00  0.00    -0.437 C  
ATOM      9  SG  CYS A   1     -13.900  13.709  72.366  1.00  0.00    -0.530 SA 
ATOM     10  HG  CYS A   1     -15.250  13.378  72.344  1.00  0.00     0.000 H  
ENDBRANCH   3   8
TORSDOF 1
ENDMDL
MODEL       42
REMARK 921   NORMALIZED FREE ENERGY PREDICTED BY IDOCK:   -2.77 KCAL/MOL
REMARK 922        TOTAL FREE ENERGY PREDICTED BY IDOCK:   -2.93 KCAL/MOL
REMARK 923 INTER-LIGAND FREE ENERGY PREDICTED BY IDOCK:   -2.87 KCAL/MOL
REMARK 924 INTRA-LIGAND FREE ENERGY PREDICTED BY IDOCK:   -0.06 KCAL/MOL
REMARK 927      BINDING AFFINITY PREDICTED BY RF-SCORE:    0.00 PKD
ROOT
ATOM      1  N   CYS A   1     -10.517  17.287  65.368  1.00  0.00    -0.646 NA 
ATOM      2  H1  CYS A   1     -11.379  17.629  64.944  1.00  0.00     0.000 HD 
ATOM      3  CA  CYS A   1     -10.374  17.673  66.815  1.00  0.00    -0.331 C  
ATOM      4  H2  CYS A   1     -10.430  16.278  65.252  1.00  0.00     0.000 HD 
ATOM      5  C   CYS A   1     -10.404  19.202  66.913  1.00  0.00    -0.416 C  
ATOM      6  O   CYS A   1     -10.746  19.769  65.727  1.00  0.00    -0.512 OA 
ATOM      7  OXT CYS A   1     -10.163  19.846  67.921  1.00  0.00    -0.413 OA 
ENDROOT
BRANCH   3   8
ATOM      8  CB  CYS A   1      -9.077  17.160  67.452  1.00  0.00    -0.224 C  
ATOM      9  SG  CYS A   1      -7.626  17.466  66.388  1.00  0.00    -0.326 SA 
ATOM     10  HG  CYS A   1      -6.451  17.000  66.966  1.00  0.00     0.000 H  
ENDBRANCH   3   8
TORSDOF 1
ENDMDL
MODEL       43
REMARK 921   NORMALIZED FREE ENERGY PREDICTED BY IDOCK:   -2.75 KCAL/MOL
REMARK 922        TOTAL FREE ENERGY PREDICTED BY IDOCK:   -2.92 KCAL/MOL
REMARK 923 INTER-LIGAND FREE ENERGY PREDICTED BY IDOCK:   -2.89 KCAL/MOL
REMARK 924 INTRA-LIGAND FREE ENERGY PREDICTED BY IDOCK:   -0.03 KCAL/MOL
REMARK 927      BINDING AFFINITY PREDICTED BY RF-SCORE:    0.00 PKD
ROOT
ATOM      1  N   CYS A   1     -11.946   7.614  72.987  1.00  0.00    -0.582 NA 
ATOM      2  H1  CYS A   1     -12.384   7.899  73.863  1.00  0.00     0.000 HD 
ATOM      3  CA  CYS A   1     -11.710   8.759  72.041  1.00  0.00    -0.372 C  
ATOM      4  H2  CYS A   1     -11.080   7.105  73.163  1.00  0.00     0.000 HD 
ATOM      5  C   CYS A   1     -13.059   9.416  71.731  1.00  0.00    -0.409 C  
ATOM      6  O   CYS A   1     -14.045   8.927  72.528  1.00  0.00    -0.472 OA 
ATOM      7  OXT CYS A   1     -13.244  10.275  70.884  1.00  0.00    -0.395 OA 
ENDROOT
BRANCH   3   8
ATOM      8  CB  CYS A   1     -11.051   8.331  70.724  1.00  0.00    -0.258 C  
ATOM      9  SG  CYS A   1     -11.311   6.558  70.376  1.00  0.00    -0.405 SA 
ATOM     10  HG  CYS A   1     -10.714   6.170  69.183  1.00  0.00     0.000 H  
ENDBRANCH   3   8
TORSDOF 1
ENDMDL
MODEL       44
REMARK 921   NORMALIZED FREE ENERGY PREDICTED BY IDOCK:   -2.74 KCAL/MOL
REMARK 922        TOTAL FREE ENERGY PREDICTED BY IDOCK:   -2.90 KCAL/MOL
REMARK 923 INTER-LIGAND FREE ENERGY PREDICTED BY IDOCK:   -2.83 KCAL/MOL
REMARK 924 INTRA-LIGAND FREE ENERGY PREDICTED BY IDOCK:   -0.07 KCAL/MOL
REMARK 927      BINDING AFFINITY PREDICTED BY RF-SCORE:    0.00 PKD
ROOT
ATOM      1  N   CYS A   1     -10.208  13.890  64.338  1.00  0.00    -0.732 NA 
ATOM      2  H1  CYS A   1      -9.531  14.478  63.852  1.00  0.00     0.000 HD 
ATOM      3  CA  CYS A   1     -11.223  14.679  65.119  1.00  0.00    -0.374 C  
ATOM      4  H2  CYS A   1     -10.667  13.252  63.688  1.00  0.00     0.000 HD 
ATOM      5  C   CYS A   1     -10.481  15.537  66.149  1.00  0.00    -0.313 C  
ATOM      6  O   CYS A   1      -9.138  15.507  65.945  1.00  0.00    -0.323 OA 
ATOM      7  OXT CYS A   1     -11.010  16.180  67.040  1.00  0.00    -0.256 OA 
ENDROOT
BRANCH   3   8
ATOM      8  CB  CYS A   1     -12.243  13.797  65.850  1.00  0.00    -0.466 C  
ATOM      9  SG  CYS A   1     -11.431  12.547  66.905  1.00  0.00    -0.371 SA 
ATOM     10  HG  CYS A   1     -12.355  11.748  67.567  1.00  0.00     0.000 H  
ENDBRANCH   3   8
TORSDOF 1
ENDMDL
MODEL       45
REMARK 921   NORMALIZED FREE ENERGY PREDICTED BY IDOCK:   -2.72 KCAL/MOL
REMARK 922        TOTAL FREE ENERGY PREDICTED BY IDOCK:   -2.88 KCAL/MOL
REMARK 923 INTER-LIGAND FREE ENERGY PREDICTED BY IDOCK:   -2.88 KCAL/MOL
REMARK 924 INTRA-LIGAND FREE ENERGY PREDICTED BY IDOCK:   -0.00 KCAL/MOL
REMARK 927      BINDING AFFINITY PREDICTED BY RF-SCORE:    0.00 PKD
ROOT
ATOM      1  N   CYS A   1     -11.543  11.657  70.367  1.00  0.00    -0.503 NA 
ATOM      2  H1  CYS A   1     -12.299  12.272  70.064  1.00  0.00     0.000 HD 
ATOM      3  CA  CYS A   1     -12.013  10.277  70.735  1.00  0.00    -0.360 C  
ATOM      4  H2  CYS A   1     -10.807  11.613  69.662  1.00  0.00     0.000 HD 
ATOM      5  C   CYS A   1     -13.037  10.400  71.868  1.00  0.00    -0.458 C  
ATOM      6  O   CYS A   1     -13.382  11.696  72.087  1.00  0.00    -0.491 OA 
ATOM      7  OXT CYS A   1     -13.501   9.466  72.501  1.00  0.00    -0.455 OA 
ENDROOT
BRANCH   3   8
ATOM      8  CB  CYS A   1     -10.877   9.352  71.190  1.00  0.00    -0.357 C  
ATOM      9  SG  CYS A   1      -9.375   9.566  70.176  1.00  0.00    -0.254 SA 
ATOM     10  HG  CYS A   1      -8.346   8.729  70.588  1.00  0.00     0.000 H  
ENDBRANCH   3   8
TORSDOF 1
ENDMDL
MODEL       46
REMARK 921   NORMALIZED FREE ENERGY PREDICTED BY IDOCK:   -2.72 KCAL/MOL
REMARK 922        TOTAL FREE ENERGY PREDICTED BY IDOCK:   -2.88 KCAL/MOL
REMARK 923 INTER-LIGAND FREE ENERGY PREDICTED BY IDOCK:   -2.88 KCAL/MOL
REMARK 924 INTRA-LIGAND FREE ENERGY PREDICTED BY IDOCK:   -0.00 KCAL/MOL
REMARK 927      BINDING AFFINITY PREDICTED BY RF-SCORE:    0.00 PKD
ROOT
ATOM      1  N   CYS A   1     -10.190  15.203  70.245  1.00  0.00    -0.510 NA 
ATOM      2  H1  CYS A   1      -9.822  16.012  70.746  1.00  0.00     0.000 HD 
ATOM      3  CA  CYS A   1     -11.607  15.389  69.777  1.00  0.00    -0.323 C  
ATOM      4  H2  CYS A   1      -9.581  14.951  69.467  1.00  0.00     0.000 HD 
ATOM      5  C   CYS A   1     -12.489  15.659  71.001  1.00  0.00    -0.447 C  
ATOM      6  O   CYS A   1     -11.742  15.853  72.119  1.00  0.00    -0.428 OA 
ATOM      7  OXT CYS A   1     -13.708  15.706  70.991  1.00  0.00    -0.582 OA 
ENDROOT
BRANCH   3   8
ATOM      8  CB  CYS A   1     -12.160  14.173  69.024  1.00  0.00    -0.313 C  
ATOM      9  SG  CYS A   1     -10.987  13.557  67.769  1.00  0.00    -0.274 SA 
ATOM     10  HG  CYS A   1     -11.488  12.455  67.086  1.00  0.00     0.000 H  
ENDBRANCH   3   8
TORSDOF 1
ENDMDL
MODEL       47
REMARK 921   NORMALIZED FREE ENERGY PREDICTED BY IDOCK:   -2.72 KCAL/MOL
REMARK 922        TOTAL FREE ENERGY PREDICTED BY IDOCK:   -2.88 KCAL/MOL
REMARK 923 INTER-LIGAND FREE ENERGY PREDICTED BY IDOCK:   -2.88 KCAL/MOL
REMARK 924 INTRA-LIGAND FREE ENERGY PREDICTED BY IDOCK:   -0.01 KCAL/MOL
REMARK 927      BINDING AFFINITY PREDICTED BY RF-SCORE:    0.00 PKD
ROOT
ATOM      1  N   CYS A   1     -11.497  14.757  65.324  1.00  0.00    -0.350 NA 
ATOM      2  H1  CYS A   1     -11.213  14.307  64.453  1.00  0.00     0.000 HD 
ATOM      3  CA  CYS A   1     -11.198  13.929  66.543  1.00  0.00    -0.321 C  
ATOM      4  H2  CYS A   1     -11.080  15.685  65.405  1.00  0.00     0.000 HD 
ATOM      5  C   CYS A   1     -11.935  12.592  66.413  1.00  0.00    -0.357 C  
ATOM      6  O   CYS A   1     -12.477  12.442  65.175  1.00  0.00    -0.583 OA 
ATOM      7  OXT CYS A   1     -12.029  11.753  67.293  1.00  0.00    -0.618 OA 
ENDROOT
BRANCH   3   8
ATOM      8  CB  CYS A   1     -11.623  14.605  67.853  1.00  0.00    -0.348 C  
ATOM      9  SG  CYS A   1     -10.998  16.316  67.971  1.00  0.00    -0.298 SA 
ATOM     10  HG  CYS A   1     -11.383  16.928  69.158  1.00  0.00     0.000 H  
ENDBRANCH   3   8
TORSDOF 1
ENDMDL
MODEL       48
REMARK 921   NORMALIZED FREE ENERGY PREDICTED BY IDOCK:   -2.70 KCAL/MOL
REMARK 922        TOTAL FREE ENERGY PREDICTED BY IDOCK:   -2.87 KCAL/MOL
REMARK 923 INTER-LIGAND FREE ENERGY PREDICTED BY IDOCK:   -2.86 KCAL/MOL
REMARK 924 INTRA-LIGAND FREE ENERGY PREDICTED BY IDOCK:   -0.01 KCAL/MOL
REMARK 927      BINDING AFFINITY PREDICTED BY RF-SCORE:    0.00 PKD
ROOT
ATOM      1  N   CYS A   1     -11.128  14.920  65.880  1.00  0.00    -0.335 NA 
ATOM      2  H1  CYS A   1     -12.034  14.942  65.412  1.00  0.00     0.000 HD 
ATOM      3  CA  CYS A   1     -10.768  16.225  66.536  1.00  0.00    -0.187 C  
ATOM      4  H2  CYS A   1     -11.084  14.153  66.550  1.00  0.00     0.000 HD 
ATOM      5  C   CYS A   1     -10.746  17.317  65.461  1.00  0.00    -0.100 C  
ATOM      6  O   CYS A   1     -11.241  16.862  64.280  1.00  0.00    -1.204 OA 
ATOM      7  OXT CYS A   1     -10.346  18.457  65.627  1.00  0.00    -0.605 OA 
ENDROOT
BRANCH   3   8
ATOM      8  CB  CYS A   1      -9.406  16.192  67.240  1.00  0.00    -0.213 C  
ATOM      9  SG  CYS A   1      -9.413  15.082  68.689  1.00  0.00    -0.218 SA 
ATOM     10  HG  CYS A   1      -8.179  15.053  69.327  1.00  0.00     0.000 H  
ENDBRANCH   3   8
TORSDOF 1
ENDMDL
MODEL       49
REMARK 921   NORMALIZED FREE ENERGY PREDICTED BY IDOCK:   -2.70 KCAL/MOL
REMARK 922        TOTAL FREE ENERGY PREDICTED BY IDOCK:   -2.86 KCAL/MOL
REMARK 923 INTER-LIGAND FREE ENERGY PREDICTED BY IDOCK:   -2.82 KCAL/MOL
REMARK 924 INTRA-LIGAND FREE ENERGY PREDICTED BY IDOCK:   -0.04 KCAL/MOL
REMARK 927      BINDING AFFINITY PREDICTED BY RF-SCORE:    0.00 PKD
ROOT
ATOM      1  N   CYS A   1     -12.008  11.738  67.468  1.00  0.00    -0.607 NA 
ATOM      2  H1  CYS A   1     -11.486  11.300  68.227  1.00  0.00     0.000 HD 
ATOM      3  CA  CYS A   1     -11.616  13.171  67.229  1.00  0.00    -0.355 C  
ATOM      4  H2  CYS A   1     -11.928  11.193  66.610  1.00  0.00     0.000 HD 
ATOM      5  C   CYS A   1     -11.859  13.960  68.520  1.00  0.00    -0.366 C  
ATOM      6  O   CYS A   1     -12.160  13.136  69.557  1.00  0.00    -0.293 OA 
ATOM      7  OXT CYS A   1     -11.788  15.173  68.625  1.00  0.00    -0.339 OA 
ENDROOT
BRANCH   3   8
ATOM      8  CB  CYS A   1     -12.401  13.831  66.088  1.00  0.00    -0.452 C  
ATOM      9  SG  CYS A   1     -11.307  14.742  64.946  1.00  0.00    -0.411 SA 
ATOM     10  HG  CYS A   1     -12.017  15.339  63.913  1.00  0.00     0.000 H  
ENDBRANCH   3   8
TORSDOF 1
ENDMDL
MODEL       50
REMARK 921   NORMALIZED FREE ENERGY PREDICTED BY IDOCK:   -2.70 KCAL/MOL
REMARK 922        TOTAL FREE ENERGY PREDICTED BY IDOCK:   -2.86 KCAL/MOL
REMARK 923 INTER-LIGAND FREE ENERGY PREDICTED BY IDOCK:   -2.85 KCAL/MOL
REMARK 924 INTRA-LIGAND FREE ENERGY PREDICTED BY IDOCK:   -0.01 KCAL/MOL
REMARK 927      BINDING AFFINITY PREDICTED BY RF-SCORE:    0.00 PKD
ROOT
ATOM      1  N   CYS A   1     -11.885   8.679  70.584  1.00  0.00    -0.465 NA 
ATOM      2  H1  CYS A   1     -11.719   8.145  71.437  1.00  0.00     0.000 HD 
ATOM      3  CA  CYS A   1     -11.902  10.166  70.810  1.00  0.00    -0.351 C  
ATOM      4  H2  CYS A   1     -11.209   8.430  69.863  1.00  0.00     0.000 HD 
ATOM      5  C   CYS A   1     -13.007  10.489  71.822  1.00  0.00    -0.476 C  
ATOM      6  O   CYS A   1     -13.519   9.359  72.376  1.00  0.00    -0.457 OA 
ATOM      7  OXT CYS A   1     -13.387  11.611  72.112  1.00  0.00    -0.491 OA 
ENDROOT
BRANCH   3   8
ATOM      8  CB  CYS A   1     -12.152  10.970  69.528  1.00  0.00    -0.329 C  
ATOM      9  SG  CYS A   1     -10.916  10.597  68.238  1.00  0.00    -0.284 SA 
ATOM     10  HG  CYS A   1     -11.142  11.326  67.076  1.00  0.00     0.000 H  
ENDBRANCH   3   8
TORSDOF 1
ENDMDL
MODEL       51
REMARK 921   NORMALIZED FREE ENERGY PREDICTED BY IDOCK:   -2.69 KCAL/MOL
REMARK 922        TOTAL FREE ENERGY PREDICTED BY IDOCK:   -2.85 KCAL/MOL
REMARK 923 INTER-LIGAND FREE ENERGY PREDICTED BY IDOCK:   -2.85 KCAL/MOL
REMARK 924 INTRA-LIGAND FREE ENERGY PREDICTED BY IDOCK:   -0.01 KCAL/MOL
REMARK 927      BINDING AFFINITY PREDICTED BY RF-SCORE:    0.00 PKD
ROOT
ATOM      1  N   CYS A   1     -11.746  13.321  70.216  1.00  0.00    -0.539 NA 
ATOM      2  H1  CYS A   1     -11.280  14.189  69.950  1.00  0.00     0.000 HD 
ATOM      3  CA  CYS A   1     -11.388  12.161  69.329  1.00  0.00    -0.266 C  
ATOM      4  H2  CYS A   1     -11.567  13.098  71.195  1.00  0.00     0.000 HD 
ATOM      5  C   CYS A   1     -11.778  12.513  67.889  1.00  0.00    -0.359 C  
ATOM      6  O   CYS A   1     -12.143  13.817  67.779  1.00  0.00    -0.362 OA 
ATOM      7  OXT CYS A   1     -11.763  11.738  66.948  1.00  0.00    -0.557 OA 
ENDROOT
BRANCH   3   8
ATOM      8  CB  CYS A   1     -12.088  10.855  69.728  1.00  0.00    -0.338 C  
ATOM      9  SG  CYS A   1     -12.739  10.924  71.432  1.00  0.00    -0.429 SA 
ATOM     10  HG  CYS A   1     -13.372   9.741  71.793  1.00  0.00     0.000 H  
ENDBRANCH   3   8
TORSDOF 1
ENDMDL
MODEL       52
REMARK 921   NORMALIZED FREE ENERGY PREDICTED BY IDOCK:   -2.68 KCAL/MOL
REMARK 922        TOTAL FREE ENERGY PREDICTED BY IDOCK:   -2.84 KCAL/MOL
REMARK 923 INTER-LIGAND FREE ENERGY PREDICTED BY IDOCK:   -2.82 KCAL/MOL
REMARK 924 INTRA-LIGAND FREE ENERGY PREDICTED BY IDOCK:   -0.02 KCAL/MOL
REMARK 927      BINDING AFFINITY PREDICTED BY RF-SCORE:    0.00 PKD
ROOT
ATOM      1  N   CYS A   1     -12.454  14.403  69.314  1.00  0.00    -0.549 NA 
ATOM      2  H1  CYS A   1     -12.932  14.537  68.423  1.00  0.00     0.000 HD 
ATOM      3  CA  CYS A   1     -12.035  15.694  69.961  1.00  0.00    -0.368 C  
ATOM      4  H2  CYS A   1     -13.023  13.846  69.951  1.00  0.00     0.000 HD 
ATOM      5  C   CYS A   1     -11.098  16.435  69.001  1.00  0.00    -0.315 C  
ATOM      6  O   CYS A   1     -11.064  15.839  67.781  1.00  0.00    -0.331 OA 
ATOM      7  OXT CYS A   1     -10.462  17.439  69.276  1.00  0.00    -0.341 OA 
ENDROOT
BRANCH   3   8
ATOM      8  CB  CYS A   1     -11.316  15.494  71.301  1.00  0.00    -0.391 C  
ATOM      9  SG  CYS A   1     -12.384  15.922  72.718  1.00  0.00    -0.526 SA 
ATOM     10  HG  CYS A   1     -11.733  15.740  73.932  1.00  0.00     0.000 H  
ENDBRANCH   3   8
TORSDOF 1
ENDMDL
MODEL       53
REMARK 921   NORMALIZED FREE ENERGY PREDICTED BY IDOCK:   -2.60 KCAL/MOL
REMARK 922        TOTAL FREE ENERGY PREDICTED BY IDOCK:   -2.76 KCAL/MOL
REMARK 923 INTER-LIGAND FREE ENERGY PREDICTED BY IDOCK:   -2.72 KCAL/MOL
REMARK 924 INTRA-LIGAND FREE ENERGY PREDICTED BY IDOCK:   -0.04 KCAL/MOL
REMARK 927      BINDING AFFINITY PREDICTED BY RF-SCORE:    0.00 PKD
ROOT
ATOM      1  N   CYS A   1     -12.969  10.356  70.236  1.00  0.00    -0.513 NA 
ATOM      2  H1  CYS A   1     -12.254  10.856  69.707  1.00  0.00     0.000 HD 
ATOM      3  CA  CYS A   1     -12.531   9.996  71.629  1.00  0.00    -0.418 C  
ATOM      4  H2  CYS A   1     -13.841  10.883  70.255  1.00  0.00     0.000 HD 
ATOM      5  C   CYS A   1     -11.280   9.117  71.532  1.00  0.00    -0.360 C  
ATOM      6  O   CYS A   1     -10.802   9.072  70.261  1.00  0.00    -0.226 OA 
ATOM      7  OXT CYS A   1     -10.759   8.531  72.466  1.00  0.00    -0.332 OA 
ENDROOT
BRANCH   3   8
ATOM      8  CB  CYS A   1     -13.606   9.244  72.426  1.00  0.00    -0.463 C  
ATOM      9  SG  CYS A   1     -14.060   7.663  71.635  1.00  0.00    -0.408 SA 
ATOM     10  HG  CYS A   1     -15.033   6.983  72.356  1.00  0.00     0.000 H  
ENDBRANCH   3   8
TORSDOF 1
ENDMDL
MODEL       54
REMARK 921   NORMALIZED FREE ENERGY PREDICTED BY IDOCK:   -2.59 KCAL/MOL
REMARK 922        TOTAL FREE ENERGY PREDICTED BY IDOCK:   -2.74 KCAL/MOL
REMARK 923 INTER-LIGAND FREE ENERGY PREDICTED BY IDOCK:   -2.68 KCAL/MOL
REMARK 924 INTRA-LIGAND FREE ENERGY PREDICTED BY IDOCK:   -0.07 KCAL/MOL
REMARK 927      BINDING AFFINITY PREDICTED BY RF-SCORE:    0.00 PKD
ROOT
ATOM      1  N   CYS A   1     -12.356   6.972  70.396  1.00  0.00    -0.618 NA 
ATOM      2  H1  CYS A   1     -12.060   6.020  70.181  1.00  0.00     0.000 HD 
ATOM      3  CA  CYS A   1     -11.382   7.713  71.269  1.00  0.00    -0.264 C  
ATOM      4  H2  CYS A   1     -12.547   7.494  69.541  1.00  0.00     0.000 HD 
ATOM      5  C   CYS A   1     -11.218   6.936  72.580  1.00  0.00    -0.267 C  
ATOM      6  O   CYS A   1     -11.824   5.721  72.516  1.00  0.00    -0.297 OA 
ATOM      7  OXT CYS A   1     -10.619   7.336  73.564  1.00  0.00    -0.368 OA 
ENDROOT
BRANCH   3   8
ATOM      8  CB  CYS A   1     -11.826   9.145  71.593  1.00  0.00    -0.372 C  
ATOM      9  SG  CYS A   1     -13.534   9.200  72.234  1.00  0.00    -0.490 SA 
ATOM     10  HG  CYS A   1     -13.937  10.497  72.527  1.00  0.00     0.000 H  
ENDBRANCH   3   8
TORSDOF 1
ENDMDL
MODEL       55
REMARK 921   NORMALIZED FREE ENERGY PREDICTED BY IDOCK:   -2.59 KCAL/MOL
REMARK 922        TOTAL FREE ENERGY PREDICTED BY IDOCK:   -2.74 KCAL/MOL
REMARK 923 INTER-LIGAND FREE ENERGY PREDICTED BY IDOCK:   -2.74 KCAL/MOL
REMARK 924 INTRA-LIGAND FREE ENERGY PREDICTED BY IDOCK:   -0.01 KCAL/MOL
REMARK 927      BINDING AFFINITY PREDICTED BY RF-SCORE:    0.00 PKD
ROOT
ATOM      1  N   CYS A   1     -13.221   9.990  70.498  1.00  0.00    -0.601 NA 
ATOM      2  H1  CYS A   1     -13.821  10.725  70.125  1.00  0.00     0.000 HD 
ATOM      3  CA  CYS A   1     -11.802  10.438  70.717  1.00  0.00    -0.368 C  
ATOM      4  H2  CYS A   1     -13.614   9.602  71.355  1.00  0.00     0.000 HD 
ATOM      5  C   CYS A   1     -11.231  10.910  69.375  1.00  0.00    -0.272 C  
ATOM      6  O   CYS A   1     -12.198  10.984  68.423  1.00  0.00    -0.586 OA 
ATOM      7  OXT CYS A   1     -10.063  11.194  69.170  1.00  0.00    -0.195 OA 
ENDROOT
BRANCH   3   8
ATOM      8  CB  CYS A   1     -10.899   9.333  71.279  1.00  0.00    -0.347 C  
ATOM      9  SG  CYS A   1     -11.860   8.025  72.114  1.00  0.00    -0.370 SA 
ATOM     10  HG  CYS A   1     -11.042   7.024  72.624  1.00  0.00     0.000 H  
ENDBRANCH   3   8
TORSDOF 1
ENDMDL
MODEL       56
REMARK 921   NORMALIZED FREE ENERGY PREDICTED BY IDOCK:   -2.58 KCAL/MOL
REMARK 922        TOTAL FREE ENERGY PREDICTED BY IDOCK:   -2.74 KCAL/MOL
REMARK 923 INTER-LIGAND FREE ENERGY PREDICTED BY IDOCK:   -2.70 KCAL/MOL
REMARK 924 INTRA-LIGAND FREE ENERGY PREDICTED BY IDOCK:   -0.04 KCAL/MOL
REMARK 927      BINDING AFFINITY PREDICTED BY RF-SCORE:    0.00 PKD
ROOT
ATOM      1  N   CYS A   1     -11.657  10.397  67.959  1.00  0.00    -0.712 NA 
ATOM      2  H1  CYS A   1     -12.050  10.802  67.109  1.00  0.00     0.000 HD 
ATOM      3  CA  CYS A   1     -12.146  11.064  69.215  1.00  0.00    -0.292 C  
ATOM      4  H2  CYS A   1     -11.826   9.392  67.993  1.00  0.00     0.000 HD 
ATOM      5  C   CYS A   1     -11.770  12.548  69.152  1.00  0.00    -0.321 C  
ATOM      6  O   CYS A   1     -11.291  12.888  67.927  1.00  0.00    -0.258 OA 
ATOM      7  OXT CYS A   1     -11.885  13.341  70.072  1.00  0.00    -0.319 OA 
ENDROOT
BRANCH   3   8
ATOM      8  CB  CYS A   1     -11.556  10.455  70.493  1.00  0.00    -0.344 C  
ATOM      9  SG  CYS A   1     -12.850  10.035  71.709  1.00  0.00    -0.453 SA 
ATOM     10  HG  CYS A   1     -12.316   9.484  72.867  1.00  0.00     0.000 H  
ENDBRANCH   3   8
TORSDOF 1
ENDMDL
MODEL       57
REMARK 921   NORMALIZED FREE ENERGY PREDICTED BY IDOCK:   -2.57 KCAL/MOL
REMARK 922        TOTAL FREE ENERGY PREDICTED BY IDOCK:   -2.72 KCAL/MOL
REMARK 923 INTER-LIGAND FREE ENERGY PREDICTED BY IDOCK:   -2.72 KCAL/MOL
REMARK 924 INTRA-LIGAND FREE ENERGY PREDICTED BY IDOCK:   -0.01 KCAL/MOL
REMARK 927      BINDING AFFINITY PREDICTED BY RF-SCORE:    0.00 PKD
ROOT
ATOM      1  N   CYS A   1      -9.538  13.124  65.866  1.00  0.00    -0.459 NA 
ATOM      2  H1  CYS A   1      -8.759  13.431  65.283  1.00  0.00     0.000 HD 
ATOM      3  CA  CYS A   1     -10.859  13.140  65.148  1.00  0.00    -0.304 C  
ATOM      4  H2  CYS A   1      -9.352  12.203  66.263  1.00  0.00     0.000 HD 
ATOM      5  C   CYS A   1     -11.132  14.570  64.668  1.00  0.00    -0.346 C  
ATOM      6  O   CYS A   1     -10.045  15.367  64.840  1.00  0.00    -0.302 OA 
ATOM      7  OXT CYS A   1     -12.181  14.960  64.184  1.00  0.00    -0.567 OA 
ENDROOT
BRANCH   3   8
ATOM      8  CB  CYS A   1     -12.030  12.678  66.024  1.00  0.00    -0.417 C  
ATOM      9  SG  CYS A   1     -11.462  12.002  67.621  1.00  0.00    -0.321 SA 
ATOM     10  HG  CYS A   1     -12.523  11.583  68.414  1.00  0.00     0.000 H  
ENDBRANCH   3   8
TORSDOF 1
ENDMDL
MODEL       58
REMARK 921   NORMALIZED FREE ENERGY PREDICTED BY IDOCK:   -2.56 KCAL/MOL
REMARK 922        TOTAL FREE ENERGY PREDICTED BY IDOCK:   -2.71 KCAL/MOL
REMARK 923 INTER-LIGAND FREE ENERGY PREDICTED BY IDOCK:   -2.65 KCAL/MOL
REMARK 924 INTRA-LIGAND FREE ENERGY PREDICTED BY IDOCK:   -0.06 KCAL/MOL
REMARK 927      BINDING AFFINITY PREDICTED BY RF-SCORE:    0.00 PKD
ROOT
ATOM      1  N   CYS A   1      -9.320  16.798  67.739  1.00  0.00    -0.231 NA 
ATOM      2  H1  CYS A   1      -9.743  16.059  67.177  1.00  0.00     0.000 HD 
ATOM      3  CA  CYS A   1     -10.177  18.030  67.839  1.00  0.00    -0.378 C  
ATOM      4  H2  CYS A   1      -9.073  16.453  68.666  1.00  0.00     0.000 HD 
ATOM      5  C   CYS A   1     -10.426  18.563  66.424  1.00  0.00    -0.406 C  
ATOM      6  O   CYS A   1      -9.988  17.689  65.480  1.00  0.00    -0.533 OA 
ATOM      7  OXT CYS A   1     -10.955  19.629  66.158  1.00  0.00    -0.365 OA 
ENDROOT
BRANCH   3   8
ATOM      8  CB  CYS A   1      -9.543  19.142  68.684  1.00  0.00    -0.413 C  
ATOM      9  SG  CYS A   1      -7.763  19.337  68.330  1.00  0.00    -0.328 SA 
ATOM     10  HG  CYS A   1      -7.188  20.344  69.095  1.00  0.00     0.000 H  
ENDBRANCH   3   8
TORSDOF 1
ENDMDL
MODEL       59
REMARK 921   NORMALIZED FREE ENERGY PREDICTED BY IDOCK:   -2.54 KCAL/MOL
REMARK 922        TOTAL FREE ENERGY PREDICTED BY IDOCK:   -2.70 KCAL/MOL
REMARK 923 INTER-LIGAND FREE ENERGY PREDICTED BY IDOCK:   -2.69 KCAL/MOL
REMARK 924 INTRA-LIGAND FREE ENERGY PREDICTED BY IDOCK:   -0.01 KCAL/MOL
REMARK 927      BINDING AFFINITY PREDICTED BY RF-SCORE:    0.00 PKD
ROOT
ATOM      1  N   CYS A   1     -12.154   7.652  72.653  1.00  0.00    -0.576 NA 
ATOM      2  H1  CYS A   1     -11.970   6.703  72.978  1.00  0.00     0.000 HD 
ATOM      3  CA  CYS A   1     -11.041   8.219  71.815  1.00  0.00    -0.278 C  
ATOM      4  H2  CYS A   1     -13.043   7.699  72.155  1.00  0.00     0.000 HD 
ATOM      5  C   CYS A   1      -9.758   8.221  72.653  1.00  0.00    -0.287 C  
ATOM      6  O   CYS A   1      -9.924   7.544  73.819  1.00  0.00    -0.305 OA 
ATOM      7  OXT CYS A   1      -8.708   8.752  72.328  1.00  0.00    -0.375 OA 
ENDROOT
BRANCH   3   8
ATOM      8  CB  CYS A   1     -11.318   9.646  71.326  1.00  0.00    -0.388 C  
ATOM      9  SG  CYS A   1     -13.034  10.164  71.670  1.00  0.00    -0.482 SA 
ATOM     10  HG  CYS A   1     -13.285  11.457  71.227  1.00  0.00     0.000 H  
ENDBRANCH   3   8
TORSDOF 1
ENDMDL
MODEL       60
REMARK 921   NORMALIZED FREE ENERGY PREDICTED BY IDOCK:   -2.54 KCAL/MOL
REMARK 922        TOTAL FREE ENERGY PREDICTED BY IDOCK:   -2.69 KCAL/MOL
REMARK 923 INTER-LIGAND FREE ENERGY PREDICTED BY IDOCK:   -2.63 KCAL/MOL
REMARK 924 INTRA-LIGAND FREE ENERGY PREDICTED BY IDOCK:   -0.07 KCAL/MOL
REMARK 927      BINDING AFFINITY PREDICTED BY RF-SCORE:    0.00 PKD
ROOT
ATOM      1  N   CYS A   1     -10.791  14.645  64.334  1.00  0.00    -0.600 NA 
ATOM      2  H1  CYS A   1     -10.687  15.649  64.188  1.00  0.00     0.000 HD 
ATOM      3  CA  CYS A   1     -11.801  14.301  65.394  1.00  0.00    -0.363 C  
ATOM      4  H2  CYS A   1     -11.011  14.172  63.457  1.00  0.00     0.000 HD 
ATOM      5  C   CYS A   1     -11.362  14.951  66.710  1.00  0.00    -0.328 C  
ATOM      6  O   CYS A   1     -10.320  15.802  66.520  1.00  0.00    -0.278 OA 
ATOM      7  OXT CYS A   1     -11.873  14.749  67.799  1.00  0.00    -0.351 OA 
ENDROOT
BRANCH   3   8
ATOM      8  CB  CYS A   1     -11.959  12.792  65.613  1.00  0.00    -0.452 C  
ATOM      9  SG  CYS A   1     -10.353  11.973  65.903  1.00  0.00    -0.254 SA 
ATOM     10  HG  CYS A   1     -10.496  10.605  66.102  1.00  0.00     0.000 H  
ENDBRANCH   3   8
TORSDOF 1
ENDMDL
MODEL       61
REMARK 921   NORMALIZED FREE ENERGY PREDICTED BY IDOCK:   -2.54 KCAL/MOL
REMARK 922        TOTAL FREE ENERGY PREDICTED BY IDOCK:   -2.69 KCAL/MOL
REMARK 923 INTER-LIGAND FREE ENERGY PREDICTED BY IDOCK:   -2.66 KCAL/MOL
REMARK 924 INTRA-LIGAND FREE ENERGY PREDICTED BY IDOCK:   -0.04 KCAL/MOL
REMARK 927      BINDING AFFINITY PREDICTED BY RF-SCORE:    0.00 PKD
ROOT
ATOM      1  N   CYS A   1     -11.236  14.060  70.019  1.00  0.00    -0.477 NA 
ATOM      2  H1  CYS A   1     -11.949  13.912  70.734  1.00  0.00     0.000 HD 
ATOM      3  CA  CYS A   1     -11.592  13.450  68.692  1.00  0.00    -0.327 C  
ATOM      4  H2  CYS A   1     -11.025  15.053  69.917  1.00  0.00     0.000 HD 
ATOM      5  C   CYS A   1     -11.792  11.943  68.889  1.00  0.00    -0.307 C  
ATOM      6  O   CYS A   1     -11.792  11.611  70.207  1.00  0.00    -0.340 OA 
ATOM      7  OXT CYS A   1     -11.940  11.131  67.992  1.00  0.00    -0.625 OA 
ENDROOT
BRANCH   3   8
ATOM      8  CB  CYS A   1     -10.520  13.672  67.617  1.00  0.00    -0.238 C  
ATOM      9  SG  CYS A   1     -11.224  14.377  66.088  1.00  0.00    -0.341 SA 
ATOM     10  HG  CYS A   1     -10.254  14.579  65.114  1.00  0.00     0.000 H  
ENDBRANCH   3   8
TORSDOF 1
ENDMDL
MODEL       62
REMARK 921   NORMALIZED FREE ENERGY PREDICTED BY IDOCK:   -2.54 KCAL/MOL
REMARK 922        TOTAL FREE ENERGY PREDICTED BY IDOCK:   -2.69 KCAL/MOL
REMARK 923 INTER-LIGAND FREE ENERGY PREDICTED BY IDOCK:   -2.65 KCAL/MOL
REMARK 924 INTRA-LIGAND FREE ENERGY PREDICTED BY IDOCK:   -0.04 KCAL/MOL
REMARK 927      BINDING AFFINITY PREDICTED BY RF-SCORE:    0.00 PKD
ROOT
ATOM      1  N   CYS A   1     -13.461  15.256  73.893  1.00  0.00    -0.341 NA 
ATOM      2  H1  CYS A   1     -12.861  15.755  74.551  1.00  0.00     0.000 HD 
ATOM      3  CA  CYS A   1     -12.691  14.484  72.857  1.00  0.00    -0.381 C  
ATOM      4  H2  CYS A   1     -14.113  14.648  74.388  1.00  0.00     0.000 HD 
ATOM      5  C   CYS A   1     -11.810  15.466  72.078  1.00  0.00    -0.442 C  
ATOM      6  O   CYS A   1     -11.811  16.698  72.652  1.00  0.00    -0.516 OA 
ATOM      7  OXT CYS A   1     -11.174  15.195  71.073  1.00  0.00    -0.314 OA 
ENDROOT
BRANCH   3   8
ATOM      8  CB  CYS A   1     -13.592  13.733  71.869  1.00  0.00    -0.429 C  
ATOM      9  SG  CYS A   1     -13.131  11.973  71.727  1.00  0.00    -0.229 SA 
ATOM     10  HG  CYS A   1     -13.947  11.293  70.832  1.00  0.00     0.000 H  
ENDBRANCH   3   8
TORSDOF 1
ENDMDL
MODEL       63
REMARK 921   NORMALIZED FREE ENERGY PREDICTED BY IDOCK:   -2.53 KCAL/MOL
REMARK 922        TOTAL FREE ENERGY PREDICTED BY IDOCK:   -2.68 KCAL/MOL
REMARK 923 INTER-LIGAND FREE ENERGY PREDICTED BY IDOCK:   -2.68 KCAL/MOL
REMARK 924 INTRA-LIGAND FREE ENERGY PREDICTED BY IDOCK:   -0.01 KCAL/MOL
REMARK 927      BINDING AFFINITY PREDICTED BY RF-SCORE:    0.00 PKD
ROOT
ATOM      1  N   CYS A   1     -12.237  10.604  68.621  1.00  0.00    -0.814 NA 
ATOM      2  H1  CYS A   1     -12.458  11.565  68.882  1.00  0.00     0.000 HD 
ATOM      3  CA  CYS A   1     -10.938  10.476  67.873  1.00  0.00    -0.295 C  
ATOM      4  H2  CYS A   1     -12.246   9.996  69.439  1.00  0.00     0.000 HD 
ATOM      5  C   CYS A   1     -11.026  11.328  66.602  1.00  0.00    -0.268 C  
ATOM      6  O   CYS A   1     -12.141  12.103  66.600  1.00  0.00    -0.622 OA 
ATOM      7  OXT CYS A   1     -10.205  11.329  65.700  1.00  0.00    -0.235 OA 
ENDROOT
BRANCH   3   8
ATOM      8  CB  CYS A   1     -10.606   9.031  67.482  1.00  0.00    -0.237 C  
ATOM      9  SG  CYS A   1     -10.085   8.037  68.921  1.00  0.00    -0.204 SA 
ATOM     10  HG  CYS A   1      -9.783   6.728  68.566  1.00  0.00     0.000 H  
ENDBRANCH   3   8
TORSDOF 1
ENDMDL
MODEL       64
REMARK 921   NORMALIZED FREE ENERGY PREDICTED BY IDOCK:   -2.49 KCAL/MOL
REMARK 922        TOTAL FREE ENERGY PREDICTED BY IDOCK:   -2.64 KCAL/MOL
REMARK 923 INTER-LIGAND FREE ENERGY PREDICTED BY IDOCK:   -2.63 KCAL/MOL
REMARK 924 INTRA-LIGAND FREE ENERGY PREDICTED BY IDOCK:   -0.01 KCAL/MOL
REMARK 927      BINDING AFFINITY PREDICTED BY RF-SCORE:    0.00 PKD
ROOT
ATOM      1  N   CYS A   1      -8.572  17.212  65.844  1.00  0.00    -0.529 NA 
ATOM      2  H1  CYS A   1      -8.397  17.565  64.903  1.00  0.00     0.000 HD 
ATOM      3  CA  CYS A   1      -9.806  17.794  66.477  1.00  0.00    -0.329 C  
ATOM      4  H2  CYS A   1      -8.610  16.193  65.848  1.00  0.00     0.000 HD 
ATOM      5  C   CYS A   1      -9.644  19.317  66.539  1.00  0.00    -0.363 C  
ATOM      6  O   CYS A   1      -8.553  19.730  65.844  1.00  0.00    -0.367 OA 
ATOM      7  OXT CYS A   1     -10.394  20.079  67.128  1.00  0.00    -0.425 OA 
ENDROOT
BRANCH   3   8
ATOM      8  CB  CYS A   1     -10.069  17.264  67.891  1.00  0.00    -0.317 C  
ATOM      9  SG  CYS A   1     -11.097  15.756  67.874  1.00  0.00    -0.301 SA 
ATOM     10  HG  CYS A   1     -11.335  15.275  69.155  1.00  0.00     0.000 H  
ENDBRANCH   3   8
TORSDOF 1
ENDMDL
MODEL       65
REMARK 921   NORMALIZED FREE ENERGY PREDICTED BY IDOCK:   -2.49 KCAL/MOL
REMARK 922        TOTAL FREE ENERGY PREDICTED BY IDOCK:   -2.64 KCAL/MOL
REMARK 923 INTER-LIGAND FREE ENERGY PREDICTED BY IDOCK:   -2.58 KCAL/MOL
REMARK 924 INTRA-LIGAND FREE ENERGY PREDICTED BY IDOCK:   -0.05 KCAL/MOL
REMARK 927      BINDING AFFINITY PREDICTED BY RF-SCORE:    0.00 PKD
ROOT
ATOM      1  N   CYS A   1     -10.704  19.711  66.227  1.00  0.00    -0.456 NA 
ATOM      2  H1  CYS A   1     -10.545  20.699  66.032  1.00  0.00     0.000 HD 
ATOM      3  CA  CYS A   1     -10.403  19.331  67.650  1.00  0.00    -0.429 C  
ATOM      4  H2  CYS A   1     -11.654  19.439  65.972  1.00  0.00     0.000 HD 
ATOM      5  C   CYS A   1      -8.936  19.664  67.940  1.00  0.00    -0.324 C  
ATOM      6  O   CYS A   1      -8.379  20.377  66.927  1.00  0.00    -0.304 OA 
ATOM      7  OXT CYS A   1      -8.329  19.345  68.949  1.00  0.00    -0.368 OA 
ENDROOT
BRANCH   3   8
ATOM      8  CB  CYS A   1     -10.643  17.844  67.944  1.00  0.00    -0.376 C  
ATOM      9  SG  CYS A   1     -10.150  16.785  66.541  1.00  0.00    -0.327 SA 
ATOM     10  HG  CYS A   1     -10.368  15.438  66.807  1.00  0.00     0.000 H  
ENDBRANCH   3   8
TORSDOF 1
ENDMDL
MODEL       66
REMARK 921   NORMALIZED FREE ENERGY PREDICTED BY IDOCK:   -2.48 KCAL/MOL
REMARK 922        TOTAL FREE ENERGY PREDICTED BY IDOCK:   -2.63 KCAL/MOL
REMARK 923 INTER-LIGAND FREE ENERGY PREDICTED BY IDOCK:   -2.61 KCAL/MOL
REMARK 924 INTRA-LIGAND FREE ENERGY PREDICTED BY IDOCK:   -0.03 KCAL/MOL
REMARK 927      BINDING AFFINITY PREDICTED BY RF-SCORE:    0.00 PKD
ROOT
ATOM      1  N   CYS A   1     -13.014   7.217  70.862  1.00  0.00    -0.598 NA 
ATOM      2  H1  CYS A   1     -13.760   7.791  71.256  1.00  0.00     0.000 HD 
ATOM      3  CA  CYS A   1     -12.053   6.701  71.897  1.00  0.00    -0.340 C  
ATOM      4  H2  CYS A   1     -13.399   6.451  70.310  1.00  0.00     0.000 HD 
ATOM      5  C   CYS A   1     -11.429   7.899  72.620  1.00  0.00    -0.395 C  
ATOM      6  O   CYS A   1     -12.045   9.061  72.278  1.00  0.00    -0.346 OA 
ATOM      7  OXT CYS A   1     -10.502   7.838  73.410  1.00  0.00    -0.338 OA 
ENDROOT
BRANCH   3   8
ATOM      8  CB  CYS A   1     -10.932   5.838  71.306  1.00  0.00    -0.230 C  
ATOM      9  SG  CYS A   1     -10.697   6.153  69.523  1.00  0.00    -0.357 SA 
ATOM     10  HG  CYS A   1      -9.681   5.371  68.987  1.00  0.00     0.000 H  
ENDBRANCH   3   8
TORSDOF 1
ENDMDL
MODEL       67
REMARK 921   NORMALIZED FREE ENERGY PREDICTED BY IDOCK:   -2.47 KCAL/MOL
REMARK 922        TOTAL FREE ENERGY PREDICTED BY IDOCK:   -2.62 KCAL/MOL
REMARK 923 INTER-LIGAND FREE ENERGY PREDICTED BY IDOCK:   -2.62 KCAL/MOL
REMARK 924 INTRA-LIGAND FREE ENERGY PREDICTED BY IDOCK:   -0.01 KCAL/MOL
REMARK 927      BINDING AFFINITY PREDICTED BY RF-SCORE:    0.00 PKD
ROOT
ATOM      1  N   CYS A   1     -10.300  16.561  65.521  1.00  0.00    -0.572 NA 
ATOM      2  H1  CYS A   1      -9.895  15.637  65.375  1.00  0.00     0.000 HD 
ATOM      3  CA  CYS A   1     -10.130  17.069  66.926  1.00  0.00    -0.298 C  
ATOM      4  H2  CYS A   1      -9.929  17.231  64.847  1.00  0.00     0.000 HD 
ATOM      5  C   CYS A   1     -10.799  16.076  67.883  1.00  0.00    -0.333 C  
ATOM      6  O   CYS A   1     -11.175  14.941  67.238  1.00  0.00    -0.326 OA 
ATOM      7  OXT CYS A   1     -10.974  16.260  69.076  1.00  0.00    -0.286 OA 
ENDROOT
BRANCH   3   8
ATOM      8  CB  CYS A   1     -10.739  18.459  67.146  1.00  0.00    -0.330 C  
ATOM      9  SG  CYS A   1      -9.813  19.758  66.260  1.00  0.00    -0.471 SA 
ATOM     10  HG  CYS A   1     -10.365  21.017  66.459  1.00  0.00     0.000 H  
ENDBRANCH   3   8
TORSDOF 1
ENDMDL
MODEL       68
REMARK 921   NORMALIZED FREE ENERGY PREDICTED BY IDOCK:   -2.47 KCAL/MOL
REMARK 922        TOTAL FREE ENERGY PREDICTED BY IDOCK:   -2.62 KCAL/MOL
REMARK 923 INTER-LIGAND FREE ENERGY PREDICTED BY IDOCK:   -2.61 KCAL/MOL
REMARK 924 INTRA-LIGAND FREE ENERGY PREDICTED BY IDOCK:   -0.01 KCAL/MOL
REMARK 927      BINDING AFFINITY PREDICTED BY RF-SCORE:    0.00 PKD
ROOT
ATOM      1  N   CYS A   1     -11.684  16.246  70.711  1.00  0.00    -0.542 NA 
ATOM      2  H1  CYS A   1     -12.495  16.085  71.309  1.00  0.00     0.000 HD 
ATOM      3  CA  CYS A   1     -11.840  15.669  69.331  1.00  0.00    -0.375 C  
ATOM      4  H2  CYS A   1     -11.458  17.239  70.666  1.00  0.00     0.000 HD 
ATOM      5  C   CYS A   1     -12.070  14.160  69.460  1.00  0.00    -0.340 C  
ATOM      6  O   CYS A   1     -12.267  13.796  70.755  1.00  0.00    -0.344 OA 
ATOM      7  OXT CYS A   1     -12.086  13.369  68.531  1.00  0.00    -0.352 OA 
ENDROOT
BRANCH   3   8
ATOM      8  CB  CYS A   1     -10.621  15.911  68.432  1.00  0.00    -0.266 C  
ATOM      9  SG  CYS A   1     -10.238  17.688  68.266  1.00  0.00    -0.392 SA 
ATOM     10  HG  CYS A   1      -9.134  17.907  67.452  1.00  0.00     0.000 H  
ENDBRANCH   3   8
TORSDOF 1
ENDMDL
MODEL       69
REMARK 921   NORMALIZED FREE ENERGY PREDICTED BY IDOCK:   -2.46 KCAL/MOL
REMARK 922        TOTAL FREE ENERGY PREDICTED BY IDOCK:   -2.61 KCAL/MOL
REMARK 923 INTER-LIGAND FREE ENERGY PREDICTED BY IDOCK:   -2.60 KCAL/MOL
REMARK 924 INTRA-LIGAND FREE ENERGY PREDICTED BY IDOCK:   -0.00 KCAL/MOL
REMARK 927      BINDING AFFINITY PREDICTED BY RF-SCORE:    0.00 PKD
ROOT
ATOM      1  N   CYS A   1     -11.870  12.550  70.381  1.00  0.00    -0.550 NA 
ATOM      2  H1  CYS A   1     -12.282  11.671  70.068  1.00  0.00     0.000 HD 
ATOM      3  CA  CYS A   1     -12.360  13.743  69.608  1.00  0.00    -0.232 C  
ATOM      4  H2  CYS A   1     -12.016  12.683  71.382  1.00  0.00     0.000 HD 
ATOM      5  C   CYS A   1     -12.019  13.534  68.128  1.00  0.00    -0.341 C  
ATOM      6  O   CYS A   1     -11.562  12.275  67.897  1.00  0.00    -0.312 OA 
ATOM      7  OXT CYS A   1     -12.141  14.375  67.254  1.00  0.00    -0.406 OA 
ENDROOT
BRANCH   3   8
ATOM      8  CB  CYS A   1     -11.742  15.065  70.078  1.00  0.00    -0.306 C  
ATOM      9  SG  CYS A   1     -11.824  15.249  71.892  1.00  0.00    -0.455 SA 
ATOM     10  HG  CYS A   1     -11.264  16.447  72.319  1.00  0.00     0.000 H  
ENDBRANCH   3   8
TORSDOF 1
ENDMDL
MODEL       70
REMARK 921   NORMALIZED FREE ENERGY PREDICTED BY IDOCK:   -2.45 KCAL/MOL
REMARK 922        TOTAL FREE ENERGY PREDICTED BY IDOCK:   -2.60 KCAL/MOL
REMARK 923 INTER-LIGAND FREE ENERGY PREDICTED BY IDOCK:   -2.56 KCAL/MOL
REMARK 924 INTRA-LIGAND FREE ENERGY PREDICTED BY IDOCK:   -0.04 KCAL/MOL
REMARK 927      BINDING AFFINITY PREDICTED BY RF-SCORE:    0.00 PKD
ROOT
ATOM      1  N   CYS A   1     -10.600  17.256  65.284  1.00  0.00    -0.657 NA 
ATOM      2  H1  CYS A   1     -11.393  17.882  65.144  1.00  0.00     0.000 HD 
ATOM      3  CA  CYS A   1     -10.528  16.693  66.677  1.00  0.00    -0.258 C  
ATOM      4  H2  CYS A   1     -10.600  16.509  64.590  1.00  0.00     0.000 HD 
ATOM      5  C   CYS A   1     -10.422  17.858  67.666  1.00  0.00    -0.397 C  
ATOM      6  O   CYS A   1     -10.620  19.052  67.049  1.00  0.00    -0.421 OA 
ATOM      7  OXT CYS A   1     -10.197  17.748  68.859  1.00  0.00    -0.368 OA 
ENDROOT
BRANCH   3   8
ATOM      8  CB  CYS A   1      -9.336  15.751  66.888  1.00  0.00    -0.227 C  
ATOM      9  SG  CYS A   1      -9.825  14.212  67.738  1.00  0.00    -0.236 SA 
ATOM     10  HG  CYS A   1      -8.744  13.359  67.929  1.00  0.00     0.000 H  
ENDBRANCH   3   8
TORSDOF 1
ENDMDL
MODEL       71
REMARK 921   NORMALIZED FREE ENERGY PREDICTED BY IDOCK:   -2.45 KCAL/MOL
REMARK 922        TOTAL FREE ENERGY PREDICTED BY IDOCK:   -2.60 KCAL/MOL
REMARK 923 INTER-LIGAND FREE ENERGY PREDICTED BY IDOCK:   -2.55 KCAL/MOL
REMARK 924 INTRA-LIGAND FREE ENERGY PREDICTED BY IDOCK:   -0.05 KCAL/MOL
REMARK 927      BINDING AFFINITY PREDICTED BY RF-SCORE:    0.00 PKD
ROOT
ATOM      1  N   CYS A   1     -12.404  14.221  66.779  1.00  0.00    -0.559 NA 
ATOM      2  H1  CYS A   1     -13.148  14.707  66.278  1.00  0.00     0.000 HD 
ATOM      3  CA  CYS A   1     -11.192  15.080  67.018  1.00  0.00    -0.328 C  
ATOM      4  H2  CYS A   1     -12.751  13.832  67.656  1.00  0.00     0.000 HD 
ATOM      5  C   CYS A   1     -10.655  15.547  65.661  1.00  0.00    -0.373 C  
ATOM      6  O   CYS A   1     -11.511  15.235  64.654  1.00  0.00    -0.406 OA 
ATOM      7  OXT CYS A   1      -9.598  16.131  65.488  1.00  0.00    -0.447 OA 
ENDROOT
BRANCH   3   8
ATOM      8  CB  CYS A   1     -10.073  14.350  67.772  1.00  0.00    -0.226 C  
ATOM      9  SG  CYS A   1      -9.902  12.616  67.227  1.00  0.00    -0.209 SA 
ATOM     10  HG  CYS A   1      -8.888  11.956  67.910  1.00  0.00     0.000 H  
ENDBRANCH   3   8
TORSDOF 1
ENDMDL
MODEL       72
REMARK 921   NORMALIZED FREE ENERGY PREDICTED BY IDOCK:   -2.45 KCAL/MOL
REMARK 922        TOTAL FREE ENERGY PREDICTED BY IDOCK:   -2.60 KCAL/MOL
REMARK 923 INTER-LIGAND FREE ENERGY PREDICTED BY IDOCK:   -2.54 KCAL/MOL
REMARK 924 INTRA-LIGAND FREE ENERGY PREDICTED BY IDOCK:   -0.06 KCAL/MOL
REMARK 927      BINDING AFFINITY PREDICTED BY RF-SCORE:    0.00 PKD
ROOT
ATOM      1  N   CYS A   1      -8.742  20.812  67.029  1.00  0.00    -0.581 NA 
ATOM      2  H1  CYS A   1      -9.480  20.915  66.333  1.00  0.00     0.000 HD 
ATOM      3  CA  CYS A   1      -7.511  20.135  66.493  1.00  0.00    -0.277 C  
ATOM      4  H2  CYS A   1      -8.508  21.712  67.447  1.00  0.00     0.000 HD 
ATOM      5  C   CYS A   1      -7.906  18.747  65.978  1.00  0.00    -0.171 C  
ATOM      6  O   CYS A   1      -9.256  18.590  65.961  1.00  0.00    -0.499 OA 
ATOM      7  OXT CYS A   1      -7.124  17.882  65.618  1.00  0.00    -0.485 OA 
ENDROOT
BRANCH   3   8
ATOM      8  CB  CYS A   1      -6.401  19.979  67.540  1.00  0.00    -0.205 C  
ATOM      9  SG  CYS A   1      -7.068  19.533  69.180  1.00  0.00    -0.324 SA 
ATOM     10  HG  CYS A   1      -6.062  19.392  70.128  1.00  0.00     0.000 H  
ENDBRANCH   3   8
TORSDOF 1
ENDMDL
MODEL       73
REMARK 921   NORMALIZED FREE ENERGY PREDICTED BY IDOCK:   -2.45 KCAL/MOL
REMARK 922        TOTAL FREE ENERGY PREDICTED BY IDOCK:   -2.59 KCAL/MOL
REMARK 923 INTER-LIGAND FREE ENERGY PREDICTED BY IDOCK:   -2.55 KCAL/MOL
REMARK 924 INTRA-LIGAND FREE ENERGY PREDICTED BY IDOCK:   -0.04 KCAL/MOL
REMARK 927      BINDING AFFINITY PREDICTED BY RF-SCORE:    0.00 PKD
ROOT
ATOM      1  N   CYS A   1      -8.244  17.353  65.864  1.00  0.00    -0.552 NA 
ATOM      2  H1  CYS A   1      -8.725  16.608  66.370  1.00  0.00     0.000 HD 
ATOM      3  CA  CYS A   1      -8.406  18.704  66.504  1.00  0.00    -0.291 C  
ATOM      4  H2  CYS A   1      -7.257  17.127  65.739  1.00  0.00     0.000 HD 
ATOM      5  C   CYS A   1      -9.901  19.033  66.568  1.00  0.00    -0.369 C  
ATOM      6  O   CYS A   1     -10.661  17.960  66.226  1.00  0.00    -0.335 OA 
ATOM      7  OXT CYS A   1     -10.370  20.112  66.891  1.00  0.00    -0.439 OA 
ENDROOT
BRANCH   3   8
ATOM      8  CB  CYS A   1      -7.683  19.824  65.745  1.00  0.00    -0.258 C  
ATOM      9  SG  CYS A   1      -6.750  20.918  66.870  1.00  0.00    -0.312 SA 
ATOM     10  HG  CYS A   1      -6.095  21.932  66.182  1.00  0.00     0.000 H  
ENDBRANCH   3   8
TORSDOF 1
ENDMDL
MODEL       74
REMARK 921   NORMALIZED FREE ENERGY PREDICTED BY IDOCK:   -2.45 KCAL/MOL
REMARK 922        TOTAL FREE ENERGY PREDICTED BY IDOCK:   -2.59 KCAL/MOL
REMARK 923 INTER-LIGAND FREE ENERGY PREDICTED BY IDOCK:   -2.58 KCAL/MOL
REMARK 924 INTRA-LIGAND FREE ENERGY PREDICTED BY IDOCK:   -0.01 KCAL/MOL
REMARK 927      BINDING AFFINITY PREDICTED BY RF-SCORE:    0.00 PKD
ROOT
ATOM      1  N   CYS A   1     -12.969  13.984  65.918  1.00  0.00    -0.491 NA 
ATOM      2  H1  CYS A   1     -13.287  14.569  66.692  1.00  0.00     0.000 HD 
ATOM      3  CA  CYS A   1     -11.840  13.064  66.295  1.00  0.00    -0.408 C  
ATOM      4  H2  CYS A   1     -13.746  13.459  65.517  1.00  0.00     0.000 HD 
ATOM      5  C   CYS A   1     -10.666  13.916  66.790  1.00  0.00    -0.281 C  
ATOM      6  O   CYS A   1     -11.026  15.218  66.940  1.00  0.00    -0.320 OA 
ATOM      7  OXT CYS A   1      -9.546  13.497  67.030  1.00  0.00    -0.232 OA 
ENDROOT
BRANCH   3   8
ATOM      8  CB  CYS A   1     -11.362  12.185  65.133  1.00  0.00    -0.327 C  
ATOM      9  SG  CYS A   1     -12.238  12.573  63.579  1.00  0.00    -0.524 SA 
ATOM     10  HG  CYS A   1     -11.804  11.777  62.527  1.00  0.00     0.000 H  
ENDBRANCH   3   8
TORSDOF 1
ENDMDL
MODEL       75
REMARK 921   NORMALIZED FREE ENERGY PREDICTED BY IDOCK:   -2.43 KCAL/MOL
REMARK 922        TOTAL FREE ENERGY PREDICTED BY IDOCK:   -2.58 KCAL/MOL
REMARK 923 INTER-LIGAND FREE ENERGY PREDICTED BY IDOCK:   -2.54 KCAL/MOL
REMARK 924 INTRA-LIGAND FREE ENERGY PREDICTED BY IDOCK:   -0.04 KCAL/MOL
REMARK 927      BINDING AFFINITY PREDICTED BY RF-SCORE:    0.00 PKD
ROOT
ATOM      1  N   CYS A   1      -9.554  20.778  67.005  1.00  0.00    -0.681 NA 
ATOM      2  H1  CYS A   1     -10.547  20.571  67.113  1.00  0.00     0.000 HD 
ATOM      3  CA  CYS A   1      -8.689  19.548  67.000  1.00  0.00    -0.305 C  
ATOM      4  H2  CYS A   1      -9.389  21.341  66.171  1.00  0.00     0.000 HD 
ATOM      5  C   CYS A   1      -8.899  18.802  68.322  1.00  0.00    -0.333 C  
ATOM      6  O   CYS A   1      -9.931  19.331  69.032  1.00  0.00    -0.424 OA 
ATOM      7  OXT CYS A   1      -8.241  17.849  68.704  1.00  0.00    -0.299 OA 
ENDROOT
BRANCH   3   8
ATOM      8  CB  CYS A   1      -7.195  19.859  66.837  1.00  0.00    -0.230 C  
ATOM      9  SG  CYS A   1      -6.443  18.900  65.479  1.00  0.00    -0.274 SA 
ATOM     10  HG  CYS A   1      -5.091  19.181  65.332  1.00  0.00     0.000 H  
ENDBRANCH   3   8
TORSDOF 1
ENDMDL
MODEL       76
REMARK 921   NORMALIZED FREE ENERGY PREDICTED BY IDOCK:   -2.41 KCAL/MOL
REMARK 922        TOTAL FREE ENERGY PREDICTED BY IDOCK:   -2.55 KCAL/MOL
REMARK 923 INTER-LIGAND FREE ENERGY PREDICTED BY IDOCK:   -2.53 KCAL/MOL
REMARK 924 INTRA-LIGAND FREE ENERGY PREDICTED BY IDOCK:   -0.03 KCAL/MOL
REMARK 927      BINDING AFFINITY PREDICTED BY RF-SCORE:    0.00 PKD
ROOT
ATOM      1  N   CYS A   1     -11.806   6.613  69.771  1.00  0.00    -0.654 NA 
ATOM      2  H1  CYS A   1     -12.182   5.753  70.170  1.00  0.00     0.000 HD 
ATOM      3  CA  CYS A   1     -11.365   7.607  70.810  1.00  0.00    -0.281 C  
ATOM      4  H2  CYS A   1     -11.048   6.409  69.120  1.00  0.00     0.000 HD 
ATOM      5  C   CYS A   1     -12.570   7.954  71.690  1.00  0.00    -0.321 C  
ATOM      6  O   CYS A   1     -13.627   7.142  71.427  1.00  0.00    -0.375 OA 
ATOM      7  OXT CYS A   1     -12.595   8.838  72.530  1.00  0.00    -0.391 OA 
ENDROOT
BRANCH   3   8
ATOM      8  CB  CYS A   1     -10.799   8.899  70.210  1.00  0.00    -0.239 C  
ATOM      9  SG  CYS A   1      -9.061   9.173  70.695  1.00  0.00    -0.266 SA 
ATOM     10  HG  CYS A   1      -8.548  10.344  70.151  1.00  0.00     0.000 H  
ENDBRANCH   3   8
TORSDOF 1
ENDMDL
MODEL       77
REMARK 921   NORMALIZED FREE ENERGY PREDICTED BY IDOCK:   -2.37 KCAL/MOL
REMARK 922        TOTAL FREE ENERGY PREDICTED BY IDOCK:   -2.51 KCAL/MOL
REMARK 923 INTER-LIGAND FREE ENERGY PREDICTED BY IDOCK:   -2.49 KCAL/MOL
REMARK 924 INTRA-LIGAND FREE ENERGY PREDICTED BY IDOCK:   -0.02 KCAL/MOL
REMARK 927      BINDING AFFINITY PREDICTED BY RF-SCORE:    0.00 PKD
ROOT
ATOM      1  N   CYS A   1      -8.841  17.005  65.895  1.00  0.00    -0.532 NA 
ATOM      2  H1  CYS A   1      -8.811  17.031  64.876  1.00  0.00     0.000 HD 
ATOM      3  CA  CYS A   1      -8.921  18.370  66.520  1.00  0.00    -0.286 C  
ATOM      4  H2  CYS A   1      -9.604  16.412  66.220  1.00  0.00     0.000 HD 
ATOM      5  C   CYS A   1      -7.695  19.178  66.080  1.00  0.00    -0.247 C  
ATOM      6  O   CYS A   1      -6.996  18.530  65.112  1.00  0.00    -0.516 OA 
ATOM      7  OXT CYS A   1      -7.375  20.268  66.524  1.00  0.00    -0.261 OA 
ENDROOT
BRANCH   3   8
ATOM      8  CB  CYS A   1      -8.967  18.332  68.053  1.00  0.00    -0.290 C  
ATOM      9  SG  CYS A   1     -10.095  19.596  68.733  1.00  0.00    -0.355 SA 
ATOM     10  HG  CYS A   1     -10.136  19.561  70.122  1.00  0.00     0.000 H  
ENDBRANCH   3   8
TORSDOF 1
ENDMDL
MODEL       78
REMARK 921   NORMALIZED FREE ENERGY PREDICTED BY IDOCK:   -2.36 KCAL/MOL
REMARK 922        TOTAL FREE ENERGY PREDICTED BY IDOCK:   -2.50 KCAL/MOL
REMARK 923 INTER-LIGAND FREE ENERGY PREDICTED BY IDOCK:   -2.47 KCAL/MOL
REMARK 924 INTRA-LIGAND FREE ENERGY PREDICTED BY IDOCK:   -0.03 KCAL/MOL
REMARK 927      BINDING AFFINITY PREDICTED BY RF-SCORE:    0.00 PKD
ROOT
ATOM      1  N   CYS A   1     -12.343  14.234  67.282  1.00  0.00    -0.592 NA 
ATOM      2  H1  CYS A   1     -12.918  15.065  67.136  1.00  0.00     0.000 HD 
ATOM      3  CA  CYS A   1     -12.155  13.891  68.734  1.00  0.00    -0.309 C  
ATOM      4  H2  CYS A   1     -12.719  13.438  66.767  1.00  0.00     0.000 HD 
ATOM      5  C   CYS A   1     -11.490  15.084  69.431  1.00  0.00    -0.300 C  
ATOM      6  O   CYS A   1     -11.439  16.170  68.616  1.00  0.00    -0.373 OA 
ATOM      7  OXT CYS A   1     -11.062  15.080  70.573  1.00  0.00    -0.257 OA 
ENDROOT
BRANCH   3   8
ATOM      8  CB  CYS A   1     -11.292  12.643  68.954  1.00  0.00    -0.297 C  
ATOM      9  SG  CYS A   1     -11.945  11.589  70.294  1.00  0.00    -0.347 SA 
ATOM     10  HG  CYS A   1     -11.163  10.458  70.493  1.00  0.00     0.000 H  
ENDBRANCH   3   8
TORSDOF 1
ENDMDL
MODEL       79
REMARK 921   NORMALIZED FREE ENERGY PREDICTED BY IDOCK:   -2.36 KCAL/MOL
REMARK 922        TOTAL FREE ENERGY PREDICTED BY IDOCK:   -2.50 KCAL/MOL
REMARK 923 INTER-LIGAND FREE ENERGY PREDICTED BY IDOCK:   -2.49 KCAL/MOL
REMARK 924 INTRA-LIGAND FREE ENERGY PREDICTED BY IDOCK:   -0.01 KCAL/MOL
REMARK 927      BINDING AFFINITY PREDICTED BY RF-SCORE:    0.00 PKD
ROOT
ATOM      1  N   CYS A   1     -12.311   6.167  72.448  1.00  0.00    -0.535 NA 
ATOM      2  H1  CYS A   1     -13.137   5.975  71.882  1.00  0.00     0.000 HD 
ATOM      3  CA  CYS A   1     -11.685   7.501  72.150  1.00  0.00    -0.303 C  
ATOM      4  H2  CYS A   1     -12.524   6.080  73.442  1.00  0.00     0.000 HD 
ATOM      5  C   CYS A   1     -11.291   7.531  70.670  1.00  0.00    -0.281 C  
ATOM      6  O   CYS A   1     -11.783   6.455  70.003  1.00  0.00    -0.429 OA 
ATOM      7  OXT CYS A   1     -10.626   8.405  70.137  1.00  0.00    -0.224 OA 
ENDROOT
BRANCH   3   8
ATOM      8  CB  CYS A   1     -10.443   7.791  73.002  1.00  0.00    -0.369 C  
ATOM      9  SG  CYS A   1     -10.093   6.441  74.179  1.00  0.00    -0.349 SA 
ATOM     10  HG  CYS A   1      -8.967   6.703  74.951  1.00  0.00     0.000 H  
ENDBRANCH   3   8
TORSDOF 1
ENDMDL
MODEL       80
REMARK 921   NORMALIZED FREE ENERGY PREDICTED BY IDOCK:   -2.34 KCAL/MOL
REMARK 922        TOTAL FREE ENERGY PREDICTED BY IDOCK:   -2.48 KCAL/MOL
REMARK 923 INTER-LIGAND FREE ENERGY PREDICTED BY IDOCK:   -2.43 KCAL/MOL
REMARK 924 INTRA-LIGAND FREE ENERGY PREDICTED BY IDOCK:   -0.06 KCAL/MOL
REMARK 927      BINDING AFFINITY PREDICTED BY RF-SCORE:    0.00 PKD
ROOT
ATOM      1  N   CYS A   1     -12.005  10.038  71.620  1.00  0.00    -0.351 NA 
ATOM      2  H1  CYS A   1     -12.673  10.808  71.589  1.00  0.00     0.000 HD 
ATOM      3  CA  CYS A   1     -12.532   8.769  71.008  1.00  0.00    -0.118 C  
ATOM      4  H2  CYS A   1     -11.121  10.308  71.189  1.00  0.00     0.000 HD 
ATOM      5  C   CYS A   1     -13.799   8.357  71.765  1.00  0.00    -0.408 C  
ATOM      6  O   CYS A   1     -14.203   9.330  72.624  1.00  0.00    -0.498 OA 
ATOM      7  OXT CYS A   1     -14.389   7.299  71.623  1.00  0.00    -0.437 OA 
ENDROOT
BRANCH   3   8
ATOM      8  CB  CYS A   1     -11.527   7.612  71.055  1.00  0.00    -0.276 C  
ATOM      9  SG  CYS A   1     -10.982   7.250  72.759  1.00  0.00    -0.338 SA 
ATOM     10  HG  CYS A   1     -10.071   6.201  72.801  1.00  0.00     0.000 H  
ENDBRANCH   3   8
TORSDOF 1
ENDMDL
MODEL       81
REMARK 921   NORMALIZED FREE ENERGY PREDICTED BY IDOCK:   -2.32 KCAL/MOL
REMARK 922        TOTAL FREE ENERGY PREDICTED BY IDOCK:   -2.46 KCAL/MOL
REMARK 923 INTER-LIGAND FREE ENERGY PREDICTED BY IDOCK:   -2.45 KCAL/MOL
REMARK 924 INTRA-LIGAND FREE ENERGY PREDICTED BY IDOCK:   -0.01 KCAL/MOL
REMARK 927      BINDING AFFINITY PREDICTED BY RF-SCORE:    0.00 PKD
ROOT
ATOM      1  N   CYS A   1     -13.976  14.209  71.979  1.00  0.00    -0.475 NA 
ATOM      2  H1  CYS A   1     -14.745  13.541  71.929  1.00  0.00     0.000 HD 
ATOM      3  CA  CYS A   1     -13.000  14.077  70.842  1.00  0.00    -0.277 C  
ATOM      4  H2  CYS A   1     -14.329  15.164  72.044  1.00  0.00     0.000 HD 
ATOM      5  C   CYS A   1     -12.425  12.656  70.860  1.00  0.00    -0.278 C  
ATOM      6  O   CYS A   1     -13.085  11.865  71.747  1.00  0.00    -0.451 OA 
ATOM      7  OXT CYS A   1     -11.500  12.264  70.170  1.00  0.00    -0.149 OA 
ENDROOT
BRANCH   3   8
ATOM      8  CB  CYS A   1     -11.844  15.082  70.917  1.00  0.00    -0.324 C  
ATOM      9  SG  CYS A   1     -11.851  16.014  72.485  1.00  0.00    -0.495 SA 
ATOM     10  HG  CYS A   1     -10.803  16.925  72.553  1.00  0.00     0.000 H  
ENDBRANCH   3   8
TORSDOF 1
ENDMDL
MODEL       82
REMARK 921   NORMALIZED FREE ENERGY PREDICTED BY IDOCK:   -2.31 KCAL/MOL
REMARK 922        TOTAL FREE ENERGY PREDICTED BY IDOCK:   -2.45 KCAL/MOL
REMARK 923 INTER-LIGAND FREE ENERGY PREDICTED BY IDOCK:   -2.44 KCAL/MOL
REMARK 924 INTRA-LIGAND FREE ENERGY PREDICTED BY IDOCK:   -0.00 KCAL/MOL
REMARK 927      BINDING AFFINITY PREDICTED BY RF-SCORE:    0.00 PKD
ROOT
ATOM      1  N   CYS A   1     -12.052   7.686  72.632  1.00  0.00    -0.576 NA 
ATOM      2  H1  CYS A   1     -12.513   8.595  72.674  1.00  0.00     0.000 HD 
ATOM      3  CA  CYS A   1     -10.598   7.740  73.013  1.00  0.00    -0.379 C  
ATOM      4  H2  CYS A   1     -12.550   7.000  73.198  1.00  0.00     0.000 HD 
ATOM      5  C   CYS A   1      -9.883   8.704  72.061  1.00  0.00    -0.325 C  
ATOM      6  O   CYS A   1     -10.768   9.382  71.284  1.00  0.00    -0.316 OA 
ATOM      7  OXT CYS A   1      -8.675   8.862  71.998  1.00  0.00    -0.365 OA 
ENDROOT
BRANCH   3   8
ATOM      8  CB  CYS A   1      -9.905   6.373  72.950  1.00  0.00    -0.167 C  
ATOM      9  SG  CYS A   1     -11.042   5.011  73.378  1.00  0.00    -0.315 SA 
ATOM     10  HG  CYS A   1     -10.414   3.773  73.321  1.00  0.00     0.000 H  
ENDBRANCH   3   8
TORSDOF 1
ENDMDL
MODEL       83
REMARK 921   NORMALIZED FREE ENERGY PREDICTED BY IDOCK:   -2.27 KCAL/MOL
REMARK 922        TOTAL FREE ENERGY PREDICTED BY IDOCK:   -2.41 KCAL/MOL
REMARK 923 INTER-LIGAND FREE ENERGY PREDICTED BY IDOCK:   -2.40 KCAL/MOL
REMARK 924 INTRA-LIGAND FREE ENERGY PREDICTED BY IDOCK:   -0.01 KCAL/MOL
REMARK 927      BINDING AFFINITY PREDICTED BY RF-SCORE:    0.00 PKD
ROOT
ATOM      1  N   CYS A   1     -12.205  10.707  68.952  1.00  0.00    -0.793 NA 
ATOM      2  H1  CYS A   1     -13.088  10.233  69.140  1.00  0.00     0.000 HD 
ATOM      3  CA  CYS A   1     -11.002   9.912  69.380  1.00  0.00    -0.230 C  
ATOM      4  H2  CYS A   1     -12.135  10.968  67.968  1.00  0.00     0.000 HD 
ATOM      5  C   CYS A   1     -11.111   9.643  70.885  1.00  0.00    -0.352 C  
ATOM      6  O   CYS A   1     -12.327  10.009  71.368  1.00  0.00    -0.355 OA 
ATOM      7  OXT CYS A   1     -10.232   9.156  71.577  1.00  0.00    -0.323 OA 
ENDROOT
BRANCH   3   8
ATOM      8  CB  CYS A   1      -9.674  10.625  69.098  1.00  0.00    -0.189 C  
ATOM      9  SG  CYS A   1      -9.415  10.903  67.313  1.00  0.00    -0.160 SA 
ATOM     10  HG  CYS A   1      -8.212  11.549  67.057  1.00  0.00     0.000 H  
ENDBRANCH   3   8
TORSDOF 1
ENDMDL
MODEL       84
REMARK 921   NORMALIZED FREE ENERGY PREDICTED BY IDOCK:   -2.27 KCAL/MOL
REMARK 922        TOTAL FREE ENERGY PREDICTED BY IDOCK:   -2.40 KCAL/MOL
REMARK 923 INTER-LIGAND FREE ENERGY PREDICTED BY IDOCK:   -2.34 KCAL/MOL
REMARK 924 INTRA-LIGAND FREE ENERGY PREDICTED BY IDOCK:   -0.06 KCAL/MOL
REMARK 927      BINDING AFFINITY PREDICTED BY RF-SCORE:    0.00 PKD
ROOT
ATOM      1  N   CYS A   1      -9.809  13.143  68.647  1.00  0.00    -0.400 NA 
ATOM      2  H1  CYS A   1      -9.946  13.856  69.363  1.00  0.00     0.000 HD 
ATOM      3  CA  CYS A   1     -10.296  13.566  67.288  1.00  0.00    -0.241 C  
ATOM      4  H2  CYS A   1      -8.832  12.852  68.607  1.00  0.00     0.000 HD 
ATOM      5  C   CYS A   1     -11.791  13.887  67.389  1.00  0.00    -0.402 C  
ATOM      6  O   CYS A   1     -12.211  13.898  68.681  1.00  0.00    -0.345 OA 
ATOM      7  OXT CYS A   1     -12.526  14.115  66.442  1.00  0.00    -0.461 OA 
ENDROOT
BRANCH   3   8
ATOM      8  CB  CYS A   1     -10.090  12.494  66.211  1.00  0.00    -0.250 C  
ATOM      9  SG  CYS A   1     -10.534  10.828  66.811  1.00  0.00    -0.246 SA 
ATOM     10  HG  CYS A   1     -10.347   9.858  65.835  1.00  0.00     0.000 H  
ENDBRANCH   3   8
TORSDOF 1
ENDMDL
MODEL       85
REMARK 921   NORMALIZED FREE ENERGY PREDICTED BY IDOCK:   -2.26 KCAL/MOL
REMARK 922        TOTAL FREE ENERGY PREDICTED BY IDOCK:   -2.40 KCAL/MOL
REMARK 923 INTER-LIGAND FREE ENERGY PREDICTED BY IDOCK:   -2.33 KCAL/MOL
REMARK 924 INTRA-LIGAND FREE ENERGY PREDICTED BY IDOCK:   -0.06 KCAL/MOL
REMARK 927      BINDING AFFINITY PREDICTED BY RF-SCORE:    0.00 PKD
ROOT
ATOM      1  N   CYS A   1     -11.844   6.393  72.619  1.00  0.00    -0.502 NA 
ATOM      2  H1  CYS A   1     -12.290   6.788  73.448  1.00  0.00     0.000 HD 
ATOM      3  CA  CYS A   1     -10.604   7.136  72.204  1.00  0.00    -0.210 C  
ATOM      4  H2  CYS A   1     -11.645   5.402  72.752  1.00  0.00     0.000 HD 
ATOM      5  C   CYS A   1     -10.986   8.592  71.916  1.00  0.00    -0.342 C  
ATOM      6  O   CYS A   1     -12.262   8.856  72.299  1.00  0.00    -0.367 OA 
ATOM      7  OXT CYS A   1     -10.249   9.425  71.415  1.00  0.00    -0.316 OA 
ENDROOT
BRANCH   3   8
ATOM      8  CB  CYS A   1      -9.932   6.543  70.959  1.00  0.00    -0.183 C  
ATOM      9  SG  CYS A   1     -11.143   6.162  69.647  1.00  0.00    -0.413 SA 
ATOM     10  HG  CYS A   1     -10.534   5.625  68.519  1.00  0.00     0.000 H  
ENDBRANCH   3   8
TORSDOF 1
ENDMDL
MODEL       86
REMARK 921   NORMALIZED FREE ENERGY PREDICTED BY IDOCK:   -2.25 KCAL/MOL
REMARK 922        TOTAL FREE ENERGY PREDICTED BY IDOCK:   -2.39 KCAL/MOL
REMARK 923 INTER-LIGAND FREE ENERGY PREDICTED BY IDOCK:   -2.33 KCAL/MOL
REMARK 924 INTRA-LIGAND FREE ENERGY PREDICTED BY IDOCK:   -0.07 KCAL/MOL
REMARK 927      BINDING AFFINITY PREDICTED BY RF-SCORE:    0.00 PKD
ROOT
ATOM      1  N   CYS A   1      -7.749  19.235  69.020  1.00  0.00    -0.338 NA 
ATOM      2  H1  CYS A   1      -7.817  20.230  69.237  1.00  0.00     0.000 HD 
ATOM      3  CA  CYS A   1      -8.471  18.854  67.757  1.00  0.00    -0.284 C  
ATOM      4  H2  CYS A   1      -6.774  18.938  68.983  1.00  0.00     0.000 HD 
ATOM      5  C   CYS A   1      -9.949  19.228  67.913  1.00  0.00    -0.368 C  
ATOM      6  O   CYS A   1     -10.159  19.965  69.036  1.00  0.00    -0.434 OA 
ATOM      7  OXT CYS A   1     -10.838  18.920  67.137  1.00  0.00    -0.444 OA 
ENDROOT
BRANCH   3   8
ATOM      8  CB  CYS A   1      -8.369  17.359  67.429  1.00  0.00    -0.205 C  
ATOM      9  SG  CYS A   1      -8.912  16.316  68.824  1.00  0.00    -0.252 SA 
ATOM     10  HG  CYS A   1      -8.819  14.962  68.527  1.00  0.00     0.000 H  
ENDBRANCH   3   8
TORSDOF 1
ENDMDL
MODEL       87
REMARK 921   NORMALIZED FREE ENERGY PREDICTED BY IDOCK:   -2.24 KCAL/MOL
REMARK 922        TOTAL FREE ENERGY PREDICTED BY IDOCK:   -2.38 KCAL/MOL
REMARK 923 INTER-LIGAND FREE ENERGY PREDICTED BY IDOCK:   -2.36 KCAL/MOL
REMARK 924 INTRA-LIGAND FREE ENERGY PREDICTED BY IDOCK:   -0.03 KCAL/MOL
REMARK 927      BINDING AFFINITY PREDICTED BY RF-SCORE:    0.00 PKD
ROOT
ATOM      1  N   CYS A   1     -11.876  13.176  65.887  1.00  0.00    -0.384 NA 
ATOM      2  H1  CYS A   1     -12.234  13.943  65.317  1.00  0.00     0.000 HD 
ATOM      3  CA  CYS A   1     -10.686  12.489  65.276  1.00  0.00    -0.286 C  
ATOM      4  H2  CYS A   1     -11.665  13.495  66.832  1.00  0.00     0.000 HD 
ATOM      5  C   CYS A   1     -11.094  11.940  63.905  1.00  0.00    -0.412 C  
ATOM      6  O   CYS A   1     -12.324  12.386  63.538  1.00  0.00    -0.518 OA 
ATOM      7  OXT CYS A   1     -10.413  11.202  63.213  1.00  0.00    -0.353 OA 
ENDROOT
BRANCH   3   8
ATOM      8  CB  CYS A   1     -10.147  11.337  66.133  1.00  0.00    -0.236 C  
ATOM      9  SG  CYS A   1      -8.452  11.663  66.727  1.00  0.00    -0.167 SA 
ATOM     10  HG  CYS A   1      -7.964  10.619  67.503  1.00  0.00     0.000 H  
ENDBRANCH   3   8
TORSDOF 1
ENDMDL
MODEL       88
REMARK 921   NORMALIZED FREE ENERGY PREDICTED BY IDOCK:   -2.24 KCAL/MOL
REMARK 922        TOTAL FREE ENERGY PREDICTED BY IDOCK:   -2.38 KCAL/MOL
REMARK 923 INTER-LIGAND FREE ENERGY PREDICTED BY IDOCK:   -2.34 KCAL/MOL
REMARK 924 INTRA-LIGAND FREE ENERGY PREDICTED BY IDOCK:   -0.04 KCAL/MOL
REMARK 927      BINDING AFFINITY PREDICTED BY RF-SCORE:    0.00 PKD
ROOT
ATOM      1  N   CYS A   1     -10.409  15.049  70.230  1.00  0.00    -0.503 NA 
ATOM      2  H1  CYS A   1      -9.578  15.614  70.408  1.00  0.00     0.000 HD 
ATOM      3  CA  CYS A   1     -10.563  14.662  68.785  1.00  0.00    -0.248 C  
ATOM      4  H2  CYS A   1     -10.422  14.225  70.830  1.00  0.00     0.000 HD 
ATOM      5  C   CYS A   1     -10.644  15.942  67.947  1.00  0.00    -0.300 C  
ATOM      6  O   CYS A   1     -10.358  17.042  68.691  1.00  0.00    -0.306 OA 
ATOM      7  OXT CYS A   1     -10.920  15.988  66.759  1.00  0.00    -0.248 OA 
ENDROOT
BRANCH   3   8
ATOM      8  CB  CYS A   1     -11.812  13.812  68.517  1.00  0.00    -0.370 C  
ATOM      9  SG  CYS A   1     -11.460  12.418  67.393  1.00  0.00    -0.368 SA 
ATOM     10  HG  CYS A   1     -12.591  11.649  67.150  1.00  0.00     0.000 H  
ENDBRANCH   3   8
TORSDOF 1
ENDMDL
MODEL       89
REMARK 921   NORMALIZED FREE ENERGY PREDICTED BY IDOCK:   -2.22 KCAL/MOL
REMARK 922        TOTAL FREE ENERGY PREDICTED BY IDOCK:   -2.35 KCAL/MOL
REMARK 923 INTER-LIGAND FREE ENERGY PREDICTED BY IDOCK:   -2.34 KCAL/MOL
REMARK 924 INTRA-LIGAND FREE ENERGY PREDICTED BY IDOCK:   -0.01 KCAL/MOL
REMARK 927      BINDING AFFINITY PREDICTED BY RF-SCORE:    0.00 PKD
ROOT
ATOM      1  N   CYS A   1     -12.285  10.750  68.445  1.00  0.00    -0.809 NA 
ATOM      2  H1  CYS A   1     -13.157  11.278  68.462  1.00  0.00     0.000 HD 
ATOM      3  CA  CYS A   1     -11.118  11.515  69.006  1.00  0.00    -0.245 C  
ATOM      4  H2  CYS A   1     -12.393   9.854  68.921  1.00  0.00     0.000 HD 
ATOM      5  C   CYS A   1     -10.939  12.796  68.185  1.00  0.00    -0.247 C  
ATOM      6  O   CYS A   1     -11.976  12.986  67.328  1.00  0.00    -0.366 OA 
ATOM      7  OXT CYS A   1      -9.996  13.564  68.278  1.00  0.00    -0.228 OA 
ENDROOT
BRANCH   3   8
ATOM      8  CB  CYS A   1      -9.806  10.721  68.981  1.00  0.00    -0.194 C  
ATOM      9  SG  CYS A   1      -9.718   9.505  70.339  1.00  0.00    -0.255 SA 
ATOM     10  HG  CYS A   1      -8.530   8.786  70.317  1.00  0.00     0.000 H  
ENDBRANCH   3   8
TORSDOF 1
ENDMDL
MODEL       90
REMARK 921   NORMALIZED FREE ENERGY PREDICTED BY IDOCK:   -2.21 KCAL/MOL
REMARK 922        TOTAL FREE ENERGY PREDICTED BY IDOCK:   -2.34 KCAL/MOL
REMARK 923 INTER-LIGAND FREE ENERGY PREDICTED BY IDOCK:   -2.31 KCAL/MOL
REMARK 924 INTRA-LIGAND FREE ENERGY PREDICTED BY IDOCK:   -0.03 KCAL/MOL
REMARK 927      BINDING AFFINITY PREDICTED BY RF-SCORE:    0.00 PKD
ROOT
ATOM      1  N   CYS A   1     -12.439  14.293  66.938  1.00  0.00    -0.543 NA 
ATOM      2  H1  CYS A   1     -12.227  14.546  65.972  1.00  0.00     0.000 HD 
ATOM      3  CA  CYS A   1     -11.437  14.826  67.924  1.00  0.00    -0.342 C  
ATOM      4  H2  CYS A   1     -13.384  14.583  67.189  1.00  0.00     0.000 HD 
ATOM      5  C   CYS A   1     -10.056  14.271  67.557  1.00  0.00    -0.236 C  
ATOM      6  O   CYS A   1     -10.079  13.633  66.358  1.00  0.00    -0.279 OA 
ATOM      7  OXT CYS A   1      -9.050  14.385  68.238  1.00  0.00    -0.180 OA 
ENDROOT
BRANCH   3   8
ATOM      8  CB  CYS A   1     -11.755  14.446  69.375  1.00  0.00    -0.317 C  
ATOM      9  SG  CYS A   1     -11.426  15.823  70.528  1.00  0.00    -0.412 SA 
ATOM     10  HG  CYS A   1     -11.714  15.479  71.843  1.00  0.00     0.000 H  
ENDBRANCH   3   8
TORSDOF 1
ENDMDL
MODEL       91
REMARK 921   NORMALIZED FREE ENERGY PREDICTED BY IDOCK:   -2.19 KCAL/MOL
REMARK 922        TOTAL FREE ENERGY PREDICTED BY IDOCK:   -2.33 KCAL/MOL
REMARK 923 INTER-LIGAND FREE ENERGY PREDICTED BY IDOCK:   -2.29 KCAL/MOL
REMARK 924 INTRA-LIGAND FREE ENERGY PREDICTED BY IDOCK:   -0.04 KCAL/MOL
REMARK 927      BINDING AFFINITY PREDICTED BY RF-SCORE:    0.00 PKD
ROOT
ATOM      1  N   CYS A   1     -11.214  14.918  71.164  1.00  0.00    -0.543 NA 
ATOM      2  H1  CYS A   1     -10.529  15.611  70.860  1.00  0.00     0.000 HD 
ATOM      3  CA  CYS A   1     -11.417  13.809  70.168  1.00  0.00    -0.072 C  
ATOM      4  H2  CYS A   1     -10.969  14.543  72.079  1.00  0.00     0.000 HD 
ATOM      5  C   CYS A   1     -11.887  14.425  68.846  1.00  0.00    -0.320 C  
ATOM      6  O   CYS A   1     -11.799  15.781  68.871  1.00  0.00    -0.393 OA 
ATOM      7  OXT CYS A   1     -12.285  13.795  67.880  1.00  0.00    -0.327 OA 
ENDROOT
BRANCH   3   8
ATOM      8  CB  CYS A   1     -12.447  12.768  70.625  1.00  0.00    -0.246 C  
ATOM      9  SG  CYS A   1     -11.882  11.063  70.302  1.00  0.00    -0.387 SA 
ATOM     10  HG  CYS A   1     -12.814  10.119  70.715  1.00  0.00     0.000 H  
ENDBRANCH   3   8
TORSDOF 1
ENDMDL
MODEL       92
REMARK 921   NORMALIZED FREE ENERGY PREDICTED BY IDOCK:   -2.19 KCAL/MOL
REMARK 922        TOTAL FREE ENERGY PREDICTED BY IDOCK:   -2.32 KCAL/MOL
REMARK 923 INTER-LIGAND FREE ENERGY PREDICTED BY IDOCK:   -2.29 KCAL/MOL
REMARK 924 INTRA-LIGAND FREE ENERGY PREDICTED BY IDOCK:   -0.03 KCAL/MOL
REMARK 927      BINDING AFFINITY PREDICTED BY RF-SCORE:    0.00 PKD
ROOT
ATOM      1  N   CYS A   1     -10.151  10.388  69.862  1.00  0.00    -0.421 NA 
ATOM      2  H1  CYS A   1      -9.950  11.133  70.529  1.00  0.00     0.000 HD 
ATOM      3  CA  CYS A   1     -10.384  10.891  68.464  1.00  0.00    -0.187 C  
ATOM      4  H2  CYS A   1      -9.416   9.682  69.875  1.00  0.00     0.000 HD 
ATOM      5  C   CYS A   1     -11.566  11.866  68.491  1.00  0.00    -0.318 C  
ATOM      6  O   CYS A   1     -11.941  12.157  69.764  1.00  0.00    -0.315 OA 
ATOM      7  OXT CYS A   1     -12.110  12.337  67.506  1.00  0.00    -0.514 OA 
ENDROOT
BRANCH   3   8
ATOM      8  CB  CYS A   1     -10.685   9.772  67.460  1.00  0.00    -0.264 C  
ATOM      9  SG  CYS A   1      -9.842  10.041  65.864  1.00  0.00    -0.271 SA 
ATOM     10  HG  CYS A   1     -10.115   9.026  64.955  1.00  0.00     0.000 H  
ENDBRANCH   3   8
TORSDOF 1
ENDMDL
MODEL       93
REMARK 921   NORMALIZED FREE ENERGY PREDICTED BY IDOCK:   -2.19 KCAL/MOL
REMARK 922        TOTAL FREE ENERGY PREDICTED BY IDOCK:   -2.32 KCAL/MOL
REMARK 923 INTER-LIGAND FREE ENERGY PREDICTED BY IDOCK:   -2.28 KCAL/MOL
REMARK 924 INTRA-LIGAND FREE ENERGY PREDICTED BY IDOCK:   -0.04 KCAL/MOL
REMARK 927      BINDING AFFINITY PREDICTED BY RF-SCORE:    0.00 PKD
ROOT
ATOM      1  N   CYS A   1     -11.486   4.570  65.081  1.00  0.00    -1.109 NA 
ATOM      2  H1  CYS A   1     -12.296   4.569  65.701  1.00  0.00     0.000 HD 
ATOM      3  CA  CYS A   1     -10.177   4.482  65.817  1.00  0.00    -0.265 C  
ATOM      4  H2  CYS A   1     -11.560   3.829  64.385  1.00  0.00     0.000 HD 
ATOM      5  C   CYS A   1     -10.076   5.678  66.770  1.00  0.00    -0.197 C  
ATOM      6  O   CYS A   1     -11.249   6.360  66.836  1.00  0.00    -0.368 OA 
ATOM      7  OXT CYS A   1      -9.081   5.990  67.402  1.00  0.00    -0.109 OA 
ENDROOT
BRANCH   3   8
ATOM      8  CB  CYS A   1      -8.958   4.484  64.886  1.00  0.00    -0.151 C  
ATOM      9  SG  CYS A   1      -7.810   3.116  65.262  1.00  0.00    -0.082 SA 
ATOM     10  HG  CYS A   1      -6.706   3.118  64.419  1.00  0.00     0.000 H  
ENDBRANCH   3   8
TORSDOF 1
ENDMDL
MODEL       94
REMARK 921   NORMALIZED FREE ENERGY PREDICTED BY IDOCK:   -2.17 KCAL/MOL
REMARK 922        TOTAL FREE ENERGY PREDICTED BY IDOCK:   -2.30 KCAL/MOL
REMARK 923 INTER-LIGAND FREE ENERGY PREDICTED BY IDOCK:   -2.29 KCAL/MOL
REMARK 924 INTRA-LIGAND FREE ENERGY PREDICTED BY IDOCK:   -0.01 KCAL/MOL
REMARK 927      BINDING AFFINITY PREDICTED BY RF-SCORE:    0.00 PKD
ROOT
ATOM      1  N   CYS A   1     -11.127  16.640  69.959  1.00  0.00    -0.435 NA 
ATOM      2  H1  CYS A   1     -12.127  16.462  70.059  1.00  0.00     0.000 HD 
ATOM      3  CA  CYS A   1     -10.735  17.049  68.565  1.00  0.00    -0.352 C  
ATOM      4  H2  CYS A   1     -10.812  17.330  70.640  1.00  0.00     0.000 HD 
ATOM      5  C   CYS A   1     -11.139  15.928  67.601  1.00  0.00    -0.266 C  
ATOM      6  O   CYS A   1     -11.900  14.989  68.221  1.00  0.00    -0.327 OA 
ATOM      7  OXT CYS A   1     -10.831  15.872  66.422  1.00  0.00    -0.288 OA 
ENDROOT
BRANCH   3   8
ATOM      8  CB  CYS A   1      -9.233  17.318  68.414  1.00  0.00    -0.268 C  
ATOM      9  SG  CYS A   1      -8.859  19.104  68.390  1.00  0.00    -0.355 SA 
ATOM     10  HG  CYS A   1      -7.498  19.348  68.253  1.00  0.00     0.000 H  
ENDBRANCH   3   8
TORSDOF 1
ENDMDL
MODEL       95
REMARK 921   NORMALIZED FREE ENERGY PREDICTED BY IDOCK:   -2.17 KCAL/MOL
REMARK 922        TOTAL FREE ENERGY PREDICTED BY IDOCK:   -2.30 KCAL/MOL
REMARK 923 INTER-LIGAND FREE ENERGY PREDICTED BY IDOCK:   -2.29 KCAL/MOL
REMARK 924 INTRA-LIGAND FREE ENERGY PREDICTED BY IDOCK:   -0.01 KCAL/MOL
REMARK 927      BINDING AFFINITY PREDICTED BY RF-SCORE:    0.00 PKD
ROOT
ATOM      1  N   CYS A   1     -13.379  14.054  71.322  1.00  0.00    -0.305 NA 
ATOM      2  H1  CYS A   1     -13.321  14.162  72.335  1.00  0.00     0.000 HD 
ATOM      3  CA  CYS A   1     -12.036  14.082  70.645  1.00  0.00    -0.305 C  
ATOM      4  H2  CYS A   1     -13.890  13.207  71.076  1.00  0.00     0.000 HD 
ATOM      5  C   CYS A   1     -11.362  15.421  70.964  1.00  0.00    -0.367 C  
ATOM      6  O   CYS A   1     -12.052  16.112  71.908  1.00  0.00    -0.476 OA 
ATOM      7  OXT CYS A   1     -10.332  15.829  70.451  1.00  0.00    -0.248 OA 
ENDROOT
BRANCH   3   8
ATOM      8  CB  CYS A   1     -12.122  13.919  69.123  1.00  0.00    -0.338 C  
ATOM      9  SG  CYS A   1     -11.911  12.181  68.610  1.00  0.00    -0.254 SA 
ATOM     10  HG  CYS A   1     -11.989  12.033  67.230  1.00  0.00     0.000 H  
ENDBRANCH   3   8
TORSDOF 1
ENDMDL
MODEL       96
REMARK 921   NORMALIZED FREE ENERGY PREDICTED BY IDOCK:   -2.17 KCAL/MOL
REMARK 922        TOTAL FREE ENERGY PREDICTED BY IDOCK:   -2.30 KCAL/MOL
REMARK 923 INTER-LIGAND FREE ENERGY PREDICTED BY IDOCK:   -2.23 KCAL/MOL
REMARK 924 INTRA-LIGAND FREE ENERGY PREDICTED BY IDOCK:   -0.07 KCAL/MOL
REMARK 927      BINDING AFFINITY PREDICTED BY RF-SCORE:    0.00 PKD
ROOT
ATOM      1  N   CYS A   1     -12.869   7.133  70.639  1.00  0.00    -0.578 NA 
ATOM      2  H1  CYS A   1     -13.495   6.379  70.921  1.00  0.00     0.000 HD 
ATOM      3  CA  CYS A   1     -11.504   6.649  70.231  1.00  0.00    -0.391 C  
ATOM      4  H2  CYS A   1     -13.288   7.697  69.901  1.00  0.00     0.000 HD 
ATOM      5  C   CYS A   1     -10.882   5.901  71.415  1.00  0.00    -0.271 C  
ATOM      6  O   CYS A   1     -11.785   5.709  72.412  1.00  0.00    -0.277 OA 
ATOM      7  OXT CYS A   1      -9.727   5.513  71.472  1.00  0.00    -0.151 OA 
ENDROOT
BRANCH   3   8
ATOM      8  CB  CYS A   1     -10.561   7.782  69.808  1.00  0.00    -0.241 C  
ATOM      9  SG  CYS A   1     -10.474   9.102  71.065  1.00  0.00    -0.324 SA 
ATOM     10  HG  CYS A   1      -9.620  10.129  70.681  1.00  0.00     0.000 H  
ENDBRANCH   3   8
TORSDOF 1
ENDMDL
MODEL       97
REMARK 921   NORMALIZED FREE ENERGY PREDICTED BY IDOCK:   -2.16 KCAL/MOL
REMARK 922        TOTAL FREE ENERGY PREDICTED BY IDOCK:   -2.29 KCAL/MOL
REMARK 923 INTER-LIGAND FREE ENERGY PREDICTED BY IDOCK:   -2.25 KCAL/MOL
REMARK 924 INTRA-LIGAND FREE ENERGY PREDICTED BY IDOCK:   -0.04 KCAL/MOL
REMARK 927      BINDING AFFINITY PREDICTED BY RF-SCORE:    0.00 PKD
ROOT
ATOM      1  N   CYS A   1     -10.876  14.389  67.797  1.00  0.00    -0.255 NA 
ATOM      2  H1  CYS A   1     -10.157  13.771  67.422  1.00  0.00     0.000 HD 
ATOM      3  CA  CYS A   1     -11.199  14.117  69.241  1.00  0.00    -0.269 C  
ATOM      4  H2  CYS A   1     -10.620  15.367  67.662  1.00  0.00     0.000 HD 
ATOM      5  C   CYS A   1     -11.678  12.666  69.364  1.00  0.00    -0.325 C  
ATOM      6  O   CYS A   1     -11.493  11.982  68.205  1.00  0.00    -0.274 OA 
ATOM      7  OXT CYS A   1     -12.160  12.169  70.368  1.00  0.00    -0.354 OA 
ENDROOT
BRANCH   3   8
ATOM      8  CB  CYS A   1     -12.280  15.047  69.805  1.00  0.00    -0.285 C  
ATOM      9  SG  CYS A   1     -11.738  15.869  71.342  1.00  0.00    -0.489 SA 
ATOM     10  HG  CYS A   1     -12.717  16.711  71.853  1.00  0.00     0.000 H  
ENDBRANCH   3   8
TORSDOF 1
ENDMDL
MODEL       98
REMARK 921   NORMALIZED FREE ENERGY PREDICTED BY IDOCK:   -2.15 KCAL/MOL
REMARK 922        TOTAL FREE ENERGY PREDICTED BY IDOCK:   -2.28 KCAL/MOL
REMARK 923 INTER-LIGAND FREE ENERGY PREDICTED BY IDOCK:   -2.25 KCAL/MOL
REMARK 924 INTRA-LIGAND FREE ENERGY PREDICTED BY IDOCK:   -0.03 KCAL/MOL
REMARK 927      BINDING AFFINITY PREDICTED BY RF-SCORE:    0.00 PKD
ROOT
ATOM      1  N   CYS A   1     -10.363  10.471  70.058  1.00  0.00    -0.439 NA 
ATOM      2  H1  CYS A   1      -9.632  10.492  69.347  1.00  0.00     0.000 HD 
ATOM      3  CA  CYS A   1     -10.392   9.186  70.840  1.00  0.00    -0.280 C  
ATOM      4  H2  CYS A   1     -10.285  11.273  70.683  1.00  0.00     0.000 HD 
ATOM      5  C   CYS A   1     -10.618   8.029  69.860  1.00  0.00    -0.242 C  
ATOM      6  O   CYS A   1     -10.530   8.446  68.570  1.00  0.00    -0.208 OA 
ATOM      7  OXT CYS A   1     -10.842   6.873  70.179  1.00  0.00    -0.239 OA 
ENDROOT
BRANCH   3   8
ATOM      8  CB  CYS A   1     -11.491   9.154  71.909  1.00  0.00    -0.353 C  
ATOM      9  SG  CYS A   1     -12.901  10.226  71.471  1.00  0.00    -0.488 SA 
ATOM     10  HG  CYS A   1     -13.896  10.196  72.441  1.00  0.00     0.000 H  
ENDBRANCH   3   8
TORSDOF 1
ENDMDL
MODEL       99
REMARK 921   NORMALIZED FREE ENERGY PREDICTED BY IDOCK:   -2.15 KCAL/MOL
REMARK 922        TOTAL FREE ENERGY PREDICTED BY IDOCK:   -2.28 KCAL/MOL
REMARK 923 INTER-LIGAND FREE ENERGY PREDICTED BY IDOCK:   -2.21 KCAL/MOL
REMARK 924 INTRA-LIGAND FREE ENERGY PREDICTED BY IDOCK:   -0.07 KCAL/MOL
REMARK 927      BINDING AFFINITY PREDICTED BY RF-SCORE:    0.00 PKD
ROOT
ATOM      1  N   CYS A   1     -11.340   8.043  69.760  1.00  0.00    -0.452 NA 
ATOM      2  H1  CYS A   1     -12.016   8.749  70.052  1.00  0.00     0.000 HD 
ATOM      3  CA  CYS A   1     -11.681   6.660  70.245  1.00  0.00    -0.371 C  
ATOM      4  H2  CYS A   1     -11.220   8.052  68.748  1.00  0.00     0.000 HD 
ATOM      5  C   CYS A   1     -11.744   6.686  71.776  1.00  0.00    -0.318 C  
ATOM      6  O   CYS A   1     -11.676   7.956  72.255  1.00  0.00    -0.313 OA 
ATOM      7  OXT CYS A   1     -11.848   5.703  72.492  1.00  0.00    -0.282 OA 
ENDROOT
BRANCH   3   8
ATOM      8  CB  CYS A   1     -10.666   5.598  69.807  1.00  0.00    -0.331 C  
ATOM      9  SG  CYS A   1      -8.963   6.042  70.288  1.00  0.00    -0.149 SA 
ATOM     10  HG  CYS A   1      -8.043   5.080  69.891  1.00  0.00     0.000 H  
ENDBRANCH   3   8
TORSDOF 1
ENDMDL
MODEL      100
REMARK 921   NORMALIZED FREE ENERGY PREDICTED BY IDOCK:   -2.14 KCAL/MOL
REMARK 922        TOTAL FREE ENERGY PREDICTED BY IDOCK:   -2.27 KCAL/MOL
REMARK 923 INTER-LIGAND FREE ENERGY PREDICTED BY IDOCK:   -2.24 KCAL/MOL
REMARK 924 INTRA-LIGAND FREE ENERGY PREDICTED BY IDOCK:   -0.03 KCAL/MOL
REMARK 927      BINDING AFFINITY PREDICTED BY RF-SCORE:    0.00 PKD
ROOT
ATOM      1  N   CYS A   1      -8.701  16.023  68.181  1.00  0.00    -0.171 NA 
ATOM      2  H1  CYS A   1      -7.773  16.417  68.027  1.00  0.00     0.000 HD 
ATOM      3  CA  CYS A   1      -9.569  16.049  66.953  1.00  0.00    -0.226 C  
ATOM      4  H2  CYS A   1      -8.635  15.077  68.558  1.00  0.00     0.000 HD 
ATOM      5  C   CYS A   1      -9.717  17.505  66.497  1.00  0.00    -0.295 C  
ATOM      6  O   CYS A   1      -8.885  18.329  67.186  1.00  0.00    -0.252 OA 
ATOM      7  OXT CYS A   1     -10.475  17.893  65.623  1.00  0.00    -0.610 OA 
ENDROOT
BRANCH   3   8
ATOM      8  CB  CYS A   1     -10.964  15.456  67.184  1.00  0.00    -0.317 C  
ATOM      9  SG  CYS A   1     -11.474  15.574  68.932  1.00  0.00    -0.372 SA 
ATOM     10  HG  CYS A   1     -12.738  15.036  69.141  1.00  0.00     0.000 H  
ENDBRANCH   3   8
TORSDOF 1
ENDMDL
MODEL      101
REMARK 921   NORMALIZED FREE ENERGY PREDICTED BY IDOCK:   -2.10 KCAL/MOL
REMARK 922        TOTAL FREE ENERGY PREDICTED BY IDOCK:   -2.23 KCAL/MOL
REMARK 923 INTER-LIGAND FREE ENERGY PREDICTED BY IDOCK:   -2.23 KCAL/MOL
REMARK 924 INTRA-LIGAND FREE ENERGY PREDICTED BY IDOCK:   -0.00 KCAL/MOL
REMARK 927      BINDING AFFINITY PREDICTED BY RF-SCORE:    0.00 PKD
ROOT
ATOM      1  N   CYS A   1     -10.942  13.464  69.410  1.00  0.00    -0.440 NA 
ATOM      2  H1  CYS A   1     -10.246  12.853  69.837  1.00  0.00     0.000 HD 
ATOM      3  CA  CYS A   1     -10.836  13.527  67.911  1.00  0.00    -0.247 C  
ATOM      4  H2  CYS A   1     -11.883  13.197  69.696  1.00  0.00     0.000 HD 
ATOM      5  C   CYS A   1      -9.437  14.035  67.545  1.00  0.00    -0.221 C  
ATOM      6  O   CYS A   1      -8.630  14.096  68.636  1.00  0.00    -0.171 OA 
ATOM      7  OXT CYS A   1      -9.074  14.345  66.422  1.00  0.00    -0.243 OA 
ENDROOT
BRANCH   3   8
ATOM      8  CB  CYS A   1     -11.882  14.446  67.268  1.00  0.00    -0.405 C  
ATOM      9  SG  CYS A   1     -12.451  13.809  65.655  1.00  0.00    -0.499 SA 
ATOM     10  HG  CYS A   1     -13.399  14.641  65.073  1.00  0.00     0.000 H  
ENDBRANCH   3   8
TORSDOF 1
ENDMDL
MODEL      102
REMARK 921   NORMALIZED FREE ENERGY PREDICTED BY IDOCK:   -2.09 KCAL/MOL
REMARK 922        TOTAL FREE ENERGY PREDICTED BY IDOCK:   -2.21 KCAL/MOL
REMARK 923 INTER-LIGAND FREE ENERGY PREDICTED BY IDOCK:   -2.21 KCAL/MOL
REMARK 924 INTRA-LIGAND FREE ENERGY PREDICTED BY IDOCK:   -0.01 KCAL/MOL
REMARK 927      BINDING AFFINITY PREDICTED BY RF-SCORE:    0.00 PKD
ROOT
ATOM      1  N   CYS A   1      -9.293  16.591  67.016  1.00  0.00    -0.224 NA 
ATOM      2  H1  CYS A   1      -9.327  17.592  67.211  1.00  0.00     0.000 HD 
ATOM      3  CA  CYS A   1     -10.615  15.903  67.217  1.00  0.00    -0.314 C  
ATOM      4  H2  CYS A   1      -8.932  16.416  66.079  1.00  0.00     0.000 HD 
ATOM      5  C   CYS A   1     -11.053  16.111  68.671  1.00  0.00    -0.356 C  
ATOM      6  O   CYS A   1     -10.252  17.005  69.308  1.00  0.00    -0.291 OA 
ATOM      7  OXT CYS A   1     -12.002  15.560  69.205  1.00  0.00    -0.348 OA 
ENDROOT
BRANCH   3   8
ATOM      8  CB  CYS A   1     -10.565  14.398  66.924  1.00  0.00    -0.278 C  
ATOM      9  SG  CYS A   1     -10.849  14.037  65.158  1.00  0.00    -0.394 SA 
ATOM     10  HG  CYS A   1     -10.803  12.674  64.892  1.00  0.00     0.000 H  
ENDBRANCH   3   8
TORSDOF 1
ENDMDL
MODEL      103
REMARK 921   NORMALIZED FREE ENERGY PREDICTED BY IDOCK:   -2.06 KCAL/MOL
REMARK 922        TOTAL FREE ENERGY PREDICTED BY IDOCK:   -2.19 KCAL/MOL
REMARK 923 INTER-LIGAND FREE ENERGY PREDICTED BY IDOCK:   -2.17 KCAL/MOL
REMARK 924 INTRA-LIGAND FREE ENERGY PREDICTED BY IDOCK:   -0.02 KCAL/MOL
REMARK 927      BINDING AFFINITY PREDICTED BY RF-SCORE:    0.00 PKD
ROOT
ATOM      1  N   CYS A   1     -10.186  10.692  66.496  1.00  0.00    -0.226 NA 
ATOM      2  H1  CYS A   1     -10.340   9.735  66.178  1.00  0.00     0.000 HD 
ATOM      3  CA  CYS A   1     -10.735  11.726  65.551  1.00  0.00    -0.279 C  
ATOM      4  H2  CYS A   1     -10.558  10.827  67.436  1.00  0.00     0.000 HD 
ATOM      5  C   CYS A   1     -10.062  11.541  64.187  1.00  0.00    -0.307 C  
ATOM      6  O   CYS A   1      -9.325  10.400  64.148  1.00  0.00    -0.228 OA 
ATOM      7  OXT CYS A   1     -10.167  12.305  63.242  1.00  0.00    -0.402 OA 
ENDROOT
BRANCH   3   8
ATOM      8  CB  CYS A   1     -10.504  13.165  66.028  1.00  0.00    -0.284 C  
ATOM      9  SG  CYS A   1     -12.031  13.920  66.683  1.00  0.00    -0.447 SA 
ATOM     10  HG  CYS A   1     -11.822  15.224  67.115  1.00  0.00     0.000 H  
ENDBRANCH   3   8
TORSDOF 1
ENDMDL
MODEL      104
REMARK 921   NORMALIZED FREE ENERGY PREDICTED BY IDOCK:   -2.04 KCAL/MOL
REMARK 922        TOTAL FREE ENERGY PREDICTED BY IDOCK:   -2.17 KCAL/MOL
REMARK 923 INTER-LIGAND FREE ENERGY PREDICTED BY IDOCK:   -2.10 KCAL/MOL
REMARK 924 INTRA-LIGAND FREE ENERGY PREDICTED BY IDOCK:   -0.06 KCAL/MOL
REMARK 927      BINDING AFFINITY PREDICTED BY RF-SCORE:    0.00 PKD
ROOT
ATOM      1  N   CYS A   1     -12.246  14.197  65.382  1.00  0.00    -0.415 NA 
ATOM      2  H1  CYS A   1     -12.942  13.535  65.726  1.00  0.00     0.000 HD 
ATOM      3  CA  CYS A   1     -10.857  13.910  65.881  1.00  0.00    -0.287 C  
ATOM      4  H2  CYS A   1     -12.263  14.244  64.364  1.00  0.00     0.000 HD 
ATOM      5  C   CYS A   1     -10.873  13.959  67.413  1.00  0.00    -0.285 C  
ATOM      6  O   CYS A   1     -12.141  14.044  67.894  1.00  0.00    -0.363 OA 
ATOM      7  OXT CYS A   1      -9.885  13.919  68.127  1.00  0.00    -0.226 OA 
ENDROOT
BRANCH   3   8
ATOM      8  CB  CYS A   1      -9.810  14.905  65.364  1.00  0.00    -0.268 C  
ATOM      9  SG  CYS A   1     -10.263  16.632  65.744  1.00  0.00    -0.260 SA 
ATOM     10  HG  CYS A   1      -9.315  17.533  65.276  1.00  0.00     0.000 H  
ENDBRANCH   3   8
TORSDOF 1
ENDMDL
MODEL      105
REMARK 921   NORMALIZED FREE ENERGY PREDICTED BY IDOCK:   -2.04 KCAL/MOL
REMARK 922        TOTAL FREE ENERGY PREDICTED BY IDOCK:   -2.16 KCAL/MOL
REMARK 923 INTER-LIGAND FREE ENERGY PREDICTED BY IDOCK:   -2.16 KCAL/MOL
REMARK 924 INTRA-LIGAND FREE ENERGY PREDICTED BY IDOCK:   -0.00 KCAL/MOL
REMARK 927      BINDING AFFINITY PREDICTED BY RF-SCORE:    0.00 PKD
ROOT
ATOM      1  N   CYS A   1     -11.471   6.561  66.743  1.00  0.00    -0.760 NA 
ATOM      2  H1  CYS A   1     -11.499   6.875  65.773  1.00  0.00     0.000 HD 
ATOM      3  CA  CYS A   1     -10.209   5.820  67.090  1.00  0.00    -0.207 C  
ATOM      4  H2  CYS A   1     -11.619   7.343  67.382  1.00  0.00     0.000 HD 
ATOM      5  C   CYS A   1     -10.097   4.599  66.169  1.00  0.00    -0.266 C  
ATOM      6  O   CYS A   1     -11.033   4.632  65.186  1.00  0.00    -0.182 OA 
ATOM      7  OXT CYS A   1      -9.274   3.706  66.284  1.00  0.00    -0.152 OA 
ENDROOT
BRANCH   3   8
ATOM      8  CB  CYS A   1     -10.166   5.348  68.548  1.00  0.00    -0.169 C  
ATOM      9  SG  CYS A   1     -11.106   6.456  69.652  1.00  0.00    -0.423 SA 
ATOM     10  HG  CYS A   1     -11.067   6.028  70.973  1.00  0.00     0.000 H  
ENDBRANCH   3   8
TORSDOF 1
ENDMDL
MODEL      106
REMARK 921   NORMALIZED FREE ENERGY PREDICTED BY IDOCK:   -2.04 KCAL/MOL
REMARK 922        TOTAL FREE ENERGY PREDICTED BY IDOCK:   -2.16 KCAL/MOL
REMARK 923 INTER-LIGAND FREE ENERGY PREDICTED BY IDOCK:   -2.12 KCAL/MOL
REMARK 924 INTRA-LIGAND FREE ENERGY PREDICTED BY IDOCK:   -0.04 KCAL/MOL
REMARK 927      BINDING AFFINITY PREDICTED BY RF-SCORE:    0.00 PKD
ROOT
ATOM      1  N   CYS A   1     -10.594   7.553  70.939  1.00  0.00    -0.218 NA 
ATOM      2  H1  CYS A   1     -10.074   7.577  70.062  1.00  0.00     0.000 HD 
ATOM      3  CA  CYS A   1     -11.831   8.409  70.918  1.00  0.00    -0.217 C  
ATOM      4  H2  CYS A   1     -10.821   6.594  71.200  1.00  0.00     0.000 HD 
ATOM      5  C   CYS A   1     -11.414   9.854  70.627  1.00  0.00    -0.334 C  
ATOM      6  O   CYS A   1     -10.104   9.932  70.276  1.00  0.00    -0.263 OA 
ATOM      7  OXT CYS A   1     -12.152  10.824  70.689  1.00  0.00    -0.308 OA 
ENDROOT
BRANCH   3   8
ATOM      8  CB  CYS A   1     -12.614   8.373  72.237  1.00  0.00    -0.349 C  
ATOM      9  SG  CYS A   1     -14.411   8.220  71.958  1.00  0.00    -0.433 SA 
ATOM     10  HG  CYS A   1     -15.120   8.188  73.153  1.00  0.00     0.000 H  
ENDBRANCH   3   8
TORSDOF 1
ENDMDL
MODEL      107
REMARK 921   NORMALIZED FREE ENERGY PREDICTED BY IDOCK:   -2.03 KCAL/MOL
REMARK 922        TOTAL FREE ENERGY PREDICTED BY IDOCK:   -2.16 KCAL/MOL
REMARK 923 INTER-LIGAND FREE ENERGY PREDICTED BY IDOCK:   -2.09 KCAL/MOL
REMARK 924 INTRA-LIGAND FREE ENERGY PREDICTED BY IDOCK:   -0.07 KCAL/MOL
REMARK 927      BINDING AFFINITY PREDICTED BY RF-SCORE:    0.00 PKD
ROOT
ATOM      1  N   CYS A   1      -9.945  17.887  67.313  1.00  0.00    -0.312 NA 
ATOM      2  H1  CYS A   1     -10.678  18.588  67.415  1.00  0.00     0.000 HD 
ATOM      3  CA  CYS A   1      -8.978  17.868  68.466  1.00  0.00    -0.286 C  
ATOM      4  H2  CYS A   1     -10.346  16.961  67.162  1.00  0.00     0.000 HD 
ATOM      5  C   CYS A   1      -8.330  19.253  68.576  1.00  0.00    -0.366 C  
ATOM      6  O   CYS A   1      -8.936  20.151  67.757  1.00  0.00    -0.321 OA 
ATOM      7  OXT CYS A   1      -7.395  19.534  69.306  1.00  0.00    -0.355 OA 
ENDROOT
BRANCH   3   8
ATOM      8  CB  CYS A   1      -7.875  16.814  68.313  1.00  0.00    -0.194 C  
ATOM      9  SG  CYS A   1      -7.052  16.918  66.688  1.00  0.00    -0.255 SA 
ATOM     10  HG  CYS A   1      -6.052  15.963  66.550  1.00  0.00     0.000 H  
ENDBRANCH   3   8
TORSDOF 1
ENDMDL
MODEL      108
REMARK 921   NORMALIZED FREE ENERGY PREDICTED BY IDOCK:   -2.03 KCAL/MOL
REMARK 922        TOTAL FREE ENERGY PREDICTED BY IDOCK:   -2.16 KCAL/MOL
REMARK 923 INTER-LIGAND FREE ENERGY PREDICTED BY IDOCK:   -2.10 KCAL/MOL
REMARK 924 INTRA-LIGAND FREE ENERGY PREDICTED BY IDOCK:   -0.06 KCAL/MOL
REMARK 927      BINDING AFFINITY PREDICTED BY RF-SCORE:    0.00 PKD
ROOT
ATOM      1  N   CYS A   1     -12.451   7.126  70.470  1.00  0.00    -0.614 NA 
ATOM      2  H1  CYS A   1     -12.809   6.634  69.651  1.00  0.00     0.000 HD 
ATOM      3  CA  CYS A   1     -11.084   7.717  70.256  1.00  0.00    -0.234 C  
ATOM      4  H2  CYS A   1     -13.109   7.840  70.781  1.00  0.00     0.000 HD 
ATOM      5  C   CYS A   1     -10.118   6.584  69.896  1.00  0.00    -0.173 C  
ATOM      6  O   CYS A   1     -10.780   5.418  69.676  1.00  0.00    -0.308 OA 
ATOM      7  OXT CYS A   1      -8.906   6.696  69.806  1.00  0.00    -0.142 OA 
ENDROOT
BRANCH   3   8
ATOM      8  CB  CYS A   1     -10.546   8.458  71.486  1.00  0.00    -0.241 C  
ATOM      9  SG  CYS A   1     -10.877   7.545  73.031  1.00  0.00    -0.384 SA 
ATOM     10  HG  CYS A   1     -10.389   8.216  74.146  1.00  0.00     0.000 H  
ENDBRANCH   3   8
TORSDOF 1
ENDMDL
MODEL      109
REMARK 921   NORMALIZED FREE ENERGY PREDICTED BY IDOCK:   -2.03 KCAL/MOL
REMARK 922        TOTAL FREE ENERGY PREDICTED BY IDOCK:   -2.15 KCAL/MOL
REMARK 923 INTER-LIGAND FREE ENERGY PREDICTED BY IDOCK:   -2.11 KCAL/MOL
REMARK 924 INTRA-LIGAND FREE ENERGY PREDICTED BY IDOCK:   -0.04 KCAL/MOL
REMARK 927      BINDING AFFINITY PREDICTED BY RF-SCORE:    0.00 PKD
ROOT
ATOM      1  N   CYS A   1     -11.427   4.490  65.069  1.00  0.00    -1.108 NA 
ATOM      2  H1  CYS A   1     -11.878   4.808  64.211  1.00  0.00     0.000 HD 
ATOM      3  CA  CYS A   1     -10.028   3.985  64.851  1.00  0.00    -0.205 C  
ATOM      4  H2  CYS A   1     -11.442   5.223  65.778  1.00  0.00     0.000 HD 
ATOM      5  C   CYS A   1     -10.083   2.818  63.860  1.00  0.00    -0.152 C  
ATOM      6  O   CYS A   1     -11.319   2.693  63.308  1.00  0.00    -0.302 OA 
ATOM      7  OXT CYS A   1      -9.147   2.087  63.582  1.00  0.00    -0.092 OA 
ENDROOT
BRANCH   3   8
ATOM      8  CB  CYS A   1      -9.349   3.508  66.142  1.00  0.00    -0.160 C  
ATOM      9  SG  CYS A   1      -7.718   4.290  66.383  1.00  0.00    -0.094 SA 
ATOM     10  HG  CYS A   1      -7.103   3.858  67.552  1.00  0.00     0.000 H  
ENDBRANCH   3   8
TORSDOF 1
ENDMDL
MODEL      110
REMARK 921   NORMALIZED FREE ENERGY PREDICTED BY IDOCK:   -2.01 KCAL/MOL
REMARK 922        TOTAL FREE ENERGY PREDICTED BY IDOCK:   -2.13 KCAL/MOL
REMARK 923 INTER-LIGAND FREE ENERGY PREDICTED BY IDOCK:   -2.09 KCAL/MOL
REMARK 924 INTRA-LIGAND FREE ENERGY PREDICTED BY IDOCK:   -0.04 KCAL/MOL
REMARK 927      BINDING AFFINITY PREDICTED BY RF-SCORE:    0.00 PKD
ROOT
ATOM      1  N   CYS A   1     -11.525  10.364  67.553  1.00  0.00    -0.538 NA 
ATOM      2  H1  CYS A   1     -10.997   9.501  67.430  1.00  0.00     0.000 HD 
ATOM      3  CA  CYS A   1     -10.974  11.516  66.759  1.00  0.00    -0.294 C  
ATOM      4  H2  CYS A   1     -12.512  10.218  67.342  1.00  0.00     0.000 HD 
ATOM      5  C   CYS A   1      -9.524  11.755  67.195  1.00  0.00    -0.175 C  
ATOM      6  O   CYS A   1      -9.081  10.762  68.010  1.00  0.00    -0.143 OA 
ATOM      7  OXT CYS A   1      -8.837  12.705  66.859  1.00  0.00    -0.210 OA 
ENDROOT
BRANCH   3   8
ATOM      8  CB  CYS A   1     -11.769  12.814  66.943  1.00  0.00    -0.380 C  
ATOM      9  SG  CYS A   1     -11.794  13.357  68.686  1.00  0.00    -0.347 SA 
ATOM     10  HG  CYS A   1     -12.514  14.533  68.853  1.00  0.00     0.000 H  
ENDBRANCH   3   8
TORSDOF 1
ENDMDL
MODEL      111
REMARK 921   NORMALIZED FREE ENERGY PREDICTED BY IDOCK:   -2.01 KCAL/MOL
REMARK 922        TOTAL FREE ENERGY PREDICTED BY IDOCK:   -2.13 KCAL/MOL
REMARK 923 INTER-LIGAND FREE ENERGY PREDICTED BY IDOCK:   -2.08 KCAL/MOL
REMARK 924 INTRA-LIGAND FREE ENERGY PREDICTED BY IDOCK:   -0.06 KCAL/MOL
REMARK 927      BINDING AFFINITY PREDICTED BY RF-SCORE:    0.00 PKD
ROOT
ATOM      1  N   CYS A   1     -12.512  14.199  67.026  1.00  0.00    -0.548 NA 
ATOM      2  H1  CYS A   1     -13.287  14.791  67.325  1.00  0.00     0.000 HD 
ATOM      3  CA  CYS A   1     -11.701  13.660  68.172  1.00  0.00    -0.357 C  
ATOM      4  H2  CYS A   1     -12.844  13.442  66.429  1.00  0.00     0.000 HD 
ATOM      5  C   CYS A   1     -11.143  14.843  68.969  1.00  0.00    -0.250 C  
ATOM      6  O   CYS A   1     -11.682  16.019  68.556  1.00  0.00    -0.375 OA 
ATOM      7  OXT CYS A   1     -10.323  14.760  69.869  1.00  0.00    -0.101 OA 
ENDROOT
BRANCH   3   8
ATOM      8  CB  CYS A   1     -10.536  12.769  67.723  1.00  0.00    -0.221 C  
ATOM      9  SG  CYS A   1      -9.401  13.647  66.596  1.00  0.00    -0.223 SA 
ATOM     10  HG  CYS A   1      -8.346  12.840  66.189  1.00  0.00     0.000 H  
ENDBRANCH   3   8
TORSDOF 1
ENDMDL
MODEL      112
REMARK 921   NORMALIZED FREE ENERGY PREDICTED BY IDOCK:   -1.98 KCAL/MOL
REMARK 922        TOTAL FREE ENERGY PREDICTED BY IDOCK:   -2.10 KCAL/MOL
REMARK 923 INTER-LIGAND FREE ENERGY PREDICTED BY IDOCK:   -2.04 KCAL/MOL
REMARK 924 INTRA-LIGAND FREE ENERGY PREDICTED BY IDOCK:   -0.06 KCAL/MOL
REMARK 927      BINDING AFFINITY PREDICTED BY RF-SCORE:    0.00 PKD
ROOT
ATOM      1  N   CYS A   1     -11.340  14.835  65.932  1.00  0.00    -0.340 NA 
ATOM      2  H1  CYS A   1     -11.886  14.036  66.255  1.00  0.00     0.000 HD 
ATOM      3  CA  CYS A   1     -10.054  15.020  66.689  1.00  0.00    -0.261 C  
ATOM      4  H2  CYS A   1     -11.165  14.773  64.930  1.00  0.00     0.000 HD 
ATOM      5  C   CYS A   1     -10.388  15.214  68.172  1.00  0.00    -0.239 C  
ATOM      6  O   CYS A   1     -11.702  14.971  68.421  1.00  0.00    -0.324 OA 
ATOM      7  OXT CYS A   1      -9.590  15.538  69.036  1.00  0.00    -0.206 OA 
ENDROOT
BRANCH   3   8
ATOM      8  CB  CYS A   1      -9.233  16.221  66.203  1.00  0.00    -0.341 C  
ATOM      9  SG  CYS A   1     -10.192  17.773  66.266  1.00  0.00    -0.327 SA 
ATOM     10  HG  CYS A   1      -9.449  18.861  65.826  1.00  0.00     0.000 H  
ENDBRANCH   3   8
TORSDOF 1
ENDMDL
MODEL      113
REMARK 921   NORMALIZED FREE ENERGY PREDICTED BY IDOCK:   -1.97 KCAL/MOL
REMARK 922        TOTAL FREE ENERGY PREDICTED BY IDOCK:   -2.09 KCAL/MOL
REMARK 923 INTER-LIGAND FREE ENERGY PREDICTED BY IDOCK:   -2.03 KCAL/MOL
REMARK 924 INTRA-LIGAND FREE ENERGY PREDICTED BY IDOCK:   -0.06 KCAL/MOL
REMARK 927      BINDING AFFINITY PREDICTED BY RF-SCORE:    0.00 PKD
ROOT
ATOM      1  N   CYS A   1      -9.805   6.230  70.723  1.00  0.00    -0.183 NA 
ATOM      2  H1  CYS A   1      -9.825   6.500  69.740  1.00  0.00     0.000 HD 
ATOM      3  CA  CYS A   1     -11.176   6.037  71.312  1.00  0.00    -0.258 C  
ATOM      4  H2  CYS A   1      -9.232   5.398  70.860  1.00  0.00     0.000 HD 
ATOM      5  C   CYS A   1     -11.952   7.351  71.173  1.00  0.00    -0.320 C  
ATOM      6  O   CYS A   1     -11.283   8.243  70.397  1.00  0.00    -0.263 OA 
ATOM      7  OXT CYS A   1     -13.037   7.583  71.681  1.00  0.00    -0.345 OA 
ENDROOT
BRANCH   3   8
ATOM      8  CB  CYS A   1     -11.147   5.631  72.791  1.00  0.00    -0.289 C  
ATOM      9  SG  CYS A   1     -10.227   6.834  73.811  1.00  0.00    -0.374 SA 
ATOM     10  HG  CYS A   1     -10.201   6.466  75.150  1.00  0.00     0.000 H  
ENDBRANCH   3   8
TORSDOF 1
ENDMDL
MODEL      114
REMARK 921   NORMALIZED FREE ENERGY PREDICTED BY IDOCK:   -1.97 KCAL/MOL
REMARK 922        TOTAL FREE ENERGY PREDICTED BY IDOCK:   -2.09 KCAL/MOL
REMARK 923 INTER-LIGAND FREE ENERGY PREDICTED BY IDOCK:   -2.07 KCAL/MOL
REMARK 924 INTRA-LIGAND FREE ENERGY PREDICTED BY IDOCK:   -0.02 KCAL/MOL
REMARK 927      BINDING AFFINITY PREDICTED BY RF-SCORE:    0.00 PKD
ROOT
ATOM      1  N   CYS A   1      -9.375   6.849  71.678  1.00  0.00    -0.154 NA 
ATOM      2  H1  CYS A   1      -9.055   7.590  72.302  1.00  0.00     0.000 HD 
ATOM      3  CA  CYS A   1     -10.581   7.236  70.867  1.00  0.00    -0.220 C  
ATOM      4  H2  CYS A   1      -8.618   6.532  71.072  1.00  0.00     0.000 HD 
ATOM      5  C   CYS A   1     -11.716   7.598  71.831  1.00  0.00    -0.289 C  
ATOM      6  O   CYS A   1     -11.275   7.665  73.115  1.00  0.00    -0.391 OA 
ATOM      7  OXT CYS A   1     -12.872   7.811  71.506  1.00  0.00    -0.326 OA 
ENDROOT
BRANCH   3   8
ATOM      8  CB  CYS A   1     -11.062   6.123  69.928  1.00  0.00    -0.410 C  
ATOM      9  SG  CYS A   1     -10.611   6.453  68.191  1.00  0.00    -0.285 SA 
ATOM     10  HG  CYS A   1     -11.048   5.444  67.341  1.00  0.00     0.000 H  
ENDBRANCH   3   8
TORSDOF 1
ENDMDL
MODEL      115
REMARK 921   NORMALIZED FREE ENERGY PREDICTED BY IDOCK:   -1.95 KCAL/MOL
REMARK 922        TOTAL FREE ENERGY PREDICTED BY IDOCK:   -2.07 KCAL/MOL
REMARK 923 INTER-LIGAND FREE ENERGY PREDICTED BY IDOCK:   -2.00 KCAL/MOL
REMARK 924 INTRA-LIGAND FREE ENERGY PREDICTED BY IDOCK:   -0.07 KCAL/MOL
REMARK 927      BINDING AFFINITY PREDICTED BY RF-SCORE:    0.00 PKD
ROOT
ATOM      1  N   CYS A   1     -10.923   8.041  67.340  1.00  0.00    -0.495 NA 
ATOM      2  H1  CYS A   1     -11.619   8.618  67.811  1.00  0.00     0.000 HD 
ATOM      3  CA  CYS A   1     -11.016   6.585  67.703  1.00  0.00    -0.337 C  
ATOM      4  H2  CYS A   1     -10.973   8.166  66.329  1.00  0.00     0.000 HD 
ATOM      5  C   CYS A   1     -10.828   6.451  69.218  1.00  0.00    -0.327 C  
ATOM      6  O   CYS A   1     -10.831   7.665  69.828  1.00  0.00    -0.249 OA 
ATOM      7  OXT CYS A   1     -10.697   5.398  69.820  1.00  0.00    -0.315 OA 
ENDROOT
BRANCH   3   8
ATOM      8  CB  CYS A   1      -9.970   5.716  66.994  1.00  0.00    -0.169 C  
ATOM      9  SG  CYS A   1      -8.296   6.432  67.111  1.00  0.00    -0.112 SA 
ATOM     10  HG  CYS A   1      -7.348   5.645  66.468  1.00  0.00     0.000 H  
ENDBRANCH   3   8
TORSDOF 1
ENDMDL
MODEL      116
REMARK 921   NORMALIZED FREE ENERGY PREDICTED BY IDOCK:   -1.94 KCAL/MOL
REMARK 922        TOTAL FREE ENERGY PREDICTED BY IDOCK:   -2.05 KCAL/MOL
REMARK 923 INTER-LIGAND FREE ENERGY PREDICTED BY IDOCK:   -2.05 KCAL/MOL
REMARK 924 INTRA-LIGAND FREE ENERGY PREDICTED BY IDOCK:   -0.00 KCAL/MOL
REMARK 927      BINDING AFFINITY PREDICTED BY RF-SCORE:    0.00 PKD
ROOT
ATOM      1  N   CYS A   1      -9.570  18.218  68.338  1.00  0.00    -0.320 NA 
ATOM      2  H1  CYS A   1     -10.464  18.516  68.729  1.00  0.00     0.000 HD 
ATOM      3  CA  CYS A   1      -9.703  17.547  66.999  1.00  0.00    -0.284 C  
ATOM      4  H2  CYS A   1      -8.918  19.000  68.288  1.00  0.00     0.000 HD 
ATOM      5  C   CYS A   1     -10.608  16.320  67.161  1.00  0.00    -0.291 C  
ATOM      6  O   CYS A   1     -11.189  16.290  68.388  1.00  0.00    -0.354 OA 
ATOM      7  OXT CYS A   1     -10.800  15.472  66.306  1.00  0.00    -0.313 OA 
ENDROOT
BRANCH   3   8
ATOM      8  CB  CYS A   1      -8.359  17.099  66.411  1.00  0.00    -0.280 C  
ATOM      9  SG  CYS A   1      -7.573  15.796  67.418  1.00  0.00    -0.211 SA 
ATOM     10  HG  CYS A   1      -6.356  15.390  66.885  1.00  0.00     0.000 H  
ENDBRANCH   3   8
TORSDOF 1
ENDMDL
MODEL      117
REMARK 921   NORMALIZED FREE ENERGY PREDICTED BY IDOCK:   -1.93 KCAL/MOL
REMARK 922        TOTAL FREE ENERGY PREDICTED BY IDOCK:   -2.05 KCAL/MOL
REMARK 923 INTER-LIGAND FREE ENERGY PREDICTED BY IDOCK:   -2.02 KCAL/MOL
REMARK 924 INTRA-LIGAND FREE ENERGY PREDICTED BY IDOCK:   -0.03 KCAL/MOL
REMARK 927      BINDING AFFINITY PREDICTED BY RF-SCORE:    0.00 PKD
ROOT
ATOM      1  N   CYS A   1     -10.520  12.975  69.149  1.00  0.00    -0.437 NA 
ATOM      2  H1  CYS A   1      -9.576  13.182  68.820  1.00  0.00     0.000 HD 
ATOM      3  CA  CYS A   1     -10.821  11.502  69.195  1.00  0.00    -0.195 C  
ATOM      4  H2  CYS A   1     -10.691  13.408  70.056  1.00  0.00     0.000 HD 
ATOM      5  C   CYS A   1     -10.650  10.928  67.784  1.00  0.00    -0.217 C  
ATOM      6  O   CYS A   1     -10.092  11.838  66.943  1.00  0.00    -0.204 OA 
ATOM      7  OXT CYS A   1     -10.961   9.800  67.442  1.00  0.00    -0.259 OA 
ENDROOT
BRANCH   3   8
ATOM      8  CB  CYS A   1     -12.239  11.190  69.689  1.00  0.00    -0.290 C  
ATOM      9  SG  CYS A   1     -12.226  10.112  71.162  1.00  0.00    -0.419 SA 
ATOM     10  HG  CYS A   1     -13.511   9.830  71.610  1.00  0.00     0.000 H  
ENDBRANCH   3   8
TORSDOF 1
ENDMDL
MODEL      118
REMARK 921   NORMALIZED FREE ENERGY PREDICTED BY IDOCK:   -1.92 KCAL/MOL
REMARK 922        TOTAL FREE ENERGY PREDICTED BY IDOCK:   -2.04 KCAL/MOL
REMARK 923 INTER-LIGAND FREE ENERGY PREDICTED BY IDOCK:   -2.03 KCAL/MOL
REMARK 924 INTRA-LIGAND FREE ENERGY PREDICTED BY IDOCK:   -0.00 KCAL/MOL
REMARK 927      BINDING AFFINITY PREDICTED BY RF-SCORE:    0.00 PKD
ROOT
ATOM      1  N   CYS A   1     -12.208  13.835  69.154  1.00  0.00    -0.378 NA 
ATOM      2  H1  CYS A   1     -13.083  14.079  69.617  1.00  0.00     0.000 HD 
ATOM      3  CA  CYS A   1     -12.025  12.353  68.973  1.00  0.00    -0.241 C  
ATOM      4  H2  CYS A   1     -12.121  14.322  68.263  1.00  0.00     0.000 HD 
ATOM      5  C   CYS A   1     -12.059  11.689  70.354  1.00  0.00    -0.373 C  
ATOM      6  O   CYS A   1     -12.436  12.568  71.319  1.00  0.00    -0.305 OA 
ATOM      7  OXT CYS A   1     -11.792  10.520  70.577  1.00  0.00    -0.291 OA 
ENDROOT
BRANCH   3   8
ATOM      8  CB  CYS A   1     -10.709  11.986  68.277  1.00  0.00    -0.224 C  
ATOM      9  SG  CYS A   1     -10.898  10.538  67.182  1.00  0.00    -0.221 SA 
ATOM     10  HG  CYS A   1      -9.706  10.205  66.551  1.00  0.00     0.000 H  
ENDBRANCH   3   8
TORSDOF 1
ENDMDL
MODEL      119
REMARK 921   NORMALIZED FREE ENERGY PREDICTED BY IDOCK:   -1.91 KCAL/MOL
REMARK 922        TOTAL FREE ENERGY PREDICTED BY IDOCK:   -2.03 KCAL/MOL
REMARK 923 INTER-LIGAND FREE ENERGY PREDICTED BY IDOCK:   -2.12 KCAL/MOL
REMARK 924 INTRA-LIGAND FREE ENERGY PREDICTED BY IDOCK:    0.10 KCAL/MOL
REMARK 927      BINDING AFFINITY PREDICTED BY RF-SCORE:    0.00 PKD
ROOT
ATOM      1  N   CYS A   1     -10.814  19.004  67.361  1.00  0.00    -0.466 NA 
ATOM      2  H1  CYS A   1     -10.768  20.021  67.292  1.00  0.00     0.000 HD 
ATOM      3  CA  CYS A   1      -9.486  18.370  67.670  1.00  0.00    -0.272 C  
ATOM      4  H2  CYS A   1     -11.519  18.719  68.041  1.00  0.00     0.000 HD 
ATOM      5  C   CYS A   1      -8.499  18.747  66.560  1.00  0.00    -0.301 C  
ATOM      6  O   CYS A   1      -9.021  19.689  65.731  1.00  0.00    -0.386 OA 
ATOM      7  OXT CYS A   1      -7.381  18.278  66.425  1.00  0.00    -0.218 OA 
ENDROOT
BRANCH   3   8
ATOM      8  CB  CYS A   1      -9.555  16.841  67.775  1.00  0.00    -0.241 C  
ATOM      9  SG  CYS A   1      -8.241  16.171  68.849  1.00  0.00    -0.237 SA 
ATOM     10  HG  CYS A   1      -8.304  14.786  68.943  1.00  0.00     0.000 H  
ENDBRANCH   3   8
TORSDOF 1
ENDMDL
MODEL      120
REMARK 921   NORMALIZED FREE ENERGY PREDICTED BY IDOCK:   -1.91 KCAL/MOL
REMARK 922        TOTAL FREE ENERGY PREDICTED BY IDOCK:   -2.03 KCAL/MOL
REMARK 923 INTER-LIGAND FREE ENERGY PREDICTED BY IDOCK:   -2.01 KCAL/MOL
REMARK 924 INTRA-LIGAND FREE ENERGY PREDICTED BY IDOCK:   -0.01 KCAL/MOL
REMARK 927      BINDING AFFINITY PREDICTED BY RF-SCORE:    0.00 PKD
ROOT
ATOM      1  N   CYS A   1     -10.945   8.756  68.452  1.00  0.00    -0.451 NA 
ATOM      2  H1  CYS A   1     -10.258   8.929  67.717  1.00  0.00     0.000 HD 
ATOM      3  CA  CYS A   1     -10.599   9.421  69.756  1.00  0.00    -0.231 C  
ATOM      4  H2  CYS A   1     -11.879   9.026  68.145  1.00  0.00     0.000 HD 
ATOM      5  C   CYS A   1      -9.235   8.897  70.218  1.00  0.00    -0.185 C  
ATOM      6  O   CYS A   1      -8.636   8.151  69.253  1.00  0.00    -0.133 OA 
ATOM      7  OXT CYS A   1      -8.731   9.117  71.307  1.00  0.00    -0.270 OA 
ENDROOT
BRANCH   3   8
ATOM      8  CB  CYS A   1     -11.631   9.161  70.860  1.00  0.00    -0.291 C  
ATOM      9  SG  CYS A   1     -12.730  10.596  71.116  1.00  0.00    -0.451 SA 
ATOM     10  HG  CYS A   1     -13.666  10.361  72.116  1.00  0.00     0.000 H  
ENDBRANCH   3   8
TORSDOF 1
ENDMDL
MODEL      121
REMARK 921   NORMALIZED FREE ENERGY PREDICTED BY IDOCK:   -1.89 KCAL/MOL
REMARK 922        TOTAL FREE ENERGY PREDICTED BY IDOCK:   -2.01 KCAL/MOL
REMARK 923 INTER-LIGAND FREE ENERGY PREDICTED BY IDOCK:   -2.00 KCAL/MOL
REMARK 924 INTRA-LIGAND FREE ENERGY PREDICTED BY IDOCK:   -0.01 KCAL/MOL
REMARK 927      BINDING AFFINITY PREDICTED BY RF-SCORE:    0.00 PKD
ROOT
ATOM      1  N   CYS A   1     -11.561  10.214  67.933  1.00  0.00    -0.629 NA 
ATOM      2  H1  CYS A   1     -12.281   9.602  67.548  1.00  0.00     0.000 HD 
ATOM      3  CA  CYS A   1     -10.660  10.804  66.883  1.00  0.00    -0.258 C  
ATOM      4  H2  CYS A   1     -11.977  10.947  68.508  1.00  0.00     0.000 HD 
ATOM      5  C   CYS A   1      -9.984   9.657  66.125  1.00  0.00    -0.276 C  
ATOM      6  O   CYS A   1     -10.520   8.455  66.462  1.00  0.00    -0.249 OA 
ATOM      7  OXT CYS A   1      -9.083   9.787  65.313  1.00  0.00    -0.179 OA 
ENDROOT
BRANCH   3   8
ATOM      8  CB  CYS A   1      -9.578  11.724  67.461  1.00  0.00    -0.177 C  
ATOM      9  SG  CYS A   1     -10.121  13.466  67.517  1.00  0.00    -0.230 SA 
ATOM     10  HG  CYS A   1      -9.140  14.299  68.040  1.00  0.00     0.000 H  
ENDBRANCH   3   8
TORSDOF 1
ENDMDL
MODEL      122
REMARK 921   NORMALIZED FREE ENERGY PREDICTED BY IDOCK:   -1.85 KCAL/MOL
REMARK 922        TOTAL FREE ENERGY PREDICTED BY IDOCK:   -1.96 KCAL/MOL
REMARK 923 INTER-LIGAND FREE ENERGY PREDICTED BY IDOCK:   -1.93 KCAL/MOL
REMARK 924 INTRA-LIGAND FREE ENERGY PREDICTED BY IDOCK:   -0.04 KCAL/MOL
REMARK 927      BINDING AFFINITY PREDICTED BY RF-SCORE:    0.00 PKD
ROOT
ATOM      1  N   CYS A   1     -11.383   4.494  65.501  1.00  0.00    -0.866 NA 
ATOM      2  H1  CYS A   1     -10.973   3.810  64.866  1.00  0.00     0.000 HD 
ATOM      3  CA  CYS A   1     -10.361   5.216  66.335  1.00  0.00    -0.288 C  
ATOM      4  H2  CYS A   1     -11.969   5.156  64.993  1.00  0.00     0.000 HD 
ATOM      5  C   CYS A   1      -9.585   4.179  67.155  1.00  0.00    -0.197 C  
ATOM      6  O   CYS A   1      -9.886   2.913  66.765  1.00  0.00     0.160 OA 
ATOM      7  OXT CYS A   1      -8.790   4.438  68.043  1.00  0.00    -0.102 OA 
ENDROOT
BRANCH   3   8
ATOM      8  CB  CYS A   1     -10.977   6.245  67.291  1.00  0.00    -0.366 C  
ATOM      9  SG  CYS A   1     -10.078   7.833  67.255  1.00  0.00    -0.266 SA 
ATOM     10  HG  CYS A   1     -10.636   8.765  68.121  1.00  0.00     0.000 H  
ENDBRANCH   3   8
TORSDOF 1
ENDMDL
MODEL      123
REMARK 921   NORMALIZED FREE ENERGY PREDICTED BY IDOCK:   -1.85 KCAL/MOL
REMARK 922        TOTAL FREE ENERGY PREDICTED BY IDOCK:   -1.96 KCAL/MOL
REMARK 923 INTER-LIGAND FREE ENERGY PREDICTED BY IDOCK:   -1.92 KCAL/MOL
REMARK 924 INTRA-LIGAND FREE ENERGY PREDICTED BY IDOCK:   -0.04 KCAL/MOL
REMARK 927      BINDING AFFINITY PREDICTED BY RF-SCORE:    0.00 PKD
ROOT
ATOM      1  N   CYS A   1     -11.465  14.331  67.692  1.00  0.00    -0.327 NA 
ATOM      2  H1  CYS A   1     -12.112  14.804  67.061  1.00  0.00     0.000 HD 
ATOM      3  CA  CYS A   1     -10.258  13.770  66.992  1.00  0.00    -0.254 C  
ATOM      4  H2  CYS A   1     -11.187  14.948  68.455  1.00  0.00     0.000 HD 
ATOM      5  C   CYS A   1     -10.734  12.773  65.931  1.00  0.00    -0.270 C  
ATOM      6  O   CYS A   1     -12.083  12.817  65.777  1.00  0.00    -0.432 OA 
ATOM      7  OXT CYS A   1     -10.009  12.030  65.289  1.00  0.00    -0.251 OA 
ENDROOT
BRANCH   3   8
ATOM      8  CB  CYS A   1      -9.284  13.060  67.940  1.00  0.00    -0.208 C  
ATOM      9  SG  CYS A   1      -7.574  13.668  67.744  1.00  0.00    -0.181 SA 
ATOM     10  HG  CYS A   1      -6.692  13.024  68.603  1.00  0.00     0.000 H  
ENDBRANCH   3   8
TORSDOF 1
ENDMDL
MODEL      124
REMARK 921   NORMALIZED FREE ENERGY PREDICTED BY IDOCK:   -1.84 KCAL/MOL
REMARK 922        TOTAL FREE ENERGY PREDICTED BY IDOCK:   -1.95 KCAL/MOL
REMARK 923 INTER-LIGAND FREE ENERGY PREDICTED BY IDOCK:   -1.88 KCAL/MOL
REMARK 924 INTRA-LIGAND FREE ENERGY PREDICTED BY IDOCK:   -0.07 KCAL/MOL
REMARK 927      BINDING AFFINITY PREDICTED BY RF-SCORE:    0.00 PKD
ROOT
ATOM      1  N   CYS A   1     -11.421   8.886  69.972  1.00  0.00    -0.454 NA 
ATOM      2  H1  CYS A   1     -11.327   9.792  70.431  1.00  0.00     0.000 HD 
ATOM      3  CA  CYS A   1     -11.100   7.727  70.877  1.00  0.00    -0.259 C  
ATOM      4  H2  CYS A   1     -12.349   8.780  69.563  1.00  0.00     0.000 HD 
ATOM      5  C   CYS A   1      -9.660   7.886  71.374  1.00  0.00    -0.153 C  
ATOM      6  O   CYS A   1      -9.148   9.098  71.035  1.00  0.00    -0.236 OA 
ATOM      7  OXT CYS A   1      -9.037   7.045  72.002  1.00  0.00    -0.133 OA 
ENDROOT
BRANCH   3   8
ATOM      8  CB  CYS A   1     -11.241   6.364  70.187  1.00  0.00    -0.390 C  
ATOM      9  SG  CYS A   1     -10.425   6.338  68.555  1.00  0.00    -0.259 SA 
ATOM     10  HG  CYS A   1     -10.553   5.103  67.931  1.00  0.00     0.000 H  
ENDBRANCH   3   8
TORSDOF 1
ENDMDL
MODEL      125
REMARK 921   NORMALIZED FREE ENERGY PREDICTED BY IDOCK:   -1.84 KCAL/MOL
REMARK 922        TOTAL FREE ENERGY PREDICTED BY IDOCK:   -1.95 KCAL/MOL
REMARK 923 INTER-LIGAND FREE ENERGY PREDICTED BY IDOCK:   -1.92 KCAL/MOL
REMARK 924 INTRA-LIGAND FREE ENERGY PREDICTED BY IDOCK:   -0.03 KCAL/MOL
REMARK 927      BINDING AFFINITY PREDICTED BY RF-SCORE:    0.00 PKD
ROOT
ATOM      1  N   CYS A   1     -12.639   9.144  70.943  1.00  0.00    -0.498 NA 
ATOM      2  H1  CYS A   1     -13.306   8.559  71.448  1.00  0.00     0.000 HD 
ATOM      3  CA  CYS A   1     -11.403   8.401  70.515  1.00  0.00    -0.216 C  
ATOM      4  H2  CYS A   1     -13.085   9.595  70.145  1.00  0.00     0.000 HD 
ATOM      5  C   CYS A   1     -10.721   7.836  71.766  1.00  0.00    -0.223 C  
ATOM      6  O   CYS A   1     -11.503   7.983  72.867  1.00  0.00    -0.411 OA 
ATOM      7  OXT CYS A   1      -9.620   7.312  71.789  1.00  0.00    -0.151 OA 
ENDROOT
BRANCH   3   8
ATOM      8  CB  CYS A   1     -10.402   9.280  69.756  1.00  0.00    -0.218 C  
ATOM      9  SG  CYS A   1     -10.159   8.710  68.039  1.00  0.00    -0.205 SA 
ATOM     10  HG  CYS A   1      -9.252   9.506  67.351  1.00  0.00     0.000 H  
ENDBRANCH   3   8
TORSDOF 1
ENDMDL
MODEL      126
REMARK 921   NORMALIZED FREE ENERGY PREDICTED BY IDOCK:   -1.83 KCAL/MOL
REMARK 922        TOTAL FREE ENERGY PREDICTED BY IDOCK:   -1.94 KCAL/MOL
REMARK 923 INTER-LIGAND FREE ENERGY PREDICTED BY IDOCK:   -1.91 KCAL/MOL
REMARK 924 INTRA-LIGAND FREE ENERGY PREDICTED BY IDOCK:   -0.03 KCAL/MOL
REMARK 927      BINDING AFFINITY PREDICTED BY RF-SCORE:    0.00 PKD
ROOT
ATOM      1  N   CYS A   1      -8.335  12.183  66.401  1.00  0.00    -0.399 NA 
ATOM      2  H1  CYS A   1      -7.938  13.116  66.516  1.00  0.00     0.000 HD 
ATOM      3  CA  CYS A   1      -9.699  12.193  65.767  1.00  0.00    -0.229 C  
ATOM      4  H2  CYS A   1      -7.698  11.580  65.881  1.00  0.00     0.000 HD 
ATOM      5  C   CYS A   1     -10.635  13.027  66.648  1.00  0.00    -0.266 C  
ATOM      6  O   CYS A   1      -9.951  13.678  67.625  1.00  0.00    -0.231 OA 
ATOM      7  OXT CYS A   1     -11.844  13.113  66.503  1.00  0.00    -0.366 OA 
ENDROOT
BRANCH   3   8
ATOM      8  CB  CYS A   1     -10.296  10.791  65.594  1.00  0.00    -0.230 C  
ATOM      9  SG  CYS A   1      -9.624   9.609  66.811  1.00  0.00    -0.184 SA 
ATOM     10  HG  CYS A   1     -10.165   8.338  66.653  1.00  0.00     0.000 H  
ENDBRANCH   3   8
TORSDOF 1
ENDMDL
MODEL      127
REMARK 921   NORMALIZED FREE ENERGY PREDICTED BY IDOCK:   -1.83 KCAL/MOL
REMARK 922        TOTAL FREE ENERGY PREDICTED BY IDOCK:   -1.94 KCAL/MOL
REMARK 923 INTER-LIGAND FREE ENERGY PREDICTED BY IDOCK:   -1.98 KCAL/MOL
REMARK 924 INTRA-LIGAND FREE ENERGY PREDICTED BY IDOCK:    0.04 KCAL/MOL
REMARK 927      BINDING AFFINITY PREDICTED BY RF-SCORE:    0.00 PKD
ROOT
ATOM      1  N   CYS A   1      -8.314  16.409  66.704  1.00  0.00    -0.239 NA 
ATOM      2  H1  CYS A   1      -9.027  15.690  66.584  1.00  0.00     0.000 HD 
ATOM      3  CA  CYS A   1      -8.373  17.084  68.047  1.00  0.00    -0.211 C  
ATOM      4  H2  CYS A   1      -7.383  16.031  66.529  1.00  0.00     0.000 HD 
ATOM      5  C   CYS A   1      -9.757  17.723  68.208  1.00  0.00    -0.320 C  
ATOM      6  O   CYS A   1     -10.597  17.345  67.209  1.00  0.00    -0.339 OA 
ATOM      7  OXT CYS A   1     -10.084  18.472  69.113  1.00  0.00    -0.347 OA 
ENDROOT
BRANCH   3   8
ATOM      8  CB  CYS A   1      -7.302  18.166  68.228  1.00  0.00    -0.261 C  
ATOM      9  SG  CYS A   1      -7.604  19.612  67.156  1.00  0.00    -0.261 SA 
ATOM     10  HG  CYS A   1      -6.633  20.592  67.320  1.00  0.00     0.000 H  
ENDBRANCH   3   8
TORSDOF 1
ENDMDL
MODEL      128
REMARK 921   NORMALIZED FREE ENERGY PREDICTED BY IDOCK:   -1.82 KCAL/MOL
REMARK 922        TOTAL FREE ENERGY PREDICTED BY IDOCK:   -1.93 KCAL/MOL
REMARK 923 INTER-LIGAND FREE ENERGY PREDICTED BY IDOCK:   -1.89 KCAL/MOL
REMARK 924 INTRA-LIGAND FREE ENERGY PREDICTED BY IDOCK:   -0.04 KCAL/MOL
REMARK 927      BINDING AFFINITY PREDICTED BY RF-SCORE:    0.00 PKD
ROOT
ATOM      1  N   CYS A   1     -11.643  15.244  67.980  1.00  0.00    -0.339 NA 
ATOM      2  H1  CYS A   1     -11.794  15.409  68.975  1.00  0.00     0.000 HD 
ATOM      3  CA  CYS A   1     -10.360  14.516  67.687  1.00  0.00    -0.237 C  
ATOM      4  H2  CYS A   1     -12.438  14.755  67.569  1.00  0.00     0.000 HD 
ATOM      5  C   CYS A   1      -9.196  15.349  68.235  1.00  0.00    -0.188 C  
ATOM      6  O   CYS A   1      -9.640  16.386  68.991  1.00  0.00    -0.249 OA 
ATOM      7  OXT CYS A   1      -8.014  15.121  68.034  1.00  0.00    -0.123 OA 
ENDROOT
BRANCH   3   8
ATOM      8  CB  CYS A   1     -10.133  14.267  66.191  1.00  0.00    -0.313 C  
ATOM      9  SG  CYS A   1     -10.867  15.583  65.162  1.00  0.00    -0.437 SA 
ATOM     10  HG  CYS A   1     -10.661  15.357  63.806  1.00  0.00     0.000 H  
ENDBRANCH   3   8
TORSDOF 1
ENDMDL
MODEL      129
REMARK 921   NORMALIZED FREE ENERGY PREDICTED BY IDOCK:   -1.81 KCAL/MOL
REMARK 922        TOTAL FREE ENERGY PREDICTED BY IDOCK:   -1.92 KCAL/MOL
REMARK 923 INTER-LIGAND FREE ENERGY PREDICTED BY IDOCK:   -1.88 KCAL/MOL
REMARK 924 INTRA-LIGAND FREE ENERGY PREDICTED BY IDOCK:   -0.04 KCAL/MOL
REMARK 927      BINDING AFFINITY PREDICTED BY RF-SCORE:    0.00 PKD
ROOT
ATOM      1  N   CYS A   1     -11.896   6.689  69.566  1.00  0.00    -0.632 NA 
ATOM      2  H1  CYS A   1     -12.119   7.555  69.077  1.00  0.00     0.000 HD 
ATOM      3  CA  CYS A   1     -10.476   6.238  69.357  1.00  0.00    -0.243 C  
ATOM      4  H2  CYS A   1     -12.107   6.769  70.561  1.00  0.00     0.000 HD 
ATOM      5  C   CYS A   1     -10.251   6.032  67.855  1.00  0.00    -0.178 C  
ATOM      6  O   CYS A   1     -11.301   6.494  67.127  1.00  0.00    -0.333 OA 
ATOM      7  OXT CYS A   1      -9.259   5.526  67.357  1.00  0.00    -0.111 OA 
ENDROOT
BRANCH   3   8
ATOM      8  CB  CYS A   1     -10.140   4.935  70.093  1.00  0.00    -0.261 C  
ATOM      9  SG  CYS A   1      -8.570   5.058  71.015  1.00  0.00    -0.125 SA 
ATOM     10  HG  CYS A   1      -8.266   3.878  71.682  1.00  0.00     0.000 H  
ENDBRANCH   3   8
TORSDOF 1
ENDMDL
MODEL      130
REMARK 921   NORMALIZED FREE ENERGY PREDICTED BY IDOCK:   -1.79 KCAL/MOL
REMARK 922        TOTAL FREE ENERGY PREDICTED BY IDOCK:   -1.90 KCAL/MOL
REMARK 923 INTER-LIGAND FREE ENERGY PREDICTED BY IDOCK:   -1.89 KCAL/MOL
REMARK 924 INTRA-LIGAND FREE ENERGY PREDICTED BY IDOCK:   -0.01 KCAL/MOL
REMARK 927      BINDING AFFINITY PREDICTED BY RF-SCORE:    0.00 PKD
ROOT
ATOM      1  N   CYS A   1      -8.979   5.593  69.981  1.00  0.00    -0.135 NA 
ATOM      2  H1  CYS A   1      -9.183   4.827  69.340  1.00  0.00     0.000 HD 
ATOM      3  CA  CYS A   1     -10.114   5.901  70.919  1.00  0.00    -0.197 C  
ATOM      4  H2  CYS A   1      -8.120   5.413  70.500  1.00  0.00     0.000 HD 
ATOM      5  C   CYS A   1     -11.346   6.267  70.083  1.00  0.00    -0.406 C  
ATOM      6  O   CYS A   1     -11.140   6.025  68.762  1.00  0.00    -0.336 OA 
ATOM      7  OXT CYS A   1     -12.390   6.714  70.529  1.00  0.00    -0.314 OA 
ENDROOT
BRANCH   3   8
ATOM      8  CB  CYS A   1      -9.808   7.053  71.883  1.00  0.00    -0.163 C  
ATOM      9  SG  CYS A   1     -10.536   6.774  73.533  1.00  0.00    -0.341 SA 
ATOM     10  HG  CYS A   1     -10.258   7.817  74.407  1.00  0.00     0.000 H  
ENDBRANCH   3   8
TORSDOF 1
ENDMDL
MODEL      131
REMARK 921   NORMALIZED FREE ENERGY PREDICTED BY IDOCK:   -1.79 KCAL/MOL
REMARK 922        TOTAL FREE ENERGY PREDICTED BY IDOCK:   -1.90 KCAL/MOL
REMARK 923 INTER-LIGAND FREE ENERGY PREDICTED BY IDOCK:   -1.89 KCAL/MOL
REMARK 924 INTRA-LIGAND FREE ENERGY PREDICTED BY IDOCK:   -0.01 KCAL/MOL
REMARK 927      BINDING AFFINITY PREDICTED BY RF-SCORE:    0.00 PKD
ROOT
ATOM      1  N   CYS A   1     -11.526   6.437  69.117  1.00  0.00    -0.608 NA 
ATOM      2  H1  CYS A   1     -12.315   6.591  68.489  1.00  0.00     0.000 HD 
ATOM      3  CA  CYS A   1     -10.698   7.672  69.343  1.00  0.00    -0.184 C  
ATOM      4  H2  CYS A   1     -11.840   6.044  70.004  1.00  0.00     0.000 HD 
ATOM      5  C   CYS A   1     -10.168   8.155  67.989  1.00  0.00    -0.212 C  
ATOM      6  O   CYS A   1     -10.739   7.474  66.961  1.00  0.00    -0.346 OA 
ATOM      7  OXT CYS A   1      -9.343   9.040  67.833  1.00  0.00    -0.140 OA 
ENDROOT
BRANCH   3   8
ATOM      8  CB  CYS A   1      -9.512   7.441  70.288  1.00  0.00    -0.165 C  
ATOM      9  SG  CYS A   1      -9.856   8.047  71.975  1.00  0.00    -0.234 SA 
ATOM     10  HG  CYS A   1      -8.781   7.838  72.831  1.00  0.00     0.000 H  
ENDBRANCH   3   8
TORSDOF 1
ENDMDL
MODEL      132
REMARK 921   NORMALIZED FREE ENERGY PREDICTED BY IDOCK:   -1.79 KCAL/MOL
REMARK 922        TOTAL FREE ENERGY PREDICTED BY IDOCK:   -1.89 KCAL/MOL
REMARK 923 INTER-LIGAND FREE ENERGY PREDICTED BY IDOCK:   -1.86 KCAL/MOL
REMARK 924 INTRA-LIGAND FREE ENERGY PREDICTED BY IDOCK:   -0.04 KCAL/MOL
REMARK 927      BINDING AFFINITY PREDICTED BY RF-SCORE:    0.00 PKD
ROOT
ATOM      1  N   CYS A   1     -11.660  10.364  67.896  1.00  0.00    -0.693 NA 
ATOM      2  H1  CYS A   1     -12.331   9.718  68.313  1.00  0.00     0.000 HD 
ATOM      3  CA  CYS A   1     -10.852   9.746  66.788  1.00  0.00    -0.000 C  
ATOM      4  H2  CYS A   1     -12.126  11.213  67.575  1.00  0.00     0.000 HD 
ATOM      5  C   CYS A   1     -10.095   8.541  67.356  1.00  0.00    -0.234 C  
ATOM      6  O   CYS A   1     -10.504   8.246  68.618  1.00  0.00    -0.211 OA 
ATOM      7  OXT CYS A   1      -9.235   7.909  66.765  1.00  0.00    -0.148 OA 
ENDROOT
BRANCH   3   8
ATOM      8  CB  CYS A   1      -9.844  10.716  66.161  1.00  0.00    -0.217 C  
ATOM      9  SG  CYS A   1      -9.898  10.671  64.337  1.00  0.00    -0.353 SA 
ATOM     10  HG  CYS A   1      -8.985  11.550  63.768  1.00  0.00     0.000 H  
ENDBRANCH   3   8
TORSDOF 1
ENDMDL
MODEL      133
REMARK 921   NORMALIZED FREE ENERGY PREDICTED BY IDOCK:   -1.77 KCAL/MOL
REMARK 922        TOTAL FREE ENERGY PREDICTED BY IDOCK:   -1.88 KCAL/MOL
REMARK 923 INTER-LIGAND FREE ENERGY PREDICTED BY IDOCK:   -1.81 KCAL/MOL
REMARK 924 INTRA-LIGAND FREE ENERGY PREDICTED BY IDOCK:   -0.07 KCAL/MOL
REMARK 927      BINDING AFFINITY PREDICTED BY RF-SCORE:    0.00 PKD
ROOT
ATOM      1  N   CYS A   1      -9.799  14.729  69.479  1.00  0.00    -0.425 NA 
ATOM      2  H1  CYS A   1      -9.163  14.109  69.980  1.00  0.00     0.000 HD 
ATOM      3  CA  CYS A   1      -9.447  14.892  68.026  1.00  0.00    -0.198 C  
ATOM      4  H2  CYS A   1     -10.765  14.422  69.586  1.00  0.00     0.000 HD 
ATOM      5  C   CYS A   1      -8.026  15.457  67.932  1.00  0.00    -0.135 C  
ATOM      6  O   CYS A   1      -7.414  15.466  69.145  1.00  0.00    -0.155 OA 
ATOM      7  OXT CYS A   1      -7.492  15.847  66.907  1.00  0.00    -0.221 OA 
ENDROOT
BRANCH   3   8
ATOM      8  CB  CYS A   1     -10.404  15.825  67.272  1.00  0.00    -0.290 C  
ATOM      9  SG  CYS A   1     -10.535  17.459  68.074  1.00  0.00    -0.388 SA 
ATOM     10  HG  CYS A   1     -11.402  18.304  67.392  1.00  0.00     0.000 H  
ENDBRANCH   3   8
TORSDOF 1
ENDMDL
MODEL      134
REMARK 921   NORMALIZED FREE ENERGY PREDICTED BY IDOCK:   -1.76 KCAL/MOL
REMARK 922        TOTAL FREE ENERGY PREDICTED BY IDOCK:   -1.87 KCAL/MOL
REMARK 923 INTER-LIGAND FREE ENERGY PREDICTED BY IDOCK:   -2.02 KCAL/MOL
REMARK 924 INTRA-LIGAND FREE ENERGY PREDICTED BY IDOCK:    0.15 KCAL/MOL
REMARK 927      BINDING AFFINITY PREDICTED BY RF-SCORE:    0.00 PKD
ROOT
ATOM      1  N   CYS A   1     -11.463  14.027  67.653  1.00  0.00    -0.315 NA 
ATOM      2  H1  CYS A   1     -11.622  13.402  66.863  1.00  0.00     0.000 HD 
ATOM      3  CA  CYS A   1     -10.674  15.255  67.288  1.00  0.00    -0.311 C  
ATOM      4  H2  CYS A   1     -12.345  14.282  68.098  1.00  0.00     0.000 HD 
ATOM      5  C   CYS A   1      -9.320  14.810  66.726  1.00  0.00    -0.249 C  
ATOM      6  O   CYS A   1      -9.281  13.466  66.527  1.00  0.00    -0.240 OA 
ATOM      7  OXT CYS A   1      -8.385  15.553  66.475  1.00  0.00    -0.269 OA 
ENDROOT
BRANCH   3   8
ATOM      8  CB  CYS A   1     -10.435  16.196  68.475  1.00  0.00    -0.269 C  
ATOM      9  SG  CYS A   1     -10.093  17.905  67.932  1.00  0.00    -0.368 SA 
ATOM     10  HG  CYS A   1      -9.876  18.757  69.008  1.00  0.00     0.000 H  
ENDBRANCH   3   8
TORSDOF 1
ENDMDL
MODEL      135
REMARK 921   NORMALIZED FREE ENERGY PREDICTED BY IDOCK:   -1.76 KCAL/MOL
REMARK 922        TOTAL FREE ENERGY PREDICTED BY IDOCK:   -1.87 KCAL/MOL
REMARK 923 INTER-LIGAND FREE ENERGY PREDICTED BY IDOCK:   -1.85 KCAL/MOL
REMARK 924 INTRA-LIGAND FREE ENERGY PREDICTED BY IDOCK:   -0.02 KCAL/MOL
REMARK 927      BINDING AFFINITY PREDICTED BY RF-SCORE:    0.00 PKD
ROOT
ATOM      1  N   CYS A   1      -8.417  17.082  66.050  1.00  0.00    -0.517 NA 
ATOM      2  H1  CYS A   1      -8.856  17.114  65.129  1.00  0.00     0.000 HD 
ATOM      3  CA  CYS A   1      -8.346  15.695  66.626  1.00  0.00    -0.275 C  
ATOM      4  H2  CYS A   1      -7.493  17.513  66.026  1.00  0.00     0.000 HD 
ATOM      5  C   CYS A   1      -9.771  15.143  66.736  1.00  0.00    -0.242 C  
ATOM      6  O   CYS A   1     -10.667  15.953  66.114  1.00  0.00    -0.314 OA 
ATOM      7  OXT CYS A   1     -10.081  14.106  67.300  1.00  0.00    -0.251 OA 
ENDROOT
BRANCH   3   8
ATOM      8  CB  CYS A   1      -7.686  15.647  68.009  1.00  0.00    -0.126 C  
ATOM      9  SG  CYS A   1      -5.992  14.971  67.934  1.00  0.00    -0.129 SA 
ATOM     10  HG  CYS A   1      -5.395  14.927  69.187  1.00  0.00     0.000 H  
ENDBRANCH   3   8
TORSDOF 1
ENDMDL
MODEL      136
REMARK 921   NORMALIZED FREE ENERGY PREDICTED BY IDOCK:   -1.75 KCAL/MOL
REMARK 922        TOTAL FREE ENERGY PREDICTED BY IDOCK:   -1.86 KCAL/MOL
REMARK 923 INTER-LIGAND FREE ENERGY PREDICTED BY IDOCK:   -1.84 KCAL/MOL
REMARK 924 INTRA-LIGAND FREE ENERGY PREDICTED BY IDOCK:   -0.02 KCAL/MOL
REMARK 927      BINDING AFFINITY PREDICTED BY RF-SCORE:    0.00 PKD
ROOT
ATOM      1  N   CYS A   1      -8.954   9.133  63.489  1.00  0.00    -0.422 NA 
ATOM      2  H1  CYS A   1      -9.783   8.909  62.939  1.00  0.00     0.000 HD 
ATOM      3  CA  CYS A   1      -9.278   9.643  64.867  1.00  0.00    -0.246 C  
ATOM      4  H2  CYS A   1      -8.324   8.334  63.538  1.00  0.00     0.000 HD 
ATOM      5  C   CYS A   1     -10.138  10.904  64.727  1.00  0.00    -0.321 C  
ATOM      6  O   CYS A   1     -10.531  11.097  63.440  1.00  0.00    -0.364 OA 
ATOM      7  OXT CYS A   1     -10.447  11.649  65.642  1.00  0.00    -0.250 OA 
ENDROOT
BRANCH   3   8
ATOM      8  CB  CYS A   1      -8.032   9.981  65.695  1.00  0.00    -0.140 C  
ATOM      9  SG  CYS A   1      -6.539  10.120  64.656  1.00  0.00    -0.100 SA 
ATOM     10  HG  CYS A   1      -5.410  10.426  65.406  1.00  0.00     0.000 H  
ENDBRANCH   3   8
TORSDOF 1
ENDMDL
MODEL      137
REMARK 921   NORMALIZED FREE ENERGY PREDICTED BY IDOCK:   -1.75 KCAL/MOL
REMARK 922        TOTAL FREE ENERGY PREDICTED BY IDOCK:   -1.86 KCAL/MOL
REMARK 923 INTER-LIGAND FREE ENERGY PREDICTED BY IDOCK:   -1.85 KCAL/MOL
REMARK 924 INTRA-LIGAND FREE ENERGY PREDICTED BY IDOCK:   -0.01 KCAL/MOL
REMARK 927      BINDING AFFINITY PREDICTED BY RF-SCORE:    0.00 PKD
ROOT
ATOM      1  N   CYS A   1      -9.854  13.516  65.434  1.00  0.00    -0.518 NA 
ATOM      2  H1  CYS A   1     -10.496  14.094  64.892  1.00  0.00     0.000 HD 
ATOM      3  CA  CYS A   1      -9.977  13.727  66.918  1.00  0.00    -0.264 C  
ATOM      4  H2  CYS A   1      -9.964  12.530  65.198  1.00  0.00     0.000 HD 
ATOM      5  C   CYS A   1      -9.695  15.203  67.222  1.00  0.00    -0.210 C  
ATOM      6  O   CYS A   1      -9.614  15.938  66.082  1.00  0.00    -0.281 OA 
ATOM      7  OXT CYS A   1      -9.565  15.677  68.338  1.00  0.00    -0.195 OA 
ENDROOT
BRANCH   3   8
ATOM      8  CB  CYS A   1      -9.012  12.859  67.735  1.00  0.00    -0.191 C  
ATOM      9  SG  CYS A   1      -9.855  11.429  68.493  1.00  0.00    -0.188 SA 
ATOM     10  HG  CYS A   1      -8.981  10.642  69.233  1.00  0.00     0.000 H  
ENDBRANCH   3   8
TORSDOF 1
ENDMDL
MODEL      138
REMARK 921   NORMALIZED FREE ENERGY PREDICTED BY IDOCK:   -1.75 KCAL/MOL
REMARK 922        TOTAL FREE ENERGY PREDICTED BY IDOCK:   -1.85 KCAL/MOL
REMARK 923 INTER-LIGAND FREE ENERGY PREDICTED BY IDOCK:   -1.82 KCAL/MOL
REMARK 924 INTRA-LIGAND FREE ENERGY PREDICTED BY IDOCK:   -0.04 KCAL/MOL
REMARK 927      BINDING AFFINITY PREDICTED BY RF-SCORE:    0.00 PKD
ROOT
ATOM      1  N   CYS A   1      -7.635   9.518  70.736  1.00  0.00    -0.281 NA 
ATOM      2  H1  CYS A   1      -7.482  10.070  71.580  1.00  0.00     0.000 HD 
ATOM      3  CA  CYS A   1      -9.078   9.471  70.313  1.00  0.00    -0.253 C  
ATOM      4  H2  CYS A   1      -7.045   9.850  69.973  1.00  0.00     0.000 HD 
ATOM      5  C   CYS A   1      -9.898   8.867  71.458  1.00  0.00    -0.314 C  
ATOM      6  O   CYS A   1      -9.153   8.731  72.585  1.00  0.00    -0.354 OA 
ATOM      7  OXT CYS A   1     -11.074   8.549  71.387  1.00  0.00    -0.239 OA 
ENDROOT
BRANCH   3   8
ATOM      8  CB  CYS A   1      -9.309   8.642  69.044  1.00  0.00    -0.146 C  
ATOM      9  SG  CYS A   1     -10.231   9.577  67.776  1.00  0.00    -0.231 SA 
ATOM     10  HG  CYS A   1     -10.441   8.826  66.627  1.00  0.00     0.000 H  
ENDBRANCH   3   8
TORSDOF 1
ENDMDL
MODEL      139
REMARK 921   NORMALIZED FREE ENERGY PREDICTED BY IDOCK:   -1.71 KCAL/MOL
REMARK 922        TOTAL FREE ENERGY PREDICTED BY IDOCK:   -1.82 KCAL/MOL
REMARK 923 INTER-LIGAND FREE ENERGY PREDICTED BY IDOCK:   -1.78 KCAL/MOL
REMARK 924 INTRA-LIGAND FREE ENERGY PREDICTED BY IDOCK:   -0.03 KCAL/MOL
REMARK 927      BINDING AFFINITY PREDICTED BY RF-SCORE:    0.00 PKD
ROOT
ATOM      1  N   CYS A   1      -7.593   8.510  72.471  1.00  0.00    -0.302 NA 
ATOM      2  H1  CYS A   1      -7.094   8.828  73.302  1.00  0.00     0.000 HD 
ATOM      3  CA  CYS A   1      -9.070   8.341  72.695  1.00  0.00    -0.257 C  
ATOM      4  H2  CYS A   1      -7.414   9.130  71.681  1.00  0.00     0.000 HD 
ATOM      5  C   CYS A   1      -9.276   7.320  73.819  1.00  0.00    -0.238 C  
ATOM      6  O   CYS A   1      -8.101   7.007  74.426  1.00  0.00    -0.125 OA 
ATOM      7  OXT CYS A   1     -10.350   6.843  74.147  1.00  0.00    -0.373 OA 
ENDROOT
BRANCH   3   8
ATOM      8  CB  CYS A   1      -9.821   7.863  71.446  1.00  0.00    -0.168 C  
ATOM      9  SG  CYS A   1     -11.166   9.006  70.979  1.00  0.00    -0.320 SA 
ATOM     10  HG  CYS A   1     -11.846   8.573  69.848  1.00  0.00     0.000 H  
ENDBRANCH   3   8
TORSDOF 1
ENDMDL
MODEL      140
REMARK 921   NORMALIZED FREE ENERGY PREDICTED BY IDOCK:   -1.69 KCAL/MOL
REMARK 922        TOTAL FREE ENERGY PREDICTED BY IDOCK:   -1.79 KCAL/MOL
REMARK 923 INTER-LIGAND FREE ENERGY PREDICTED BY IDOCK:   -1.77 KCAL/MOL
REMARK 924 INTRA-LIGAND FREE ENERGY PREDICTED BY IDOCK:   -0.02 KCAL/MOL
REMARK 927      BINDING AFFINITY PREDICTED BY RF-SCORE:    0.00 PKD
ROOT
ATOM      1  N   CYS A   1     -10.254   8.877  68.991  1.00  0.00    -0.201 NA 
ATOM      2  H1  CYS A   1      -9.575   8.470  69.634  1.00  0.00     0.000 HD 
ATOM      3  CA  CYS A   1     -10.916  10.114  69.533  1.00  0.00    -0.256 C  
ATOM      4  H2  CYS A   1      -9.829   9.062  68.083  1.00  0.00     0.000 HD 
ATOM      5  C   CYS A   1     -11.626   9.749  70.842  1.00  0.00    -0.361 C  
ATOM      6  O   CYS A   1     -11.304   8.493  71.248  1.00  0.00    -0.251 OA 
ATOM      7  OXT CYS A   1     -12.382  10.481  71.458  1.00  0.00    -0.371 OA 
ENDROOT
BRANCH   3   8
ATOM      8  CB  CYS A   1     -11.938  10.726  68.567  1.00  0.00     0.016 C  
ATOM      9  SG  CYS A   1     -11.417  12.373  67.978  1.00  0.00    -0.343 SA 
ATOM     10  HG  CYS A   1     -12.343  12.928  67.103  1.00  0.00     0.000 H  
ENDBRANCH   3   8
TORSDOF 1
ENDMDL
MODEL      141
REMARK 921   NORMALIZED FREE ENERGY PREDICTED BY IDOCK:   -1.68 KCAL/MOL
REMARK 922        TOTAL FREE ENERGY PREDICTED BY IDOCK:   -1.78 KCAL/MOL
REMARK 923 INTER-LIGAND FREE ENERGY PREDICTED BY IDOCK:   -1.74 KCAL/MOL
REMARK 924 INTRA-LIGAND FREE ENERGY PREDICTED BY IDOCK:   -0.04 KCAL/MOL
REMARK 927      BINDING AFFINITY PREDICTED BY RF-SCORE:    0.00 PKD
ROOT
ATOM      1  N   CYS A   1      -9.388   4.927  70.880  1.00  0.00    -0.145 NA 
ATOM      2  H1  CYS A   1      -9.193   4.013  70.471  1.00  0.00     0.000 HD 
ATOM      3  CA  CYS A   1     -10.647   5.558  70.351  1.00  0.00    -0.280 C  
ATOM      4  H2  CYS A   1      -9.411   4.871  71.898  1.00  0.00     0.000 HD 
ATOM      5  C   CYS A   1     -10.509   5.713  68.833  1.00  0.00    -0.240 C  
ATOM      6  O   CYS A   1      -9.405   5.072  68.366  1.00  0.00    -0.115 OA 
ATOM      7  OXT CYS A   1     -11.285   6.323  68.116  1.00  0.00    -0.327 OA 
ENDROOT
BRANCH   3   8
ATOM      8  CB  CYS A   1     -10.940   6.932  70.966  1.00  0.00    -0.252 C  
ATOM      9  SG  CYS A   1     -12.688   7.096  71.467  1.00  0.00    -0.384 SA 
ATOM     10  HG  CYS A   1     -12.953   8.340  72.024  1.00  0.00     0.000 H  
ENDBRANCH   3   8
TORSDOF 1
ENDMDL
MODEL      142
REMARK 921   NORMALIZED FREE ENERGY PREDICTED BY IDOCK:   -1.66 KCAL/MOL
REMARK 922        TOTAL FREE ENERGY PREDICTED BY IDOCK:   -1.76 KCAL/MOL
REMARK 923 INTER-LIGAND FREE ENERGY PREDICTED BY IDOCK:   -1.70 KCAL/MOL
REMARK 924 INTRA-LIGAND FREE ENERGY PREDICTED BY IDOCK:   -0.07 KCAL/MOL
REMARK 927      BINDING AFFINITY PREDICTED BY RF-SCORE:    0.00 PKD
ROOT
ATOM      1  N   CYS A   1     -10.039  11.867  69.033  1.00  0.00    -0.419 NA 
ATOM      2  H1  CYS A   1     -10.426  12.773  69.299  1.00  0.00     0.000 HD 
ATOM      3  CA  CYS A   1      -9.232  11.916  67.765  1.00  0.00    -0.184 C  
ATOM      4  H2  CYS A   1      -9.492  11.468  69.796  1.00  0.00     0.000 HD 
ATOM      5  C   CYS A   1     -10.135  12.421  66.635  1.00  0.00    -0.221 C  
ATOM      6  O   CYS A   1     -11.327  12.867  67.114  1.00  0.00    -0.275 OA 
ATOM      7  OXT CYS A   1      -9.839  12.437  65.452  1.00  0.00    -0.252 OA 
ENDROOT
BRANCH   3   8
ATOM      8  CB  CYS A   1      -8.650  10.555  67.365  1.00  0.00    -0.122 C  
ATOM      9  SG  CYS A   1      -9.940   9.268  67.251  1.00  0.00    -0.225 SA 
ATOM     10  HG  CYS A   1      -9.413   8.035  66.889  1.00  0.00     0.000 H  
ENDBRANCH   3   8
TORSDOF 1
ENDMDL
MODEL      143
REMARK 921   NORMALIZED FREE ENERGY PREDICTED BY IDOCK:   -1.66 KCAL/MOL
REMARK 922        TOTAL FREE ENERGY PREDICTED BY IDOCK:   -1.76 KCAL/MOL
REMARK 923 INTER-LIGAND FREE ENERGY PREDICTED BY IDOCK:   -1.75 KCAL/MOL
REMARK 924 INTRA-LIGAND FREE ENERGY PREDICTED BY IDOCK:   -0.01 KCAL/MOL
REMARK 927      BINDING AFFINITY PREDICTED BY RF-SCORE:    0.00 PKD
ROOT
ATOM      1  N   CYS A   1     -10.973   7.127  73.472  1.00  0.00    -0.563 NA 
ATOM      2  H1  CYS A   1     -11.985   6.998  73.492  1.00  0.00     0.000 HD 
ATOM      3  CA  CYS A   1     -10.308   6.417  72.325  1.00  0.00    -0.192 C  
ATOM      4  H2  CYS A   1     -10.734   8.118  73.472  1.00  0.00     0.000 HD 
ATOM      5  C   CYS A   1     -10.615   4.920  72.438  1.00  0.00    -0.200 C  
ATOM      6  O   CYS A   1     -11.544   4.675  73.399  1.00  0.00    -0.317 OA 
ATOM      7  OXT CYS A   1     -10.107   4.045  71.757  1.00  0.00    -0.180 OA 
ENDROOT
BRANCH   3   8
ATOM      8  CB  CYS A   1      -8.787   6.611  72.293  1.00  0.00    -0.133 C  
ATOM      9  SG  CYS A   1      -8.326   8.321  71.850  1.00  0.00    -0.169 SA 
ATOM     10  HG  CYS A   1      -6.948   8.496  71.822  1.00  0.00     0.000 H  
ENDBRANCH   3   8
TORSDOF 1
ENDMDL
MODEL      144
REMARK 921   NORMALIZED FREE ENERGY PREDICTED BY IDOCK:   -1.64 KCAL/MOL
REMARK 922        TOTAL FREE ENERGY PREDICTED BY IDOCK:   -1.74 KCAL/MOL
REMARK 923 INTER-LIGAND FREE ENERGY PREDICTED BY IDOCK:   -1.73 KCAL/MOL
REMARK 924 INTRA-LIGAND FREE ENERGY PREDICTED BY IDOCK:   -0.01 KCAL/MOL
REMARK 927      BINDING AFFINITY PREDICTED BY RF-SCORE:    0.00 PKD
ROOT
ATOM      1  N   CYS A   1     -10.250   5.214  70.446  1.00  0.00    -0.259 NA 
ATOM      2  H1  CYS A   1      -9.347   4.760  70.308  1.00  0.00     0.000 HD 
ATOM      3  CA  CYS A   1     -10.540   5.532  71.887  1.00  0.00    -0.234 C  
ATOM      4  H2  CYS A   1     -10.327   6.051  69.868  1.00  0.00     0.000 HD 
ATOM      5  C   CYS A   1     -10.515   4.224  72.685  1.00  0.00    -0.171 C  
ATOM      6  O   CYS A   1     -10.052   3.192  71.933  1.00  0.00    -0.160 OA 
ATOM      7  OXT CYS A   1     -10.857   4.106  73.850  1.00  0.00    -0.230 OA 
ENDROOT
BRANCH   3   8
ATOM      8  CB  CYS A   1     -11.897   6.216  72.095  1.00  0.00    -0.285 C  
ATOM      9  SG  CYS A   1     -11.724   8.018  72.323  1.00  0.00    -0.389 SA 
ATOM     10  HG  CYS A   1     -12.954   8.638  72.511  1.00  0.00     0.000 H  
ENDBRANCH   3   8
TORSDOF 1
ENDMDL
MODEL      145
REMARK 921   NORMALIZED FREE ENERGY PREDICTED BY IDOCK:   -1.64 KCAL/MOL
REMARK 922        TOTAL FREE ENERGY PREDICTED BY IDOCK:   -1.74 KCAL/MOL
REMARK 923 INTER-LIGAND FREE ENERGY PREDICTED BY IDOCK:   -1.68 KCAL/MOL
REMARK 924 INTRA-LIGAND FREE ENERGY PREDICTED BY IDOCK:   -0.06 KCAL/MOL
REMARK 927      BINDING AFFINITY PREDICTED BY RF-SCORE:    0.00 PKD
ROOT
ATOM      1  N   CYS A   1     -10.356   5.407  72.106  1.00  0.00    -0.206 NA 
ATOM      2  H1  CYS A   1     -10.473   5.066  73.060  1.00  0.00     0.000 HD 
ATOM      3  CA  CYS A   1      -9.272   6.441  71.975  1.00  0.00    -0.148 C  
ATOM      4  H2  CYS A   1     -10.198   4.633  71.461  1.00  0.00     0.000 HD 
ATOM      5  C   CYS A   1      -9.619   7.624  72.886  1.00  0.00    -0.218 C  
ATOM      6  O   CYS A   1     -10.673   7.336  73.693  1.00  0.00    -0.378 OA 
ATOM      7  OXT CYS A   1      -9.030   8.692  72.905  1.00  0.00    -0.343 OA 
ENDROOT
BRANCH   3   8
ATOM      8  CB  CYS A   1      -9.096   6.955  70.540  1.00  0.00    -0.156 C  
ATOM      9  SG  CYS A   1     -10.695   7.356  69.758  1.00  0.00    -0.228 SA 
ATOM     10  HG  CYS A   1     -10.536   7.821  68.459  1.00  0.00     0.000 H  
ENDBRANCH   3   8
TORSDOF 1
ENDMDL
MODEL      146
REMARK 921   NORMALIZED FREE ENERGY PREDICTED BY IDOCK:   -1.64 KCAL/MOL
REMARK 922        TOTAL FREE ENERGY PREDICTED BY IDOCK:   -1.74 KCAL/MOL
REMARK 923 INTER-LIGAND FREE ENERGY PREDICTED BY IDOCK:   -1.70 KCAL/MOL
REMARK 924 INTRA-LIGAND FREE ENERGY PREDICTED BY IDOCK:   -0.04 KCAL/MOL
REMARK 927      BINDING AFFINITY PREDICTED BY RF-SCORE:    0.00 PKD
ROOT
ATOM      1  N   CYS A   1      -9.391   9.139  68.286  1.00  0.00    -0.135 NA 
ATOM      2  H1  CYS A   1      -9.650   9.754  67.514  1.00  0.00     0.000 HD 
ATOM      3  CA  CYS A   1     -10.536   8.839  69.215  1.00  0.00    -0.219 C  
ATOM      4  H2  CYS A   1      -8.972   8.277  67.938  1.00  0.00     0.000 HD 
ATOM      5  C   CYS A   1     -11.054  10.163  69.787  1.00  0.00    -0.279 C  
ATOM      6  O   CYS A   1     -10.489  11.229  69.162  1.00  0.00    -0.212 OA 
ATOM      7  OXT CYS A   1     -11.875  10.267  70.683  1.00  0.00    -0.294 OA 
ENDROOT
BRANCH   3   8
ATOM      8  CB  CYS A   1     -10.148   7.914  70.375  1.00  0.00    -0.194 C  
ATOM      9  SG  CYS A   1     -11.394   6.611  70.655  1.00  0.00    -0.369 SA 
ATOM     10  HG  CYS A   1     -11.043   5.773  71.706  1.00  0.00     0.000 H  
ENDBRANCH   3   8
TORSDOF 1
ENDMDL
MODEL      147
REMARK 921   NORMALIZED FREE ENERGY PREDICTED BY IDOCK:   -1.63 KCAL/MOL
REMARK 922        TOTAL FREE ENERGY PREDICTED BY IDOCK:   -1.73 KCAL/MOL
REMARK 923 INTER-LIGAND FREE ENERGY PREDICTED BY IDOCK:   -1.73 KCAL/MOL
REMARK 924 INTRA-LIGAND FREE ENERGY PREDICTED BY IDOCK:   -0.00 KCAL/MOL
REMARK 927      BINDING AFFINITY PREDICTED BY RF-SCORE:    0.00 PKD
ROOT
ATOM      1  N   CYS A   1      -9.570   8.735  67.971  1.00  0.00    -0.140 NA 
ATOM      2  H1  CYS A   1      -9.167   7.869  67.615  1.00  0.00     0.000 HD 
ATOM      3  CA  CYS A   1     -10.510   9.395  67.000  1.00  0.00    -0.231 C  
ATOM      4  H2  CYS A   1     -10.027   8.580  68.869  1.00  0.00     0.000 HD 
ATOM      5  C   CYS A   1      -9.740   9.699  65.711  1.00  0.00    -0.280 C  
ATOM      6  O   CYS A   1      -8.509   9.124  65.721  1.00  0.00    -0.128 OA 
ATOM      7  OXT CYS A   1     -10.163  10.365  64.780  1.00  0.00    -0.345 OA 
ENDROOT
BRANCH   3   8
ATOM      8  CB  CYS A   1     -11.117  10.698  67.536  1.00  0.00    -0.300 C  
ATOM      9  SG  CYS A   1     -11.292  10.673  69.352  1.00  0.00    -0.302 SA 
ATOM     10  HG  CYS A   1     -11.841  11.853  69.837  1.00  0.00     0.000 H  
ENDBRANCH   3   8
TORSDOF 1
ENDMDL
MODEL      148
REMARK 921   NORMALIZED FREE ENERGY PREDICTED BY IDOCK:   -1.62 KCAL/MOL
REMARK 922        TOTAL FREE ENERGY PREDICTED BY IDOCK:   -1.72 KCAL/MOL
REMARK 923 INTER-LIGAND FREE ENERGY PREDICTED BY IDOCK:   -1.67 KCAL/MOL
REMARK 924 INTRA-LIGAND FREE ENERGY PREDICTED BY IDOCK:   -0.05 KCAL/MOL
REMARK 927      BINDING AFFINITY PREDICTED BY RF-SCORE:    0.00 PKD
ROOT
ATOM      1  N   CYS A   1      -9.965  12.142  69.147  1.00  0.00    -0.391 NA 
ATOM      2  H1  CYS A   1     -10.034  11.139  69.317  1.00  0.00     0.000 HD 
ATOM      3  CA  CYS A   1     -10.771  12.599  67.963  1.00  0.00    -0.226 C  
ATOM      4  H2  CYS A   1     -10.216  12.670  69.982  1.00  0.00     0.000 HD 
ATOM      5  C   CYS A   1     -10.276  11.850  66.721  1.00  0.00    -0.206 C  
ATOM      6  O   CYS A   1      -9.408  10.858  67.053  1.00  0.00    -0.162 OA 
ATOM      7  OXT CYS A   1     -10.612  12.092  65.574  1.00  0.00    -0.255 OA 
ENDROOT
BRANCH   3   8
ATOM      8  CB  CYS A   1     -10.668  14.108  67.706  1.00  0.00    -0.247 C  
ATOM      9  SG  CYS A   1      -9.012  14.758  68.114  1.00  0.00    -0.185 SA 
ATOM     10  HG  CYS A   1      -8.919  16.124  67.882  1.00  0.00     0.000 H  
ENDBRANCH   3   8
TORSDOF 1
ENDMDL
MODEL      149
REMARK 921   NORMALIZED FREE ENERGY PREDICTED BY IDOCK:   -1.62 KCAL/MOL
REMARK 922        TOTAL FREE ENERGY PREDICTED BY IDOCK:   -1.72 KCAL/MOL
REMARK 923 INTER-LIGAND FREE ENERGY PREDICTED BY IDOCK:   -1.71 KCAL/MOL
REMARK 924 INTRA-LIGAND FREE ENERGY PREDICTED BY IDOCK:   -0.01 KCAL/MOL
REMARK 927      BINDING AFFINITY PREDICTED BY RF-SCORE:    0.00 PKD
ROOT
ATOM      1  N   CYS A   1     -10.153  16.886  66.063  1.00  0.00    -0.433 NA 
ATOM      2  H1  CYS A   1     -10.356  16.169  65.366  1.00  0.00     0.000 HD 
ATOM      3  CA  CYS A   1      -8.858  16.654  66.791  1.00  0.00    -0.231 C  
ATOM      4  H2  CYS A   1     -10.172  17.815  65.644  1.00  0.00     0.000 HD 
ATOM      5  C   CYS A   1      -8.931  15.291  67.487  1.00  0.00    -0.185 C  
ATOM      6  O   CYS A   1     -10.033  14.595  67.101  1.00  0.00    -0.237 OA 
ATOM      7  OXT CYS A   1      -8.111  14.863  68.283  1.00  0.00    -0.123 OA 
ENDROOT
BRANCH   3   8
ATOM      8  CB  CYS A   1      -8.552  17.731  67.839  1.00  0.00    -0.250 C  
ATOM      9  SG  CYS A   1      -7.908  19.260  67.078  1.00  0.00    -0.254 SA 
ATOM     10  HG  CYS A   1      -7.631  20.236  68.027  1.00  0.00     0.000 H  
ENDBRANCH   3   8
TORSDOF 1
ENDMDL
MODEL      150
REMARK 921   NORMALIZED FREE ENERGY PREDICTED BY IDOCK:   -1.61 KCAL/MOL
REMARK 922        TOTAL FREE ENERGY PREDICTED BY IDOCK:   -1.71 KCAL/MOL
REMARK 923 INTER-LIGAND FREE ENERGY PREDICTED BY IDOCK:   -1.71 KCAL/MOL
REMARK 924 INTRA-LIGAND FREE ENERGY PREDICTED BY IDOCK:   -0.00 KCAL/MOL
REMARK 927      BINDING AFFINITY PREDICTED BY RF-SCORE:    0.00 PKD
ROOT
ATOM      1  N   CYS A   1     -11.835  11.523  68.883  1.00  0.00    -0.334 NA 
ATOM      2  H1  CYS A   1     -12.450  11.004  69.510  1.00  0.00     0.000 HD 
ATOM      3  CA  CYS A   1     -11.201  10.660  67.827  1.00  0.00    -0.313 C  
ATOM      4  H2  CYS A   1     -12.326  12.310  68.461  1.00  0.00     0.000 HD 
ATOM      5  C   CYS A   1     -10.391   9.560  68.521  1.00  0.00    -0.207 C  
ATOM      6  O   CYS A   1     -10.624   9.542  69.860  1.00  0.00    -0.212 OA 
ATOM      7  OXT CYS A   1      -9.635   8.784  67.961  1.00  0.00    -0.139 OA 
ENDROOT
BRANCH   3   8
ATOM      8  CB  CYS A   1     -10.276  11.438  66.884  1.00  0.00    -0.219 C  
ATOM      9  SG  CYS A   1     -10.814  13.170  66.676  1.00  0.00    -0.283 SA 
ATOM     10  HG  CYS A   1      -9.975  13.876  65.822  1.00  0.00     0.000 H  
ENDBRANCH   3   8
TORSDOF 1
ENDMDL
MODEL      151
REMARK 921   NORMALIZED FREE ENERGY PREDICTED BY IDOCK:   -1.61 KCAL/MOL
REMARK 922        TOTAL FREE ENERGY PREDICTED BY IDOCK:   -1.71 KCAL/MOL
REMARK 923 INTER-LIGAND FREE ENERGY PREDICTED BY IDOCK:   -1.67 KCAL/MOL
REMARK 924 INTRA-LIGAND FREE ENERGY PREDICTED BY IDOCK:   -0.04 KCAL/MOL
REMARK 927      BINDING AFFINITY PREDICTED BY RF-SCORE:    0.00 PKD
ROOT
ATOM      1  N   CYS A   1      -7.631   8.136  68.984  1.00  0.00    -0.095 NA 
ATOM      2  H1  CYS A   1      -7.380   9.071  68.663  1.00  0.00     0.000 HD 
ATOM      3  CA  CYS A   1      -8.973   8.082  69.660  1.00  0.00    -0.145 C  
ATOM      4  H2  CYS A   1      -7.583   7.464  68.219  1.00  0.00     0.000 HD 
ATOM      5  C   CYS A   1      -8.949   9.031  70.863  1.00  0.00    -0.243 C  
ATOM      6  O   CYS A   1      -7.823   9.792  70.872  1.00  0.00    -0.299 OA 
ATOM      7  OXT CYS A   1      -9.822   9.113  71.711  1.00  0.00    -0.299 OA 
ENDROOT
BRANCH   3   8
ATOM      8  CB  CYS A   1      -9.352   6.677  70.143  1.00  0.00    -0.158 C  
ATOM      9  SG  CYS A   1     -11.091   6.271  69.768  1.00  0.00    -0.430 SA 
ATOM     10  HG  CYS A   1     -11.434   4.998  70.206  1.00  0.00     0.000 H  
ENDBRANCH   3   8
TORSDOF 1
ENDMDL
MODEL      152
REMARK 921   NORMALIZED FREE ENERGY PREDICTED BY IDOCK:   -1.54 KCAL/MOL
REMARK 922        TOTAL FREE ENERGY PREDICTED BY IDOCK:   -1.64 KCAL/MOL
REMARK 923 INTER-LIGAND FREE ENERGY PREDICTED BY IDOCK:   -1.60 KCAL/MOL
REMARK 924 INTRA-LIGAND FREE ENERGY PREDICTED BY IDOCK:   -0.04 KCAL/MOL
REMARK 927      BINDING AFFINITY PREDICTED BY RF-SCORE:    0.00 PKD
ROOT
ATOM      1  N   CYS A   1     -11.057   6.628  70.323  1.00  0.00    -0.298 NA 
ATOM      2  H1  CYS A   1     -10.519   5.816  70.020  1.00  0.00     0.000 HD 
ATOM      3  CA  CYS A   1     -10.264   7.906  70.305  1.00  0.00    -0.200 C  
ATOM      4  H2  CYS A   1     -11.910   6.723  69.773  1.00  0.00     0.000 HD 
ATOM      5  C   CYS A   1      -9.055   7.738  71.231  1.00  0.00    -0.137 C  
ATOM      6  O   CYS A   1      -8.921   6.451  71.645  1.00  0.00    -0.143 OA 
ATOM      7  OXT CYS A   1      -8.293   8.632  71.560  1.00  0.00    -0.148 OA 
ENDROOT
BRANCH   3   8
ATOM      8  CB  CYS A   1     -11.073   9.126  70.760  1.00  0.00    -0.275 C  
ATOM      9  SG  CYS A   1     -12.338   8.683  72.000  1.00  0.00    -0.395 SA 
ATOM     10  HG  CYS A   1     -13.070   9.789  72.412  1.00  0.00     0.000 H  
ENDBRANCH   3   8
TORSDOF 1
ENDMDL
MODEL      153
REMARK 921   NORMALIZED FREE ENERGY PREDICTED BY IDOCK:   -1.54 KCAL/MOL
REMARK 922        TOTAL FREE ENERGY PREDICTED BY IDOCK:   -1.64 KCAL/MOL
REMARK 923 INTER-LIGAND FREE ENERGY PREDICTED BY IDOCK:   -1.57 KCAL/MOL
REMARK 924 INTRA-LIGAND FREE ENERGY PREDICTED BY IDOCK:   -0.07 KCAL/MOL
REMARK 927      BINDING AFFINITY PREDICTED BY RF-SCORE:    0.00 PKD
ROOT
ATOM      1  N   CYS A   1     -11.064   5.178  65.987  1.00  0.00    -0.772 NA 
ATOM      2  H1  CYS A   1     -11.244   4.619  65.153  1.00  0.00     0.000 HD 
ATOM      3  CA  CYS A   1      -9.637   5.640  66.093  1.00  0.00    -0.120 C  
ATOM      4  H2  CYS A   1     -11.706   5.969  66.039  1.00  0.00     0.000 HD 
ATOM      5  C   CYS A   1      -8.729   4.406  66.117  1.00  0.00    -0.113 C  
ATOM      6  O   CYS A   1      -9.425   3.272  65.839  1.00  0.00    -0.153 OA 
ATOM      7  OXT CYS A   1      -7.531   4.419  66.347  1.00  0.00    -0.079 OA 
ENDROOT
BRANCH   3   8
ATOM      8  CB  CYS A   1      -9.365   6.481  67.347  1.00  0.00    -0.121 C  
ATOM      9  SG  CYS A   1     -10.039   5.699  68.852  1.00  0.00    -0.211 SA 
ATOM     10  HG  CYS A   1      -9.792   6.461  69.988  1.00  0.00     0.000 H  
ENDBRANCH   3   8
TORSDOF 1
ENDMDL
MODEL      154
REMARK 921   NORMALIZED FREE ENERGY PREDICTED BY IDOCK:   -1.52 KCAL/MOL
REMARK 922        TOTAL FREE ENERGY PREDICTED BY IDOCK:   -1.62 KCAL/MOL
REMARK 923 INTER-LIGAND FREE ENERGY PREDICTED BY IDOCK:   -1.55 KCAL/MOL
REMARK 924 INTRA-LIGAND FREE ENERGY PREDICTED BY IDOCK:   -0.07 KCAL/MOL
REMARK 927      BINDING AFFINITY PREDICTED BY RF-SCORE:    0.00 PKD
ROOT
ATOM      1  N   CYS A   1      -8.710   7.077  70.378  1.00  0.00    -0.146 NA 
ATOM      2  H1  CYS A   1      -8.594   7.516  69.464  1.00  0.00     0.000 HD 
ATOM      3  CA  CYS A   1     -10.046   7.362  71.007  1.00  0.00    -0.190 C  
ATOM      4  H2  CYS A   1      -8.542   6.073  70.322  1.00  0.00     0.000 HD 
ATOM      5  C   CYS A   1     -10.195   8.879  71.162  1.00  0.00    -0.266 C  
ATOM      6  O   CYS A   1      -9.197   9.544  70.523  1.00  0.00    -0.248 OA 
ATOM      7  OXT CYS A   1     -11.092   9.438  71.771  1.00  0.00    -0.370 OA 
ENDROOT
BRANCH   3   8
ATOM      8  CB  CYS A   1     -10.221   6.702  72.381  1.00  0.00    -0.180 C  
ATOM      9  SG  CYS A   1      -8.784   6.999  73.467  1.00  0.00    -0.148 SA 
ATOM     10  HG  CYS A   1      -8.943   6.401  74.712  1.00  0.00     0.000 H  
ENDBRANCH   3   8
TORSDOF 1
ENDMDL
MODEL      155
REMARK 921   NORMALIZED FREE ENERGY PREDICTED BY IDOCK:   -1.52 KCAL/MOL
REMARK 922        TOTAL FREE ENERGY PREDICTED BY IDOCK:   -1.61 KCAL/MOL
REMARK 923 INTER-LIGAND FREE ENERGY PREDICTED BY IDOCK:   -1.58 KCAL/MOL
REMARK 924 INTRA-LIGAND FREE ENERGY PREDICTED BY IDOCK:   -0.04 KCAL/MOL
REMARK 927      BINDING AFFINITY PREDICTED BY RF-SCORE:    0.00 PKD
ROOT
ATOM      1  N   CYS A   1      -8.305   5.748  70.904  1.00  0.00    -0.123 NA 
ATOM      2  H1  CYS A   1      -8.447   4.895  71.444  1.00  0.00     0.000 HD 
ATOM      3  CA  CYS A   1      -9.549   6.585  70.779  1.00  0.00    -0.179 C  
ATOM      4  H2  CYS A   1      -7.536   6.297  71.287  1.00  0.00     0.000 HD 
ATOM      5  C   CYS A   1     -10.634   5.741  70.101  1.00  0.00    -0.307 C  
ATOM      6  O   CYS A   1     -10.253   4.442  69.984  1.00  0.00    -0.168 OA 
ATOM      7  OXT CYS A   1     -11.712   6.162  69.715  1.00  0.00    -0.340 OA 
ENDROOT
BRANCH   3   8
ATOM      8  CB  CYS A   1      -9.336   7.868  69.967  1.00  0.00    -0.157 C  
ATOM      9  SG  CYS A   1     -10.159   9.305  70.734  1.00  0.00    -0.303 SA 
ATOM     10  HG  CYS A   1      -9.967  10.468  69.997  1.00  0.00     0.000 H  
ENDBRANCH   3   8
TORSDOF 1
ENDMDL
MODEL      156
REMARK 921   NORMALIZED FREE ENERGY PREDICTED BY IDOCK:   -1.52 KCAL/MOL
REMARK 922        TOTAL FREE ENERGY PREDICTED BY IDOCK:   -1.61 KCAL/MOL
REMARK 923 INTER-LIGAND FREE ENERGY PREDICTED BY IDOCK:   -1.55 KCAL/MOL
REMARK 924 INTRA-LIGAND FREE ENERGY PREDICTED BY IDOCK:   -0.06 KCAL/MOL
REMARK 927      BINDING AFFINITY PREDICTED BY RF-SCORE:    0.00 PKD
ROOT
ATOM      1  N   CYS A   1     -11.284   9.427  67.982  1.00  0.00    -0.492 NA 
ATOM      2  H1  CYS A   1     -11.825   9.001  67.229  1.00  0.00     0.000 HD 
ATOM      3  CA  CYS A   1      -9.982  10.019  67.516  1.00  0.00    -0.190 C  
ATOM      4  H2  CYS A   1     -11.841  10.122  68.479  1.00  0.00     0.000 HD 
ATOM      5  C   CYS A   1      -9.147   8.906  66.874  1.00  0.00    -0.133 C  
ATOM      6  O   CYS A   1      -9.871   7.767  66.722  1.00  0.00    -0.207 OA 
ATOM      7  OXT CYS A   1      -7.982   9.012  66.530  1.00  0.00    -0.102 OA 
ENDROOT
BRANCH   3   8
ATOM      8  CB  CYS A   1      -9.170  10.660  68.649  1.00  0.00    -0.181 C  
ATOM      9  SG  CYS A   1      -9.086   9.584  70.121  1.00  0.00    -0.243 SA 
ATOM     10  HG  CYS A   1      -8.350  10.165  71.146  1.00  0.00     0.000 H  
ENDBRANCH   3   8
TORSDOF 1
ENDMDL
MODEL      157
REMARK 921   NORMALIZED FREE ENERGY PREDICTED BY IDOCK:   -1.50 KCAL/MOL
REMARK 922        TOTAL FREE ENERGY PREDICTED BY IDOCK:   -1.59 KCAL/MOL
REMARK 923 INTER-LIGAND FREE ENERGY PREDICTED BY IDOCK:   -1.55 KCAL/MOL
REMARK 924 INTRA-LIGAND FREE ENERGY PREDICTED BY IDOCK:   -0.04 KCAL/MOL
REMARK 927      BINDING AFFINITY PREDICTED BY RF-SCORE:    0.00 PKD
ROOT
ATOM      1  N   CYS A   1      -8.357  10.177  70.434  1.00  0.00    -0.378 NA 
ATOM      2  H1  CYS A   1      -8.845  11.015  70.117  1.00  0.00     0.000 HD 
ATOM      3  CA  CYS A   1      -8.953   8.905  69.895  1.00  0.00    -0.156 C  
ATOM      4  H2  CYS A   1      -7.362  10.232  70.215  1.00  0.00     0.000 HD 
ATOM      5  C   CYS A   1     -10.416   8.828  70.345  1.00  0.00    -0.209 C  
ATOM      6  O   CYS A   1     -10.821   9.991  70.919  1.00  0.00    -0.319 OA 
ATOM      7  OXT CYS A   1     -11.142   7.857  70.208  1.00  0.00    -0.257 OA 
ENDROOT
BRANCH   3   8
ATOM      8  CB  CYS A   1      -8.219   7.645  70.371  1.00  0.00    -0.122 C  
ATOM      9  SG  CYS A   1      -7.903   6.482  69.000  1.00  0.00    -0.112 SA 
ATOM     10  HG  CYS A   1      -7.238   5.340  69.431  1.00  0.00     0.000 H  
ENDBRANCH   3   8
TORSDOF 1
ENDMDL
MODEL      158
REMARK 921   NORMALIZED FREE ENERGY PREDICTED BY IDOCK:   -1.47 KCAL/MOL
REMARK 922        TOTAL FREE ENERGY PREDICTED BY IDOCK:   -1.56 KCAL/MOL
REMARK 923 INTER-LIGAND FREE ENERGY PREDICTED BY IDOCK:   -1.55 KCAL/MOL
REMARK 924 INTRA-LIGAND FREE ENERGY PREDICTED BY IDOCK:   -0.01 KCAL/MOL
REMARK 927      BINDING AFFINITY PREDICTED BY RF-SCORE:    0.00 PKD
ROOT
ATOM      1  N   CYS A   1      -8.844   6.081  65.037  1.00  0.00    -0.364 NA 
ATOM      2  H1  CYS A   1      -8.844   5.077  64.856  1.00  0.00     0.000 HD 
ATOM      3  CA  CYS A   1      -8.998   6.421  66.494  1.00  0.00    -0.145 C  
ATOM      4  H2  CYS A   1      -8.008   6.519  64.649  1.00  0.00     0.000 HD 
ATOM      5  C   CYS A   1     -10.320   5.827  66.992  1.00  0.00    -0.250 C  
ATOM      6  O   CYS A   1     -10.878   5.008  66.062  1.00  0.00    -0.283 OA 
ATOM      7  OXT CYS A   1     -10.821   6.044  68.083  1.00  0.00    -0.275 OA 
ENDROOT
BRANCH   3   8
ATOM      8  CB  CYS A   1      -8.997   7.930  66.767  1.00  0.00    -0.145 C  
ATOM      9  SG  CYS A   1      -7.459   8.726  66.192  1.00  0.00    -0.091 SA 
ATOM     10  HG  CYS A   1      -7.458  10.093  66.439  1.00  0.00     0.000 H  
ENDBRANCH   3   8
TORSDOF 1
ENDMDL
MODEL      159
REMARK 921   NORMALIZED FREE ENERGY PREDICTED BY IDOCK:   -1.46 KCAL/MOL
REMARK 922        TOTAL FREE ENERGY PREDICTED BY IDOCK:   -1.55 KCAL/MOL
REMARK 923 INTER-LIGAND FREE ENERGY PREDICTED BY IDOCK:   -1.50 KCAL/MOL
REMARK 924 INTRA-LIGAND FREE ENERGY PREDICTED BY IDOCK:   -0.06 KCAL/MOL
REMARK 927      BINDING AFFINITY PREDICTED BY RF-SCORE:    0.00 PKD
ROOT
ATOM      1  N   CYS A   1     -10.597   6.971  69.821  1.00  0.00    -0.226 NA 
ATOM      2  H1  CYS A   1     -10.365   6.544  70.718  1.00  0.00     0.000 HD 
ATOM      3  CA  CYS A   1     -10.590   5.993  68.679  1.00  0.00    -0.266 C  
ATOM      4  H2  CYS A   1     -11.489   7.462  69.873  1.00  0.00     0.000 HD 
ATOM      5  C   CYS A   1      -9.194   5.367  68.586  1.00  0.00    -0.117 C  
ATOM      6  O   CYS A   1      -8.425   5.706  69.654  1.00  0.00    -0.108 OA 
ATOM      7  OXT CYS A   1      -8.806   4.648  67.680  1.00  0.00    -0.103 OA 
ENDROOT
BRANCH   3   8
ATOM      8  CB  CYS A   1     -10.938   6.634  67.330  1.00  0.00    -0.360 C  
ATOM      9  SG  CYS A   1     -10.168   8.278  67.137  1.00  0.00    -0.319 SA 
ATOM     10  HG  CYS A   1     -10.484   8.859  65.915  1.00  0.00     0.000 H  
ENDBRANCH   3   8
TORSDOF 1
ENDMDL
MODEL      160
REMARK 921   NORMALIZED FREE ENERGY PREDICTED BY IDOCK:   -1.46 KCAL/MOL
REMARK 922        TOTAL FREE ENERGY PREDICTED BY IDOCK:   -1.55 KCAL/MOL
REMARK 923 INTER-LIGAND FREE ENERGY PREDICTED BY IDOCK:   -1.54 KCAL/MOL
REMARK 924 INTRA-LIGAND FREE ENERGY PREDICTED BY IDOCK:   -0.00 KCAL/MOL
REMARK 927      BINDING AFFINITY PREDICTED BY RF-SCORE:    0.00 PKD
ROOT
ATOM      1  N   CYS A   1      -9.523   6.271  72.856  1.00  0.00    -0.146 NA 
ATOM      2  H1  CYS A   1      -9.576   7.251  73.135  1.00  0.00     0.000 HD 
ATOM      3  CA  CYS A   1      -9.868   6.047  71.409  1.00  0.00    -0.173 C  
ATOM      4  H2  CYS A   1      -8.606   5.881  73.074  1.00  0.00     0.000 HD 
ATOM      5  C   CYS A   1     -11.293   6.555  71.167  1.00  0.00    -0.314 C  
ATOM      6  O   CYS A   1     -11.768   7.234  72.244  1.00  0.00    -0.275 OA 
ATOM      7  OXT CYS A   1     -11.934   6.388  70.143  1.00  0.00    -0.354 OA 
ENDROOT
BRANCH   3   8
ATOM      8  CB  CYS A   1      -9.787   4.574  70.989  1.00  0.00    -0.196 C  
ATOM      9  SG  CYS A   1      -8.434   3.695  71.841  1.00  0.00    -0.087 SA 
ATOM     10  HG  CYS A   1      -8.361   2.360  71.461  1.00  0.00     0.000 H  
ENDBRANCH   3   8
TORSDOF 1
ENDMDL
MODEL      161
REMARK 921   NORMALIZED FREE ENERGY PREDICTED BY IDOCK:   -1.45 KCAL/MOL
REMARK 922        TOTAL FREE ENERGY PREDICTED BY IDOCK:   -1.54 KCAL/MOL
REMARK 923 INTER-LIGAND FREE ENERGY PREDICTED BY IDOCK:   -1.47 KCAL/MOL
REMARK 924 INTRA-LIGAND FREE ENERGY PREDICTED BY IDOCK:   -0.07 KCAL/MOL
REMARK 927      BINDING AFFINITY PREDICTED BY RF-SCORE:    0.00 PKD
ROOT
ATOM      1  N   CYS A   1      -6.881  13.239  67.189  1.00  0.00    -0.434 NA 
ATOM      2  H1  CYS A   1      -6.978  14.196  66.850  1.00  0.00     0.000 HD 
ATOM      3  CA  CYS A   1      -8.176  12.475  67.188  1.00  0.00    -0.168 C  
ATOM      4  H2  CYS A   1      -6.164  12.739  66.664  1.00  0.00     0.000 HD 
ATOM      5  C   CYS A   1      -9.178  13.218  68.078  1.00  0.00    -0.217 C  
ATOM      6  O   CYS A   1      -8.702  14.435  68.452  1.00  0.00    -0.169 OA 
ATOM      7  OXT CYS A   1     -10.271  12.792  68.413  1.00  0.00    -0.234 OA 
ENDROOT
BRANCH   3   8
ATOM      8  CB  CYS A   1      -8.030  11.036  67.698  1.00  0.00    -0.115 C  
ATOM      9  SG  CYS A   1      -7.154  10.965  69.297  1.00  0.00    -0.132 SA 
ATOM     10  HG  CYS A   1      -7.022   9.661  69.759  1.00  0.00     0.000 H  
ENDBRANCH   3   8
TORSDOF 1
ENDMDL
MODEL      162
REMARK 921   NORMALIZED FREE ENERGY PREDICTED BY IDOCK:   -1.42 KCAL/MOL
REMARK 922        TOTAL FREE ENERGY PREDICTED BY IDOCK:   -1.51 KCAL/MOL
REMARK 923 INTER-LIGAND FREE ENERGY PREDICTED BY IDOCK:   -1.51 KCAL/MOL
REMARK 924 INTRA-LIGAND FREE ENERGY PREDICTED BY IDOCK:   -0.01 KCAL/MOL
REMARK 927      BINDING AFFINITY PREDICTED BY RF-SCORE:    0.00 PKD
ROOT
ATOM      1  N   CYS A   1     -10.373  10.712  69.911  1.00  0.00    -0.444 NA 
ATOM      2  H1  CYS A   1     -10.949  10.370  70.680  1.00  0.00     0.000 HD 
ATOM      3  CA  CYS A   1      -9.669   9.613  69.164  1.00  0.00    -0.178 C  
ATOM      4  H2  CYS A   1     -10.923  11.289  69.275  1.00  0.00     0.000 HD 
ATOM      5  C   CYS A   1      -8.779   8.850  70.150  1.00  0.00    -0.161 C  
ATOM      6  O   CYS A   1      -9.016   9.234  71.432  1.00  0.00    -0.311 OA 
ATOM      7  OXT CYS A   1      -7.961   7.998  69.845  1.00  0.00    -0.106 OA 
ENDROOT
BRANCH   3   8
ATOM      8  CB  CYS A   1      -8.803  10.126  68.007  1.00  0.00    -0.125 C  
ATOM      9  SG  CYS A   1      -8.976  11.928  67.772  1.00  0.00    -0.181 SA 
ATOM     10  HG  CYS A   1      -8.192  12.393  66.724  1.00  0.00     0.000 H  
ENDBRANCH   3   8
TORSDOF 1
ENDMDL
MODEL      163
REMARK 921   NORMALIZED FREE ENERGY PREDICTED BY IDOCK:   -1.42 KCAL/MOL
REMARK 922        TOTAL FREE ENERGY PREDICTED BY IDOCK:   -1.51 KCAL/MOL
REMARK 923 INTER-LIGAND FREE ENERGY PREDICTED BY IDOCK:   -1.48 KCAL/MOL
REMARK 924 INTRA-LIGAND FREE ENERGY PREDICTED BY IDOCK:   -0.03 KCAL/MOL
REMARK 927      BINDING AFFINITY PREDICTED BY RF-SCORE:    0.00 PKD
ROOT
ATOM      1  N   CYS A   1      -8.756   6.484  67.954  1.00  0.00    -0.117 NA 
ATOM      2  H1  CYS A   1      -8.648   6.254  66.966  1.00  0.00     0.000 HD 
ATOM      3  CA  CYS A   1     -10.019   7.244  68.251  1.00  0.00    -0.160 C  
ATOM      4  H2  CYS A   1      -8.693   5.646  68.531  1.00  0.00     0.000 HD 
ATOM      5  C   CYS A   1     -10.006   8.543  67.436  1.00  0.00    -0.214 C  
ATOM      6  O   CYS A   1      -8.984   8.557  66.541  1.00  0.00    -0.143 OA 
ATOM      7  OXT CYS A   1     -10.807   9.455  67.556  1.00  0.00    -0.269 OA 
ENDROOT
BRANCH   3   8
ATOM      8  CB  CYS A   1     -10.182   7.591  69.736  1.00  0.00    -0.211 C  
ATOM      9  SG  CYS A   1     -11.656   6.798  70.464  1.00  0.00    -0.370 SA 
ATOM     10  HG  CYS A   1     -11.804   7.112  71.809  1.00  0.00     0.000 H  
ENDBRANCH   3   8
TORSDOF 1
ENDMDL
MODEL      164
REMARK 921   NORMALIZED FREE ENERGY PREDICTED BY IDOCK:   -1.42 KCAL/MOL
REMARK 922        TOTAL FREE ENERGY PREDICTED BY IDOCK:   -1.51 KCAL/MOL
REMARK 923 INTER-LIGAND FREE ENERGY PREDICTED BY IDOCK:   -1.50 KCAL/MOL
REMARK 924 INTRA-LIGAND FREE ENERGY PREDICTED BY IDOCK:   -0.01 KCAL/MOL
REMARK 927      BINDING AFFINITY PREDICTED BY RF-SCORE:    0.00 PKD
ROOT
ATOM      1  N   CYS A   1      -9.764   5.280  71.721  1.00  0.00    -0.154 NA 
ATOM      2  H1  CYS A   1     -10.299   4.601  72.263  1.00  0.00     0.000 HD 
ATOM      3  CA  CYS A   1      -9.784   6.662  72.316  1.00  0.00    -0.148 C  
ATOM      4  H2  CYS A   1      -8.806   4.960  71.582  1.00  0.00     0.000 HD 
ATOM      5  C   CYS A   1     -11.240   7.131  72.401  1.00  0.00    -0.272 C  
ATOM      6  O   CYS A   1     -12.105   6.122  72.115  1.00  0.00    -0.327 OA 
ATOM      7  OXT CYS A   1     -11.599   8.259  72.695  1.00  0.00    -0.399 OA 
ENDROOT
BRANCH   3   8
ATOM      8  CB  CYS A   1      -8.980   7.683  71.501  1.00  0.00    -0.131 C  
ATOM      9  SG  CYS A   1      -7.199   7.620  71.896  1.00  0.00    -0.069 SA 
ATOM     10  HG  CYS A   1      -6.471   8.545  71.158  1.00  0.00     0.000 H  
ENDBRANCH   3   8
TORSDOF 1
ENDMDL
MODEL      165
REMARK 921   NORMALIZED FREE ENERGY PREDICTED BY IDOCK:   -1.39 KCAL/MOL
REMARK 922        TOTAL FREE ENERGY PREDICTED BY IDOCK:   -1.47 KCAL/MOL
REMARK 923 INTER-LIGAND FREE ENERGY PREDICTED BY IDOCK:   -1.46 KCAL/MOL
REMARK 924 INTRA-LIGAND FREE ENERGY PREDICTED BY IDOCK:   -0.02 KCAL/MOL
REMARK 927      BINDING AFFINITY PREDICTED BY RF-SCORE:    0.00 PKD
ROOT
ATOM      1  N   CYS A   1     -10.407  11.658  67.901  1.00  0.00    -0.184 NA 
ATOM      2  H1  CYS A   1      -9.842  11.247  67.157  1.00  0.00     0.000 HD 
ATOM      3  CA  CYS A   1     -10.191  13.138  68.061  1.00  0.00    -0.233 C  
ATOM      4  H2  CYS A   1     -11.396  11.449  67.762  1.00  0.00     0.000 HD 
ATOM      5  C   CYS A   1      -8.710  13.380  68.371  1.00  0.00    -0.134 C  
ATOM      6  O   CYS A   1      -7.979  12.245  68.221  1.00  0.00    -0.149 OA 
ATOM      7  OXT CYS A   1      -8.229  14.450  68.705  1.00  0.00    -0.147 OA 
ENDROOT
BRANCH   3   8
ATOM      8  CB  CYS A   1     -11.041  13.756  69.178  1.00  0.00    -0.240 C  
ATOM      9  SG  CYS A   1     -11.648  15.419  68.732  1.00  0.00    -0.368 SA 
ATOM     10  HG  CYS A   1     -12.417  15.979  69.744  1.00  0.00     0.000 H  
ENDBRANCH   3   8
TORSDOF 1
ENDMDL
MODEL      166
REMARK 921   NORMALIZED FREE ENERGY PREDICTED BY IDOCK:   -1.37 KCAL/MOL
REMARK 922        TOTAL FREE ENERGY PREDICTED BY IDOCK:   -1.46 KCAL/MOL
REMARK 923 INTER-LIGAND FREE ENERGY PREDICTED BY IDOCK:   -1.39 KCAL/MOL
REMARK 924 INTRA-LIGAND FREE ENERGY PREDICTED BY IDOCK:   -0.07 KCAL/MOL
REMARK 927      BINDING AFFINITY PREDICTED BY RF-SCORE:    0.00 PKD
ROOT
ATOM      1  N   CYS A   1     -10.640   7.286  66.601  1.00  0.00    -0.518 NA 
ATOM      2  H1  CYS A   1     -11.544   7.653  66.900  1.00  0.00     0.000 HD 
ATOM      3  CA  CYS A   1      -9.504   7.714  67.489  1.00  0.00    -0.140 C  
ATOM      4  H2  CYS A   1     -10.671   6.271  66.515  1.00  0.00     0.000 HD 
ATOM      5  C   CYS A   1      -9.442   9.245  67.494  1.00  0.00    -0.132 C  
ATOM      6  O   CYS A   1     -10.524   9.787  66.875  1.00  0.00    -0.238 OA 
ATOM      7  OXT CYS A   1      -8.549   9.910  67.991  1.00  0.00    -0.120 OA 
ENDROOT
BRANCH   3   8
ATOM      8  CB  CYS A   1      -8.145   7.163  67.040  1.00  0.00    -0.117 C  
ATOM      9  SG  CYS A   1      -7.870   7.399  65.251  1.00  0.00    -0.127 SA 
ATOM     10  HG  CYS A   1      -6.639   6.900  64.845  1.00  0.00     0.000 H  
ENDBRANCH   3   8
TORSDOF 1
ENDMDL
MODEL      167
REMARK 921   NORMALIZED FREE ENERGY PREDICTED BY IDOCK:   -1.37 KCAL/MOL
REMARK 922        TOTAL FREE ENERGY PREDICTED BY IDOCK:   -1.45 KCAL/MOL
REMARK 923 INTER-LIGAND FREE ENERGY PREDICTED BY IDOCK:   -1.41 KCAL/MOL
REMARK 924 INTRA-LIGAND FREE ENERGY PREDICTED BY IDOCK:   -0.04 KCAL/MOL
REMARK 927      BINDING AFFINITY PREDICTED BY RF-SCORE:    0.00 PKD
ROOT
ATOM      1  N   CYS A   1      -8.136   7.516  67.929  1.00  0.00    -0.118 NA 
ATOM      2  H1  CYS A   1      -7.538   7.603  68.750  1.00  0.00     0.000 HD 
ATOM      3  CA  CYS A   1      -9.012   8.717  67.703  1.00  0.00    -0.135 C  
ATOM      4  H2  CYS A   1      -7.583   7.309  67.097  1.00  0.00     0.000 HD 
ATOM      5  C   CYS A   1      -9.893   8.914  68.941  1.00  0.00    -0.177 C  
ATOM      6  O   CYS A   1      -9.512   8.096  69.956  1.00  0.00    -0.166 OA 
ATOM      7  OXT CYS A   1     -10.819   9.704  69.026  1.00  0.00    -0.223 OA 
ENDROOT
BRANCH   3   8
ATOM      8  CB  CYS A   1      -9.911   8.587  66.467  1.00  0.00    -0.280 C  
ATOM      9  SG  CYS A   1      -9.782  10.042  65.373  1.00  0.00    -0.315 SA 
ATOM     10  HG  CYS A   1     -10.597   9.924  64.254  1.00  0.00     0.000 H  
ENDBRANCH   3   8
TORSDOF 1
ENDMDL
MODEL      168
REMARK 921   NORMALIZED FREE ENERGY PREDICTED BY IDOCK:   -1.36 KCAL/MOL
REMARK 922        TOTAL FREE ENERGY PREDICTED BY IDOCK:   -1.45 KCAL/MOL
REMARK 923 INTER-LIGAND FREE ENERGY PREDICTED BY IDOCK:   -1.42 KCAL/MOL
REMARK 924 INTRA-LIGAND FREE ENERGY PREDICTED BY IDOCK:   -0.03 KCAL/MOL
REMARK 927      BINDING AFFINITY PREDICTED BY RF-SCORE:    0.00 PKD
ROOT
ATOM      1  N   CYS A   1     -10.940   9.261  67.892  1.00  0.00    -0.500 NA 
ATOM      2  H1  CYS A   1     -11.017  10.276  67.824  1.00  0.00     0.000 HD 
ATOM      3  CA  CYS A   1     -10.040   8.808  69.009  1.00  0.00    -0.198 C  
ATOM      4  H2  CYS A   1     -11.861   8.832  67.972  1.00  0.00     0.000 HD 
ATOM      5  C   CYS A   1      -8.645   9.397  68.776  1.00  0.00    -0.127 C  
ATOM      6  O   CYS A   1      -8.652  10.306  67.766  1.00  0.00    -0.118 OA 
ATOM      7  OXT CYS A   1      -7.645   9.106  69.410  1.00  0.00    -0.074 OA 
ENDROOT
BRANCH   3   8
ATOM      8  CB  CYS A   1      -9.924   7.282  69.111  1.00  0.00    -0.170 C  
ATOM      9  SG  CYS A   1     -10.320   6.460  67.530  1.00  0.00    -0.233 SA 
ATOM     10  HG  CYS A   1     -10.215   5.078  67.623  1.00  0.00     0.000 H  
ENDBRANCH   3   8
TORSDOF 1
ENDMDL
MODEL      169
REMARK 921   NORMALIZED FREE ENERGY PREDICTED BY IDOCK:   -1.36 KCAL/MOL
REMARK 922        TOTAL FREE ENERGY PREDICTED BY IDOCK:   -1.44 KCAL/MOL
REMARK 923 INTER-LIGAND FREE ENERGY PREDICTED BY IDOCK:   -1.44 KCAL/MOL
REMARK 924 INTRA-LIGAND FREE ENERGY PREDICTED BY IDOCK:   -0.00 KCAL/MOL
REMARK 927      BINDING AFFINITY PREDICTED BY RF-SCORE:    0.00 PKD
ROOT
ATOM      1  N   CYS A   1      -7.284  11.468  66.223  1.00  0.00    -0.369 NA 
ATOM      2  H1  CYS A   1      -7.266  12.396  65.801  1.00  0.00     0.000 HD 
ATOM      3  CA  CYS A   1      -8.571  10.729  65.976  1.00  0.00    -0.178 C  
ATOM      4  H2  CYS A   1      -6.484  10.915  65.915  1.00  0.00     0.000 HD 
ATOM      5  C   CYS A   1      -9.723  11.559  66.553  1.00  0.00    -0.203 C  
ATOM      6  O   CYS A   1      -9.303  12.792  66.938  1.00  0.00    -0.220 OA 
ATOM      7  OXT CYS A   1     -10.878  11.180  66.655  1.00  0.00    -0.266 OA 
ENDROOT
BRANCH   3   8
ATOM      8  CB  CYS A   1      -8.598   9.332  66.609  1.00  0.00    -0.127 C  
ATOM      9  SG  CYS A   1      -7.023   8.443  66.366  1.00  0.00    -0.075 SA 
ATOM     10  HG  CYS A   1      -7.048   7.177  66.939  1.00  0.00     0.000 H  
ENDBRANCH   3   8
TORSDOF 1
ENDMDL
MODEL      170
REMARK 921   NORMALIZED FREE ENERGY PREDICTED BY IDOCK:   -1.33 KCAL/MOL
REMARK 922        TOTAL FREE ENERGY PREDICTED BY IDOCK:   -1.42 KCAL/MOL
REMARK 923 INTER-LIGAND FREE ENERGY PREDICTED BY IDOCK:   -1.38 KCAL/MOL
REMARK 924 INTRA-LIGAND FREE ENERGY PREDICTED BY IDOCK:   -0.04 KCAL/MOL
REMARK 927      BINDING AFFINITY PREDICTED BY RF-SCORE:    0.00 PKD
ROOT
ATOM      1  N   CYS A   1      -9.985   3.760  71.672  1.00  0.00    -0.171 NA 
ATOM      2  H1  CYS A   1      -9.084   3.453  71.304  1.00  0.00     0.000 HD 
ATOM      3  CA  CYS A   1     -10.122   5.257  71.728  1.00  0.00    -0.200 C  
ATOM      4  H2  CYS A   1     -10.753   3.345  71.144  1.00  0.00     0.000 HD 
ATOM      5  C   CYS A   1      -9.006   5.812  72.619  1.00  0.00    -0.131 C  
ATOM      6  O   CYS A   1      -8.102   4.849  72.941  1.00  0.00    -0.100 OA 
ATOM      7  OXT CYS A   1      -8.918   6.968  72.997  1.00  0.00    -0.127 OA 
ENDROOT
BRANCH   3   8
ATOM      8  CB  CYS A   1     -11.476   5.720  72.281  1.00  0.00    -0.262 C  
ATOM      9  SG  CYS A   1     -12.241   6.999  71.228  1.00  0.00    -0.386 SA 
ATOM     10  HG  CYS A   1     -13.468   7.418  71.729  1.00  0.00     0.000 H  
ENDBRANCH   3   8
TORSDOF 1
ENDMDL
MODEL      171
REMARK 921   NORMALIZED FREE ENERGY PREDICTED BY IDOCK:   -1.32 KCAL/MOL
REMARK 922        TOTAL FREE ENERGY PREDICTED BY IDOCK:   -1.41 KCAL/MOL
REMARK 923 INTER-LIGAND FREE ENERGY PREDICTED BY IDOCK:   -1.40 KCAL/MOL
REMARK 924 INTRA-LIGAND FREE ENERGY PREDICTED BY IDOCK:   -0.01 KCAL/MOL
REMARK 927      BINDING AFFINITY PREDICTED BY RF-SCORE:    0.00 PKD
ROOT
ATOM      1  N   CYS A   1      -9.936   9.338  68.417  1.00  0.00    -0.169 NA 
ATOM      2  H1  CYS A   1     -10.901   9.007  68.447  1.00  0.00     0.000 HD 
ATOM      3  CA  CYS A   1      -9.086   8.793  69.531  1.00  0.00    -0.146 C  
ATOM      4  H2  CYS A   1      -9.514   9.141  67.509  1.00  0.00     0.000 HD 
ATOM      5  C   CYS A   1      -9.712   9.211  70.866  1.00  0.00    -0.284 C  
ATOM      6  O   CYS A   1     -10.937   9.770  70.687  1.00  0.00    -0.282 OA 
ATOM      7  OXT CYS A   1      -9.196   9.062  71.961  1.00  0.00    -0.373 OA 
ENDROOT
BRANCH   3   8
ATOM      8  CB  CYS A   1      -7.636   9.290  69.485  1.00  0.00    -0.081 C  
ATOM      9  SG  CYS A   1      -6.709   8.560  68.092  1.00  0.00    -0.066 SA 
ATOM     10  HG  CYS A   1      -5.395   9.010  68.051  1.00  0.00     0.000 H  
ENDBRANCH   3   8
TORSDOF 1
ENDMDL
MODEL      172
REMARK 921   NORMALIZED FREE ENERGY PREDICTED BY IDOCK:   -1.32 KCAL/MOL
REMARK 922        TOTAL FREE ENERGY PREDICTED BY IDOCK:   -1.40 KCAL/MOL
REMARK 923 INTER-LIGAND FREE ENERGY PREDICTED BY IDOCK:   -1.40 KCAL/MOL
REMARK 924 INTRA-LIGAND FREE ENERGY PREDICTED BY IDOCK:   -0.01 KCAL/MOL
REMARK 927      BINDING AFFINITY PREDICTED BY RF-SCORE:    0.00 PKD
ROOT
ATOM      1  N   CYS A   1     -11.302   8.324  70.266  1.00  0.00    -0.429 NA 
ATOM      2  H1  CYS A   1     -11.818   7.506  70.590  1.00  0.00     0.000 HD 
ATOM      3  CA  CYS A   1     -10.754   8.167  68.875  1.00  0.00    -0.064 C  
ATOM      4  H2  CYS A   1     -11.875   9.165  70.337  1.00  0.00     0.000 HD 
ATOM      5  C   CYS A   1      -9.819   6.952  68.857  1.00  0.00    -0.147 C  
ATOM      6  O   CYS A   1      -9.897   6.249  70.018  1.00  0.00    -0.165 OA 
ATOM      7  OXT CYS A   1      -9.096   6.636  67.928  1.00  0.00    -0.117 OA 
ENDROOT
BRANCH   3   8
ATOM      8  CB  CYS A   1      -9.979   9.397  68.387  1.00  0.00    -0.170 C  
ATOM      9  SG  CYS A   1     -11.091  10.696  67.750  1.00  0.00    -0.306 SA 
ATOM     10  HG  CYS A   1     -10.389  11.810  67.308  1.00  0.00     0.000 H  
ENDBRANCH   3   8
TORSDOF 1
ENDMDL
MODEL      173
REMARK 921   NORMALIZED FREE ENERGY PREDICTED BY IDOCK:   -1.31 KCAL/MOL
REMARK 922        TOTAL FREE ENERGY PREDICTED BY IDOCK:   -1.39 KCAL/MOL
REMARK 923 INTER-LIGAND FREE ENERGY PREDICTED BY IDOCK:   -1.33 KCAL/MOL
REMARK 924 INTRA-LIGAND FREE ENERGY PREDICTED BY IDOCK:   -0.07 KCAL/MOL
REMARK 927      BINDING AFFINITY PREDICTED BY RF-SCORE:    0.00 PKD
ROOT
ATOM      1  N   CYS A   1     -10.433   9.122  71.793  1.00  0.00    -0.350 NA 
ATOM      2  H1  CYS A   1     -10.793   9.961  71.338  1.00  0.00     0.000 HD 
ATOM      3  CA  CYS A   1      -9.238   8.535  71.094  1.00  0.00    -0.197 C  
ATOM      4  H2  CYS A   1     -10.226   9.302  72.775  1.00  0.00     0.000 HD 
ATOM      5  C   CYS A   1      -9.640   8.187  69.657  1.00  0.00    -0.168 C  
ATOM      6  O   CYS A   1     -10.871   8.676  69.353  1.00  0.00    -0.197 OA 
ATOM      7  OXT CYS A   1      -8.953   7.559  68.867  1.00  0.00    -0.135 OA 
ENDROOT
BRANCH   3   8
ATOM      8  CB  CYS A   1      -8.695   7.274  71.777  1.00  0.00    -0.116 C  
ATOM      9  SG  CYS A   1     -10.023   6.082  72.161  1.00  0.00    -0.166 SA 
ATOM     10  HG  CYS A   1      -9.531   4.939  72.780  1.00  0.00     0.000 H  
ENDBRANCH   3   8
TORSDOF 1
ENDMDL
MODEL      174
REMARK 921   NORMALIZED FREE ENERGY PREDICTED BY IDOCK:   -1.31 KCAL/MOL
REMARK 922        TOTAL FREE ENERGY PREDICTED BY IDOCK:   -1.39 KCAL/MOL
REMARK 923 INTER-LIGAND FREE ENERGY PREDICTED BY IDOCK:   -1.35 KCAL/MOL
REMARK 924 INTRA-LIGAND FREE ENERGY PREDICTED BY IDOCK:   -0.04 KCAL/MOL
REMARK 927      BINDING AFFINITY PREDICTED BY RF-SCORE:    0.00 PKD
ROOT
ATOM      1  N   CYS A   1      -9.627   4.525  67.629  1.00  0.00    -0.160 NA 
ATOM      2  H1  CYS A   1     -10.549   4.349  67.230  1.00  0.00     0.000 HD 
ATOM      3  CA  CYS A   1      -9.649   4.678  69.125  1.00  0.00    -0.175 C  
ATOM      4  H2  CYS A   1      -8.965   3.802  67.348  1.00  0.00     0.000 HD 
ATOM      5  C   CYS A   1     -10.575   5.847  69.479  1.00  0.00    -0.308 C  
ATOM      6  O   CYS A   1     -11.262   6.282  68.391  1.00  0.00    -0.335 OA 
ATOM      7  OXT CYS A   1     -10.700   6.332  70.591  1.00  0.00    -0.233 OA 
ENDROOT
BRANCH   3   8
ATOM      8  CB  CYS A   1      -8.263   4.944  69.727  1.00  0.00    -0.073 C  
ATOM      9  SG  CYS A   1      -7.973   3.956  71.234  1.00  0.00    -0.068 SA 
ATOM     10  HG  CYS A   1      -6.718   4.197  71.779  1.00  0.00     0.000 H  
ENDBRANCH   3   8
TORSDOF 1
ENDMDL
MODEL      175
REMARK 921   NORMALIZED FREE ENERGY PREDICTED BY IDOCK:   -1.29 KCAL/MOL
REMARK 922        TOTAL FREE ENERGY PREDICTED BY IDOCK:   -1.37 KCAL/MOL
REMARK 923 INTER-LIGAND FREE ENERGY PREDICTED BY IDOCK:   -1.37 KCAL/MOL
REMARK 924 INTRA-LIGAND FREE ENERGY PREDICTED BY IDOCK:   -0.00 KCAL/MOL
REMARK 927      BINDING AFFINITY PREDICTED BY RF-SCORE:    0.00 PKD
ROOT
ATOM      1  N   CYS A   1      -9.270   5.922  70.985  1.00  0.00    -0.149 NA 
ATOM      2  H1  CYS A   1      -9.165   6.385  70.082  1.00  0.00     0.000 HD 
ATOM      3  CA  CYS A   1      -9.756   6.844  72.070  1.00  0.00    -0.152 C  
ATOM      4  H2  CYS A   1      -9.875   5.105  70.906  1.00  0.00     0.000 HD 
ATOM      5  C   CYS A   1      -8.752   7.993  72.214  1.00  0.00    -0.164 C  
ATOM      6  O   CYS A   1      -7.831   7.976  71.216  1.00  0.00    -0.082 OA 
ATOM      7  OXT CYS A   1      -8.766   8.830  73.101  1.00  0.00    -0.341 OA 
ENDROOT
BRANCH   3   8
ATOM      8  CB  CYS A   1      -9.915   6.149  73.428  1.00  0.00    -0.185 C  
ATOM      9  SG  CYS A   1     -10.829   4.576  73.287  1.00  0.00    -0.293 SA 
ATOM     10  HG  CYS A   1     -10.973   3.946  74.517  1.00  0.00     0.000 H  
ENDBRANCH   3   8
TORSDOF 1
ENDMDL
MODEL      176
REMARK 921   NORMALIZED FREE ENERGY PREDICTED BY IDOCK:   -1.23 KCAL/MOL
REMARK 922        TOTAL FREE ENERGY PREDICTED BY IDOCK:   -1.31 KCAL/MOL
REMARK 923 INTER-LIGAND FREE ENERGY PREDICTED BY IDOCK:   -1.27 KCAL/MOL
REMARK 924 INTRA-LIGAND FREE ENERGY PREDICTED BY IDOCK:   -0.03 KCAL/MOL
REMARK 927      BINDING AFFINITY PREDICTED BY RF-SCORE:    0.00 PKD
ROOT
ATOM      1  N   CYS A   1      -8.832   5.853  64.452  1.00  0.00    -0.342 NA 
ATOM      2  H1  CYS A   1      -9.136   5.205  63.726  1.00  0.00     0.000 HD 
ATOM      3  CA  CYS A   1      -8.516   5.176  65.757  1.00  0.00    -0.124 C  
ATOM      4  H2  CYS A   1      -8.041   6.411  64.133  1.00  0.00     0.000 HD 
ATOM      5  C   CYS A   1      -9.773   4.443  66.239  1.00  0.00    -0.215 C  
ATOM      6  O   CYS A   1     -10.740   4.437  65.285  1.00  0.00    -0.262 OA 
ATOM      7  OXT CYS A   1      -9.905   3.920  67.333  1.00  0.00    -0.168 OA 
ENDROOT
BRANCH   3   8
ATOM      8  CB  CYS A   1      -8.059   6.150  66.850  1.00  0.00    -0.109 C  
ATOM      9  SG  CYS A   1      -6.656   5.487  67.811  1.00  0.00    -0.055 SA 
ATOM     10  HG  CYS A   1      -6.242   6.370  68.801  1.00  0.00     0.000 H  
ENDBRANCH   3   8
TORSDOF 1
ENDMDL
MODEL      177
REMARK 921   NORMALIZED FREE ENERGY PREDICTED BY IDOCK:   -1.23 KCAL/MOL
REMARK 922        TOTAL FREE ENERGY PREDICTED BY IDOCK:   -1.31 KCAL/MOL
REMARK 923 INTER-LIGAND FREE ENERGY PREDICTED BY IDOCK:   -1.28 KCAL/MOL
REMARK 924 INTRA-LIGAND FREE ENERGY PREDICTED BY IDOCK:   -0.03 KCAL/MOL
REMARK 927      BINDING AFFINITY PREDICTED BY RF-SCORE:    0.00 PKD
ROOT
ATOM      1  N   CYS A   1     -10.086  10.839  69.563  1.00  0.00    -0.419 NA 
ATOM      2  H1  CYS A   1     -10.819  11.273  69.002  1.00  0.00     0.000 HD 
ATOM      3  CA  CYS A   1      -8.747  10.821  68.878  1.00  0.00    -0.152 C  
ATOM      4  H2  CYS A   1     -10.019  11.283  70.478  1.00  0.00     0.000 HD 
ATOM      5  C   CYS A   1      -8.887  10.050  67.561  1.00  0.00    -0.128 C  
ATOM      6  O   CYS A   1     -10.188   9.775  67.282  1.00  0.00    -0.203 OA 
ATOM      7  OXT CYS A   1      -7.961   9.722  66.838  1.00  0.00    -0.105 OA 
ENDROOT
BRANCH   3   8
ATOM      8  CB  CYS A   1      -7.644  10.169  69.721  1.00  0.00    -0.170 C  
ATOM      9  SG  CYS A   1      -6.069  11.084  69.607  1.00  0.00    -0.099 SA 
ATOM     10  HG  CYS A   1      -5.070  10.493  70.371  1.00  0.00     0.000 H  
ENDBRANCH   3   8
TORSDOF 1
ENDMDL
MODEL      178
REMARK 921   NORMALIZED FREE ENERGY PREDICTED BY IDOCK:   -1.22 KCAL/MOL
REMARK 922        TOTAL FREE ENERGY PREDICTED BY IDOCK:   -1.30 KCAL/MOL
REMARK 923 INTER-LIGAND FREE ENERGY PREDICTED BY IDOCK:   -1.29 KCAL/MOL
REMARK 924 INTRA-LIGAND FREE ENERGY PREDICTED BY IDOCK:   -0.01 KCAL/MOL
REMARK 927      BINDING AFFINITY PREDICTED BY RF-SCORE:    0.00 PKD
ROOT
ATOM      1  N   CYS A   1     -12.348   9.214  70.051  1.00  0.00    -0.016 NA 
ATOM      2  H1  CYS A   1     -12.143  10.213  70.060  1.00  0.00     0.000 HD 
ATOM      3  CA  CYS A   1     -11.113   8.357  69.998  1.00  0.00    -0.148 C  
ATOM      4  H2  CYS A   1     -12.933   8.957  70.845  1.00  0.00     0.000 HD 
ATOM      5  C   CYS A   1     -10.330   8.714  68.730  1.00  0.00    -0.208 C  
ATOM      6  O   CYS A   1     -10.844   9.816  68.123  1.00  0.00    -0.242 OA 
ATOM      7  OXT CYS A   1      -9.362   8.104  68.307  1.00  0.00    -0.135 OA 
ENDROOT
BRANCH   3   8
ATOM      8  CB  CYS A   1     -11.420   6.854  69.985  1.00  0.00    -0.277 C  
ATOM      9  SG  CYS A   1     -11.287   6.117  71.649  1.00  0.00    -0.262 SA 
ATOM     10  HG  CYS A   1     -11.565   4.756  71.638  1.00  0.00     0.000 H  
ENDBRANCH   3   8
TORSDOF 1
ENDMDL
MODEL      179
REMARK 921   NORMALIZED FREE ENERGY PREDICTED BY IDOCK:   -1.21 KCAL/MOL
REMARK 922        TOTAL FREE ENERGY PREDICTED BY IDOCK:   -1.29 KCAL/MOL
REMARK 923 INTER-LIGAND FREE ENERGY PREDICTED BY IDOCK:   -1.22 KCAL/MOL
REMARK 924 INTRA-LIGAND FREE ENERGY PREDICTED BY IDOCK:   -0.07 KCAL/MOL
REMARK 927      BINDING AFFINITY PREDICTED BY RF-SCORE:    0.00 PKD
ROOT
ATOM      1  N   CYS A   1      -9.329   4.955  63.738  1.00  0.00    -0.351 NA 
ATOM      2  H1  CYS A   1      -9.142   4.405  62.900  1.00  0.00     0.000 HD 
ATOM      3  CA  CYS A   1      -8.446   4.585  64.899  1.00  0.00    -0.130 C  
ATOM      4  H2  CYS A   1      -9.266   5.953  63.539  1.00  0.00     0.000 HD 
ATOM      5  C   CYS A   1      -8.664   3.103  65.219  1.00  0.00    -0.117 C  
ATOM      6  O   CYS A   1      -9.419   2.495  64.268  1.00  0.00    -0.132 OA 
ATOM      7  OXT CYS A   1      -8.218   2.522  66.195  1.00  0.00    -0.083 OA 
ENDROOT
BRANCH   3   8
ATOM      8  CB  CYS A   1      -8.727   5.413  66.160  1.00  0.00    -0.129 C  
ATOM      9  SG  CYS A   1     -10.493   5.381  66.618  1.00  0.00    -0.280 SA 
ATOM     10  HG  CYS A   1     -10.747   6.130  67.760  1.00  0.00     0.000 H  
ENDBRANCH   3   8
TORSDOF 1
ENDMDL
MODEL      180
REMARK 921   NORMALIZED FREE ENERGY PREDICTED BY IDOCK:   -1.21 KCAL/MOL
REMARK 922        TOTAL FREE ENERGY PREDICTED BY IDOCK:   -1.29 KCAL/MOL
REMARK 923 INTER-LIGAND FREE ENERGY PREDICTED BY IDOCK:   -1.22 KCAL/MOL
REMARK 924 INTRA-LIGAND FREE ENERGY PREDICTED BY IDOCK:   -0.07 KCAL/MOL
REMARK 927      BINDING AFFINITY PREDICTED BY RF-SCORE:    0.00 PKD
ROOT
ATOM      1  N   CYS A   1      -6.930   9.500  71.378  1.00  0.00    -0.325 NA 
ATOM      2  H1  CYS A   1      -7.543   9.908  70.672  1.00  0.00     0.000 HD 
ATOM      3  CA  CYS A   1      -7.209   8.045  71.637  1.00  0.00    -0.074 C  
ATOM      4  H2  CYS A   1      -5.950   9.643  71.135  1.00  0.00     0.000 HD 
ATOM      5  C   CYS A   1      -8.663   7.906  72.101  1.00  0.00    -0.142 C  
ATOM      6  O   CYS A   1      -9.342   9.075  71.962  1.00  0.00    -0.358 OA 
ATOM      7  OXT CYS A   1      -9.167   6.884  72.536  1.00  0.00    -0.136 OA 
ENDROOT
BRANCH   3   8
ATOM      8  CB  CYS A   1      -6.288   7.430  72.698  1.00  0.00    -0.055 C  
ATOM      9  SG  CYS A   1      -6.292   8.396  74.247  1.00  0.00    -0.133 SA 
ATOM     10  HG  CYS A   1      -5.458   7.840  75.208  1.00  0.00     0.000 H  
ENDBRANCH   3   8
TORSDOF 1
ENDMDL
MODEL      181
REMARK 921   NORMALIZED FREE ENERGY PREDICTED BY IDOCK:   -1.16 KCAL/MOL
REMARK 922        TOTAL FREE ENERGY PREDICTED BY IDOCK:   -1.23 KCAL/MOL
REMARK 923 INTER-LIGAND FREE ENERGY PREDICTED BY IDOCK:   -1.21 KCAL/MOL
REMARK 924 INTRA-LIGAND FREE ENERGY PREDICTED BY IDOCK:   -0.02 KCAL/MOL
REMARK 927      BINDING AFFINITY PREDICTED BY RF-SCORE:    0.00 PKD
ROOT
ATOM      1  N   CYS A   1     -10.441   9.438  67.127  1.00  0.00    -0.254 NA 
ATOM      2  H1  CYS A   1     -10.598  10.343  66.684  1.00  0.00     0.000 HD 
ATOM      3  CA  CYS A   1      -9.994   9.549  68.559  1.00  0.00    -0.167 C  
ATOM      4  H2  CYS A   1     -11.269   8.848  67.051  1.00  0.00     0.000 HD 
ATOM      5  C   CYS A   1      -8.691  10.354  68.599  1.00  0.00    -0.138 C  
ATOM      6  O   CYS A   1      -8.410  10.904  67.389  1.00  0.00    -0.116 OA 
ATOM      7  OXT CYS A   1      -7.985  10.500  69.583  1.00  0.00    -0.143 OA 
ENDROOT
BRANCH   3   8
ATOM      8  CB  CYS A   1      -9.759   8.188  69.227  1.00  0.00    -0.170 C  
ATOM      9  SG  CYS A   1     -11.110   7.747  70.371  1.00  0.00    -0.226 SA 
ATOM     10  HG  CYS A   1     -10.897   6.514  70.976  1.00  0.00     0.000 H  
ENDBRANCH   3   8
TORSDOF 1
ENDMDL
MODEL      182
REMARK 921   NORMALIZED FREE ENERGY PREDICTED BY IDOCK:   -1.15 KCAL/MOL
REMARK 922        TOTAL FREE ENERGY PREDICTED BY IDOCK:   -1.22 KCAL/MOL
REMARK 923 INTER-LIGAND FREE ENERGY PREDICTED BY IDOCK:   -1.19 KCAL/MOL
REMARK 924 INTRA-LIGAND FREE ENERGY PREDICTED BY IDOCK:   -0.04 KCAL/MOL
REMARK 927      BINDING AFFINITY PREDICTED BY RF-SCORE:    0.00 PKD
ROOT
ATOM      1  N   CYS A   1      -6.243  10.781  70.061  1.00  0.00    -0.103 NA 
ATOM      2  H1  CYS A   1      -6.358  11.127  71.014  1.00  0.00     0.000 HD 
ATOM      3  CA  CYS A   1      -7.549  10.589  69.339  1.00  0.00    -0.145 C  
ATOM      4  H2  CYS A   1      -5.620  11.386  69.528  1.00  0.00     0.000 HD 
ATOM      5  C   CYS A   1      -8.398   9.590  70.131  1.00  0.00    -0.192 C  
ATOM      6  O   CYS A   1      -7.841   9.312  71.339  1.00  0.00    -0.335 OA 
ATOM      7  OXT CYS A   1      -9.447   9.100  69.747  1.00  0.00    -0.165 OA 
ENDROOT
BRANCH   3   8
ATOM      8  CB  CYS A   1      -7.377  10.070  67.906  1.00  0.00    -0.088 C  
ATOM      9  SG  CYS A   1      -8.282  11.094  66.696  1.00  0.00    -0.160 SA 
ATOM     10  HG  CYS A   1      -8.126  10.623  65.398  1.00  0.00     0.000 H  
ENDBRANCH   3   8
TORSDOF 1
ENDMDL
MODEL      183
REMARK 921   NORMALIZED FREE ENERGY PREDICTED BY IDOCK:   -1.15 KCAL/MOL
REMARK 922        TOTAL FREE ENERGY PREDICTED BY IDOCK:   -1.22 KCAL/MOL
REMARK 923 INTER-LIGAND FREE ENERGY PREDICTED BY IDOCK:   -1.22 KCAL/MOL
REMARK 924 INTRA-LIGAND FREE ENERGY PREDICTED BY IDOCK:   -0.00 KCAL/MOL
REMARK 927      BINDING AFFINITY PREDICTED BY RF-SCORE:    0.00 PKD
ROOT
ATOM      1  N   CYS A   1      -8.705   8.383  64.180  1.00  0.00    -0.401 NA 
ATOM      2  H1  CYS A   1      -8.113   7.804  63.585  1.00  0.00     0.000 HD 
ATOM      3  CA  CYS A   1      -8.040   8.783  65.468  1.00  0.00    -0.115 C  
ATOM      4  H2  CYS A   1      -9.036   9.204  63.673  1.00  0.00     0.000 HD 
ATOM      5  C   CYS A   1      -7.661   7.510  66.233  1.00  0.00    -0.089 C  
ATOM      6  O   CYS A   1      -7.841   6.400  65.470  1.00  0.00    -0.091 OA 
ATOM      7  OXT CYS A   1      -7.243   7.476  67.379  1.00  0.00    -0.082 OA 
ENDROOT
BRANCH   3   8
ATOM      8  CB  CYS A   1      -8.929   9.654  66.364  1.00  0.00    -0.152 C  
ATOM      9  SG  CYS A   1     -10.117  10.642  65.391  1.00  0.00    -0.287 SA 
ATOM     10  HG  CYS A   1     -10.923  11.431  66.202  1.00  0.00     0.000 H  
ENDBRANCH   3   8
TORSDOF 1
ENDMDL
MODEL      184
REMARK 921   NORMALIZED FREE ENERGY PREDICTED BY IDOCK:   -1.13 KCAL/MOL
REMARK 922        TOTAL FREE ENERGY PREDICTED BY IDOCK:   -1.20 KCAL/MOL
REMARK 923 INTER-LIGAND FREE ENERGY PREDICTED BY IDOCK:   -1.20 KCAL/MOL
REMARK 924 INTRA-LIGAND FREE ENERGY PREDICTED BY IDOCK:   -0.01 KCAL/MOL
REMARK 927      BINDING AFFINITY PREDICTED BY RF-SCORE:    0.00 PKD
ROOT
ATOM      1  N   CYS A   1      -9.950   7.090  71.105  1.00  0.00    -0.184 NA 
ATOM      2  H1  CYS A   1     -10.693   6.799  71.740  1.00  0.00     0.000 HD 
ATOM      3  CA  CYS A   1      -9.985   6.372  69.783  1.00  0.00    -0.166 C  
ATOM      4  H2  CYS A   1      -9.963   8.100  70.969  1.00  0.00     0.000 HD 
ATOM      5  C   CYS A   1      -9.855   4.868  70.045  1.00  0.00    -0.233 C  
ATOM      6  O   CYS A   1      -9.945   4.586  71.371  1.00  0.00    -0.184 OA 
ATOM      7  OXT CYS A   1      -9.698   4.016  69.186  1.00  0.00    -0.181 OA 
ENDROOT
BRANCH   3   8
ATOM      8  CB  CYS A   1      -8.868   6.809  68.827  1.00  0.00    -0.131 C  
ATOM      9  SG  CYS A   1      -8.218   8.462  69.248  1.00  0.00    -0.117 SA 
ATOM     10  HG  CYS A   1      -7.206   8.857  68.381  1.00  0.00     0.000 H  
ENDBRANCH   3   8
TORSDOF 1
ENDMDL
MODEL      185
REMARK 921   NORMALIZED FREE ENERGY PREDICTED BY IDOCK:   -1.11 KCAL/MOL
REMARK 922        TOTAL FREE ENERGY PREDICTED BY IDOCK:   -1.18 KCAL/MOL
REMARK 923 INTER-LIGAND FREE ENERGY PREDICTED BY IDOCK:   -1.17 KCAL/MOL
REMARK 924 INTRA-LIGAND FREE ENERGY PREDICTED BY IDOCK:   -0.02 KCAL/MOL
REMARK 927      BINDING AFFINITY PREDICTED BY RF-SCORE:    0.00 PKD
ROOT
ATOM      1  N   CYS A   1     -11.072   4.468  73.698  1.00  0.00    -0.298 NA 
ATOM      2  H1  CYS A   1     -11.930   3.920  73.633  1.00  0.00     0.000 HD 
ATOM      3  CA  CYS A   1     -10.344   4.586  72.387  1.00  0.00    -0.191 C  
ATOM      4  H2  CYS A   1     -11.259   5.390  74.092  1.00  0.00     0.000 HD 
ATOM      5  C   CYS A   1      -9.997   3.176  71.898  1.00  0.00    -0.139 C  
ATOM      6  O   CYS A   1     -10.601   2.224  72.656  1.00  0.00    -0.152 OA 
ATOM      7  OXT CYS A   1      -9.278   2.920  70.946  1.00  0.00    -0.110 OA 
ENDROOT
BRANCH   3   8
ATOM      8  CB  CYS A   1      -9.054   5.410  72.483  1.00  0.00    -0.136 C  
ATOM      9  SG  CYS A   1      -9.223   7.038  71.674  1.00  0.00    -0.141 SA 
ATOM     10  HG  CYS A   1      -8.055   7.785  71.761  1.00  0.00     0.000 H  
ENDBRANCH   3   8
TORSDOF 1
ENDMDL
MODEL      186
REMARK 921   NORMALIZED FREE ENERGY PREDICTED BY IDOCK:   -1.10 KCAL/MOL
REMARK 922        TOTAL FREE ENERGY PREDICTED BY IDOCK:   -1.17 KCAL/MOL
REMARK 923 INTER-LIGAND FREE ENERGY PREDICTED BY IDOCK:   -1.13 KCAL/MOL
REMARK 924 INTRA-LIGAND FREE ENERGY PREDICTED BY IDOCK:   -0.04 KCAL/MOL
REMARK 927      BINDING AFFINITY PREDICTED BY RF-SCORE:    0.00 PKD
ROOT
ATOM      1  N   CYS A   1      -9.146   4.455  70.063  1.00  0.00    -0.096 NA 
ATOM      2  H1  CYS A   1      -8.997   4.102  71.009  1.00  0.00     0.000 HD 
ATOM      3  CA  CYS A   1      -9.145   5.957  69.983  1.00  0.00    -0.144 C  
ATOM      4  H2  CYS A   1      -8.464   4.058  69.417  1.00  0.00     0.000 HD 
ATOM      5  C   CYS A   1     -10.257   6.490  70.893  1.00  0.00    -0.190 C  
ATOM      6  O   CYS A   1     -10.792   5.501  71.656  1.00  0.00    -0.245 OA 
ATOM      7  OXT CYS A   1     -10.626   7.652  70.945  1.00  0.00    -0.211 OA 
ENDROOT
BRANCH   3   8
ATOM      8  CB  CYS A   1      -9.368   6.487  68.562  1.00  0.00    -0.123 C  
ATOM      9  SG  CYS A   1      -8.260   7.885  68.174  1.00  0.00    -0.124 SA 
ATOM     10  HG  CYS A   1      -8.462   8.366  66.886  1.00  0.00     0.000 H  
ENDBRANCH   3   8
TORSDOF 1
ENDMDL
MODEL      187
REMARK 921   NORMALIZED FREE ENERGY PREDICTED BY IDOCK:   -1.07 KCAL/MOL
REMARK 922        TOTAL FREE ENERGY PREDICTED BY IDOCK:   -1.14 KCAL/MOL
REMARK 923 INTER-LIGAND FREE ENERGY PREDICTED BY IDOCK:   -1.07 KCAL/MOL
REMARK 924 INTRA-LIGAND FREE ENERGY PREDICTED BY IDOCK:   -0.07 KCAL/MOL
REMARK 927      BINDING AFFINITY PREDICTED BY RF-SCORE:    0.00 PKD
ROOT
ATOM      1  N   CYS A   1      -7.507   9.101  71.542  1.00  0.00    -0.333 NA 
ATOM      2  H1  CYS A   1      -7.783   9.259  72.511  1.00  0.00     0.000 HD 
ATOM      3  CA  CYS A   1      -8.600   8.494  70.705  1.00  0.00    -0.154 C  
ATOM      4  H2  CYS A   1      -7.162   9.961  71.118  1.00  0.00     0.000 HD 
ATOM      5  C   CYS A   1      -9.002   7.154  71.332  1.00  0.00    -0.135 C  
ATOM      6  O   CYS A   1      -8.422   6.981  72.548  1.00  0.00    -0.113 OA 
ATOM      7  OXT CYS A   1      -9.752   6.338  70.823  1.00  0.00    -0.177 OA 
ENDROOT
BRANCH   3   8
ATOM      8  CB  CYS A   1      -8.186   8.256  69.248  1.00  0.00    -0.118 C  
ATOM      9  SG  CYS A   1      -6.568   7.420  69.127  1.00  0.00    -0.041 SA 
ATOM     10  HG  CYS A   1      -6.192   7.205  67.806  1.00  0.00     0.000 H  
ENDBRANCH   3   8
TORSDOF 1
ENDMDL
MODEL      188
REMARK 921   NORMALIZED FREE ENERGY PREDICTED BY IDOCK:   -1.06 KCAL/MOL
REMARK 922        TOTAL FREE ENERGY PREDICTED BY IDOCK:   -1.13 KCAL/MOL
REMARK 923 INTER-LIGAND FREE ENERGY PREDICTED BY IDOCK:   -1.12 KCAL/MOL
REMARK 924 INTRA-LIGAND FREE ENERGY PREDICTED BY IDOCK:   -0.01 KCAL/MOL
REMARK 927      BINDING AFFINITY PREDICTED BY RF-SCORE:    0.00 PKD
ROOT
ATOM      1  N   CYS A   1     -10.224   4.258  66.945  1.00  0.00    -0.246 NA 
ATOM      2  H1  CYS A   1      -9.719   4.102  66.073  1.00  0.00     0.000 HD 
ATOM      3  CA  CYS A   1      -9.332   4.683  68.079  1.00  0.00    -0.135 C  
ATOM      4  H2  CYS A   1     -10.982   4.927  66.810  1.00  0.00     0.000 HD 
ATOM      5  C   CYS A   1      -8.280   3.591  68.303  1.00  0.00    -0.081 C  
ATOM      6  O   CYS A   1      -8.313   2.660  67.314  1.00  0.00    -0.084 OA 
ATOM      7  OXT CYS A   1      -7.499   3.550  69.239  1.00  0.00    -0.051 OA 
ENDROOT
BRANCH   3   8
ATOM      8  CB  CYS A   1     -10.091   4.919  69.391  1.00  0.00    -0.200 C  
ATOM      9  SG  CYS A   1     -11.182   6.379  69.294  1.00  0.00    -0.328 SA 
ATOM     10  HG  CYS A   1     -11.870   6.592  70.483  1.00  0.00     0.000 H  
ENDBRANCH   3   8
TORSDOF 1
ENDMDL
MODEL      189
REMARK 921   NORMALIZED FREE ENERGY PREDICTED BY IDOCK:   -1.06 KCAL/MOL
REMARK 922        TOTAL FREE ENERGY PREDICTED BY IDOCK:   -1.13 KCAL/MOL
REMARK 923 INTER-LIGAND FREE ENERGY PREDICTED BY IDOCK:   -1.12 KCAL/MOL
REMARK 924 INTRA-LIGAND FREE ENERGY PREDICTED BY IDOCK:   -0.01 KCAL/MOL
REMARK 927      BINDING AFFINITY PREDICTED BY RF-SCORE:    0.00 PKD
ROOT
ATOM      1  N   CYS A   1      -7.726  11.939  66.700  1.00  0.00    -0.364 NA 
ATOM      2  H1  CYS A   1      -8.410  12.574  67.111  1.00  0.00     0.000 HD 
ATOM      3  CA  CYS A   1      -8.262  10.551  66.480  1.00  0.00    -0.133 C  
ATOM      4  H2  CYS A   1      -7.350  12.324  65.833  1.00  0.00     0.000 HD 
ATOM      5  C   CYS A   1      -8.712   9.987  67.832  1.00  0.00    -0.125 C  
ATOM      6  O   CYS A   1      -8.694  10.941  68.799  1.00  0.00    -0.154 OA 
ATOM      7  OXT CYS A   1      -9.055   8.834  68.033  1.00  0.00    -0.139 OA 
ENDROOT
BRANCH   3   8
ATOM      8  CB  CYS A   1      -7.234   9.597  65.861  1.00  0.00    -0.099 C  
ATOM      9  SG  CYS A   1      -6.887  10.007  64.116  1.00  0.00    -0.108 SA 
ATOM     10  HG  CYS A   1      -5.955   9.142  63.555  1.00  0.00     0.000 H  
ENDBRANCH   3   8
TORSDOF 1
ENDMDL
MODEL      190
REMARK 921   NORMALIZED FREE ENERGY PREDICTED BY IDOCK:   -1.04 KCAL/MOL
REMARK 922        TOTAL FREE ENERGY PREDICTED BY IDOCK:   -1.11 KCAL/MOL
REMARK 923 INTER-LIGAND FREE ENERGY PREDICTED BY IDOCK:   -1.10 KCAL/MOL
REMARK 924 INTRA-LIGAND FREE ENERGY PREDICTED BY IDOCK:   -0.01 KCAL/MOL
REMARK 927      BINDING AFFINITY PREDICTED BY RF-SCORE:    0.00 PKD
ROOT
ATOM      1  N   CYS A   1      -7.688   8.073  69.389  1.00  0.00    -0.102 NA 
ATOM      2  H1  CYS A   1      -7.994   8.779  70.058  1.00  0.00     0.000 HD 
ATOM      3  CA  CYS A   1      -8.765   7.665  68.422  1.00  0.00    -0.127 C  
ATOM      4  H2  CYS A   1      -6.853   8.382  68.892  1.00  0.00     0.000 HD 
ATOM      5  C   CYS A   1      -9.949   7.111  69.222  1.00  0.00    -0.168 C  
ATOM      6  O   CYS A   1      -9.789   7.320  70.555  1.00  0.00    -0.183 OA 
ATOM      7  OXT CYS A   1     -10.923   6.556  68.741  1.00  0.00    -0.282 OA 
ENDROOT
BRANCH   3   8
ATOM      8  CB  CYS A   1      -8.304   6.604  67.415  1.00  0.00    -0.121 C  
ATOM      9  SG  CYS A   1      -7.836   7.341  65.813  1.00  0.00    -0.115 SA 
ATOM     10  HG  CYS A   1      -7.419   6.380  64.901  1.00  0.00     0.000 H  
ENDBRANCH   3   8
TORSDOF 1
ENDMDL
MODEL      191
REMARK 921   NORMALIZED FREE ENERGY PREDICTED BY IDOCK:   -0.98 KCAL/MOL
REMARK 922        TOTAL FREE ENERGY PREDICTED BY IDOCK:   -1.04 KCAL/MOL
REMARK 923 INTER-LIGAND FREE ENERGY PREDICTED BY IDOCK:   -0.97 KCAL/MOL
REMARK 924 INTRA-LIGAND FREE ENERGY PREDICTED BY IDOCK:   -0.07 KCAL/MOL
REMARK 927      BINDING AFFINITY PREDICTED BY RF-SCORE:    0.00 PKD
ROOT
ATOM      1  N   CYS A   1      -8.860   5.079  67.844  1.00  0.00    -0.103 NA 
ATOM      2  H1  CYS A   1      -8.599   4.868  68.807  1.00  0.00     0.000 HD 
ATOM      3  CA  CYS A   1      -9.651   3.980  67.189  1.00  0.00    -0.196 C  
ATOM      4  H2  CYS A   1      -9.359   5.966  67.789  1.00  0.00     0.000 HD 
ATOM      5  C   CYS A   1      -8.808   2.700  67.208  1.00  0.00    -0.139 C  
ATOM      6  O   CYS A   1      -7.692   2.851  67.968  1.00  0.00    -0.056 OA 
ATOM      7  OXT CYS A   1      -9.089   1.665  66.627  1.00  0.00    -0.114 OA 
ENDROOT
BRANCH   3   8
ATOM      8  CB  CYS A   1     -10.043   4.296  65.741  1.00  0.00    -0.212 C  
ATOM      9  SG  CYS A   1      -8.617   4.870  64.758  1.00  0.00    -0.150 SA 
ATOM     10  HG  CYS A   1      -8.972   5.157  63.445  1.00  0.00     0.000 H  
ENDBRANCH   3   8
TORSDOF 1
ENDMDL
MODEL      192
REMARK 921   NORMALIZED FREE ENERGY PREDICTED BY IDOCK:   -0.95 KCAL/MOL
REMARK 922        TOTAL FREE ENERGY PREDICTED BY IDOCK:   -1.01 KCAL/MOL
REMARK 923 INTER-LIGAND FREE ENERGY PREDICTED BY IDOCK:   -0.99 KCAL/MOL
REMARK 924 INTRA-LIGAND FREE ENERGY PREDICTED BY IDOCK:   -0.02 KCAL/MOL
REMARK 927      BINDING AFFINITY PREDICTED BY RF-SCORE:    0.00 PKD
ROOT
ATOM      1  N   CYS A   1      -7.708   8.386  72.752  1.00  0.00    -0.285 NA 
ATOM      2  H1  CYS A   1      -8.278   9.151  72.390  1.00  0.00     0.000 HD 
ATOM      3  CA  CYS A   1      -7.916   7.092  72.014  1.00  0.00    -0.092 C  
ATOM      4  H2  CYS A   1      -6.722   8.642  72.765  1.00  0.00     0.000 HD 
ATOM      5  C   CYS A   1      -9.394   6.705  72.121  1.00  0.00    -0.141 C  
ATOM      6  O   CYS A   1     -10.132   7.709  72.664  1.00  0.00    -0.201 OA 
ATOM      7  OXT CYS A   1      -9.869   5.640  71.764  1.00  0.00    -0.163 OA 
ENDROOT
BRANCH   3   8
ATOM      8  CB  CYS A   1      -7.060   5.942  72.558  1.00  0.00    -0.085 C  
ATOM      9  SG  CYS A   1      -5.703   5.503  71.418  1.00  0.00    -0.024 SA 
ATOM     10  HG  CYS A   1      -4.928   4.461  71.911  1.00  0.00     0.000 H  
ENDBRANCH   3   8
TORSDOF 1
ENDMDL
MODEL      193
REMARK 921   NORMALIZED FREE ENERGY PREDICTED BY IDOCK:   -0.93 KCAL/MOL
REMARK 922        TOTAL FREE ENERGY PREDICTED BY IDOCK:   -0.99 KCAL/MOL
REMARK 923 INTER-LIGAND FREE ENERGY PREDICTED BY IDOCK:   -0.97 KCAL/MOL
REMARK 924 INTRA-LIGAND FREE ENERGY PREDICTED BY IDOCK:   -0.02 KCAL/MOL
REMARK 927      BINDING AFFINITY PREDICTED BY RF-SCORE:    0.00 PKD
ROOT
ATOM      1  N   CYS A   1      -9.769   6.208  70.221  1.00  0.00    -0.163 NA 
ATOM      2  H1  CYS A   1     -10.723   5.862  70.121  1.00  0.00     0.000 HD 
ATOM      3  CA  CYS A   1      -9.429   7.299  69.242  1.00  0.00    -0.153 C  
ATOM      4  H2  CYS A   1      -9.591   6.512  71.178  1.00  0.00     0.000 HD 
ATOM      5  C   CYS A   1      -9.613   6.750  67.823  1.00  0.00    -0.124 C  
ATOM      6  O   CYS A   1     -10.210   5.530  67.836  1.00  0.00    -0.165 OA 
ATOM      7  OXT CYS A   1      -9.280   7.324  66.799  1.00  0.00    -0.142 OA 
ENDROOT
BRANCH   3   8
ATOM      8  CB  CYS A   1      -7.995   7.820  69.391  1.00  0.00    -0.124 C  
ATOM      9  SG  CYS A   1      -7.896   9.626  69.140  1.00  0.00    -0.097 SA 
ATOM     10  HG  CYS A   1      -6.596  10.098  69.275  1.00  0.00     0.000 H  
ENDBRANCH   3   8
TORSDOF 1
ENDMDL
MODEL      194
REMARK 921   NORMALIZED FREE ENERGY PREDICTED BY IDOCK:   -0.92 KCAL/MOL
REMARK 922        TOTAL FREE ENERGY PREDICTED BY IDOCK:   -0.98 KCAL/MOL
REMARK 923 INTER-LIGAND FREE ENERGY PREDICTED BY IDOCK:   -0.91 KCAL/MOL
REMARK 924 INTRA-LIGAND FREE ENERGY PREDICTED BY IDOCK:   -0.07 KCAL/MOL
REMARK 927      BINDING AFFINITY PREDICTED BY RF-SCORE:    0.00 PKD
ROOT
ATOM      1  N   CYS A   1      -6.939   9.554  67.626  1.00  0.00    -0.079 NA 
ATOM      2  H1  CYS A   1      -6.047   9.749  67.172  1.00  0.00     0.000 HD 
ATOM      3  CA  CYS A   1      -7.323  10.589  68.648  1.00  0.00    -0.091 C  
ATOM      4  H2  CYS A   1      -7.680   9.436  66.934  1.00  0.00     0.000 HD 
ATOM      5  C   CYS A   1      -6.225  10.645  69.715  1.00  0.00    -0.085 C  
ATOM      6  O   CYS A   1      -5.140   9.913  69.350  1.00  0.00    -0.036 OA 
ATOM      7  OXT CYS A   1      -6.294  11.268  70.762  1.00  0.00    -0.320 OA 
ENDROOT
BRANCH   3   8
ATOM      8  CB  CYS A   1      -8.665  10.297  69.330  1.00  0.00    -0.156 C  
ATOM      9  SG  CYS A   1      -8.722   8.612  70.030  1.00  0.00    -0.147 SA 
ATOM     10  HG  CYS A   1      -9.938   8.347  70.648  1.00  0.00     0.000 H  
ENDBRANCH   3   8
TORSDOF 1
ENDMDL
MODEL      195
REMARK 921   NORMALIZED FREE ENERGY PREDICTED BY IDOCK:   -0.89 KCAL/MOL
REMARK 922        TOTAL FREE ENERGY PREDICTED BY IDOCK:   -0.95 KCAL/MOL
REMARK 923 INTER-LIGAND FREE ENERGY PREDICTED BY IDOCK:   -0.94 KCAL/MOL
REMARK 924 INTRA-LIGAND FREE ENERGY PREDICTED BY IDOCK:   -0.01 KCAL/MOL
REMARK 927      BINDING AFFINITY PREDICTED BY RF-SCORE:    0.00 PKD
ROOT
ATOM      1  N   CYS A   1     -10.427   5.115  71.586  1.00  0.00    -0.206 NA 
ATOM      2  H1  CYS A   1     -10.781   4.630  70.761  1.00  0.00     0.000 HD 
ATOM      3  CA  CYS A   1      -9.030   5.643  71.410  1.00  0.00    -0.140 C  
ATOM      4  H2  CYS A   1     -11.064   5.860  71.869  1.00  0.00     0.000 HD 
ATOM      5  C   CYS A   1      -8.104   4.465  71.092  1.00  0.00    -0.081 C  
ATOM      6  O   CYS A   1      -8.809   3.327  70.862  1.00  0.00    -0.074 OA 
ATOM      7  OXT CYS A   1      -6.886   4.523  71.039  1.00  0.00    -0.034 OA 
ENDROOT
BRANCH   3   8
ATOM      8  CB  CYS A   1      -8.498   6.374  72.649  1.00  0.00    -0.122 C  
ATOM      9  SG  CYS A   1      -9.613   7.718  73.180  1.00  0.00    -0.287 SA 
ATOM     10  HG  CYS A   1      -9.131   8.379  74.303  1.00  0.00     0.000 H  
ENDBRANCH   3   8
TORSDOF 1
ENDMDL
MODEL      196
REMARK 921   NORMALIZED FREE ENERGY PREDICTED BY IDOCK:   -0.87 KCAL/MOL
REMARK 922        TOTAL FREE ENERGY PREDICTED BY IDOCK:   -0.92 KCAL/MOL
REMARK 923 INTER-LIGAND FREE ENERGY PREDICTED BY IDOCK:   -0.85 KCAL/MOL
REMARK 924 INTRA-LIGAND FREE ENERGY PREDICTED BY IDOCK:   -0.07 KCAL/MOL
REMARK 927      BINDING AFFINITY PREDICTED BY RF-SCORE:    0.00 PKD
ROOT
ATOM      1  N   CYS A   1      -6.957   5.079  70.481  1.00  0.00    -0.044 NA 
ATOM      2  H1  CYS A   1      -6.796   4.071  70.503  1.00  0.00     0.000 HD 
ATOM      3  CA  CYS A   1      -8.004   5.533  71.461  1.00  0.00    -0.116 C  
ATOM      4  H2  CYS A   1      -6.085   5.588  70.620  1.00  0.00     0.000 HD 
ATOM      5  C   CYS A   1      -9.317   4.814  71.136  1.00  0.00    -0.148 C  
ATOM      6  O   CYS A   1      -9.132   3.839  70.207  1.00  0.00    -0.097 OA 
ATOM      7  OXT CYS A   1     -10.399   5.064  71.640  1.00  0.00    -0.204 OA 
ENDROOT
BRANCH   3   8
ATOM      8  CB  CYS A   1      -8.246   7.048  71.429  1.00  0.00    -0.109 C  
ATOM      9  SG  CYS A   1      -8.603   7.645  69.742  1.00  0.00    -0.135 SA 
ATOM     10  HG  CYS A   1      -8.822   9.017  69.713  1.00  0.00     0.000 H  
ENDBRANCH   3   8
TORSDOF 1
ENDMDL
MODEL      197
REMARK 921   NORMALIZED FREE ENERGY PREDICTED BY IDOCK:   -0.86 KCAL/MOL
REMARK 922        TOTAL FREE ENERGY PREDICTED BY IDOCK:   -0.92 KCAL/MOL
REMARK 923 INTER-LIGAND FREE ENERGY PREDICTED BY IDOCK:   -0.90 KCAL/MOL
REMARK 924 INTRA-LIGAND FREE ENERGY PREDICTED BY IDOCK:   -0.02 KCAL/MOL
REMARK 927      BINDING AFFINITY PREDICTED BY RF-SCORE:    0.00 PKD
ROOT
ATOM      1  N   CYS A   1      -7.725  10.415  67.347  1.00  0.00    -0.095 NA 
ATOM      2  H1  CYS A   1      -7.191  10.827  68.112  1.00  0.00     0.000 HD 
ATOM      3  CA  CYS A   1      -8.785   9.456  67.814  1.00  0.00    -0.116 C  
ATOM      4  H2  CYS A   1      -8.129  11.140  66.754  1.00  0.00     0.000 HD 
ATOM      5  C   CYS A   1      -8.107   8.334  68.608  1.00  0.00    -0.120 C  
ATOM      6  O   CYS A   1      -6.797   8.611  68.839  1.00  0.00    -0.059 OA 
ATOM      7  OXT CYS A   1      -8.657   7.317  68.997  1.00  0.00    -0.129 OA 
ENDROOT
BRANCH   3   8
ATOM      8  CB  CYS A   1      -9.589   8.835  66.665  1.00  0.00    -0.220 C  
ATOM      9  SG  CYS A   1      -8.811   9.145  65.043  1.00  0.00    -0.162 SA 
ATOM     10  HG  CYS A   1      -9.539   8.583  64.002  1.00  0.00     0.000 H  
ENDBRANCH   3   8
TORSDOF 1
ENDMDL
MODEL      198
REMARK 921   NORMALIZED FREE ENERGY PREDICTED BY IDOCK:   -0.85 KCAL/MOL
REMARK 922        TOTAL FREE ENERGY PREDICTED BY IDOCK:   -0.91 KCAL/MOL
REMARK 923 INTER-LIGAND FREE ENERGY PREDICTED BY IDOCK:   -0.87 KCAL/MOL
REMARK 924 INTRA-LIGAND FREE ENERGY PREDICTED BY IDOCK:   -0.03 KCAL/MOL
REMARK 927      BINDING AFFINITY PREDICTED BY RF-SCORE:    0.00 PKD
ROOT
ATOM      1  N   CYS A   1      -9.867   1.874  71.368  1.00  0.00    -0.142 NA 
ATOM      2  H1  CYS A   1      -9.165   1.492  70.734  1.00  0.00     0.000 HD 
ATOM      3  CA  CYS A   1      -9.445   3.167  72.009  1.00  0.00    -0.134 C  
ATOM      4  H2  CYS A   1     -10.764   1.979  70.894  1.00  0.00     0.000 HD 
ATOM      5  C   CYS A   1      -8.151   2.920  72.792  1.00  0.00    -0.067 C  
ATOM      6  O   CYS A   1      -7.643   1.687  72.534  1.00  0.00    -0.040 OA 
ATOM      7  OXT CYS A   1      -7.625   3.719  73.549  1.00  0.00    -0.067 OA 
ENDROOT
BRANCH   3   8
ATOM      8  CB  CYS A   1     -10.501   3.742  72.962  1.00  0.00    -0.174 C  
ATOM      9  SG  CYS A   1     -11.005   5.429  72.483  1.00  0.00    -0.249 SA 
ATOM     10  HG  CYS A   1     -11.961   5.950  73.347  1.00  0.00     0.000 H  
ENDBRANCH   3   8
TORSDOF 1
ENDMDL
MODEL      199
REMARK 921   NORMALIZED FREE ENERGY PREDICTED BY IDOCK:   -0.81 KCAL/MOL
REMARK 922        TOTAL FREE ENERGY PREDICTED BY IDOCK:   -0.87 KCAL/MOL
REMARK 923 INTER-LIGAND FREE ENERGY PREDICTED BY IDOCK:   -0.86 KCAL/MOL
REMARK 924 INTRA-LIGAND FREE ENERGY PREDICTED BY IDOCK:   -0.01 KCAL/MOL
REMARK 927      BINDING AFFINITY PREDICTED BY RF-SCORE:    0.00 PKD
ROOT
ATOM      1  N   CYS A   1      -7.869  10.129  70.711  1.00  0.00    -0.300 NA 
ATOM      2  H1  CYS A   1      -8.036  10.350  71.693  1.00  0.00     0.000 HD 
ATOM      3  CA  CYS A   1      -7.616   8.666  70.468  1.00  0.00    -0.077 C  
ATOM      4  H2  CYS A   1      -8.635  10.466  70.128  1.00  0.00     0.000 HD 
ATOM      5  C   CYS A   1      -6.391   8.245  71.288  1.00  0.00    -0.038 C  
ATOM      6  O   CYS A   1      -6.002   9.228  72.141  1.00  0.00    -0.190 OA 
ATOM      7  OXT CYS A   1      -5.827   7.166  71.204  1.00  0.00    -0.035 OA 
ENDROOT
BRANCH   3   8
ATOM      8  CB  CYS A   1      -7.365   8.333  68.993  1.00  0.00    -0.089 C  
ATOM      9  SG  CYS A   1      -8.915   7.953  68.106  1.00  0.00    -0.130 SA 
ATOM     10  HG  CYS A   1      -8.688   7.651  66.769  1.00  0.00     0.000 H  
ENDBRANCH   3   8
TORSDOF 1
ENDMDL
MODEL      200
REMARK 921   NORMALIZED FREE ENERGY PREDICTED BY IDOCK:   -0.72 KCAL/MOL
REMARK 922        TOTAL FREE ENERGY PREDICTED BY IDOCK:   -0.76 KCAL/MOL
REMARK 923 INTER-LIGAND FREE ENERGY PREDICTED BY IDOCK:   -0.75 KCAL/MOL
REMARK 924 INTRA-LIGAND FREE ENERGY PREDICTED BY IDOCK:   -0.01 KCAL/MOL
REMARK 927      BINDING AFFINITY PREDICTED BY RF-SCORE:    0.00 PKD
ROOT
ATOM      1  N   CYS A   1      -7.132   5.810  66.929  1.00  0.00    -0.069 NA 
ATOM      2  H1  CYS A   1      -7.073   5.849  65.911  1.00  0.00     0.000 HD 
ATOM      3  CA  CYS A   1      -8.301   6.576  67.484  1.00  0.00    -0.121 C  
ATOM      4  H2  CYS A   1      -7.143   4.844  67.256  1.00  0.00     0.000 HD 
ATOM      5  C   CYS A   1      -8.172   8.040  67.049  1.00  0.00    -0.116 C  
ATOM      6  O   CYS A   1      -7.176   8.201  66.139  1.00  0.00    -0.065 OA 
ATOM      7  OXT CYS A   1      -8.870   8.956  67.451  1.00  0.00    -0.128 OA 
ENDROOT
BRANCH   3   8
ATOM      8  CB  CYS A   1      -8.391   6.519  69.014  1.00  0.00    -0.116 C  
ATOM      9  SG  CYS A   1      -9.329   5.062  69.588  1.00  0.00    -0.140 SA 
ATOM     10  HG  CYS A   1      -9.410   5.010  70.974  1.00  0.00     0.000 H  
ENDBRANCH   3   8
TORSDOF 1
ENDMDL
MODEL      201
REMARK 921   NORMALIZED FREE ENERGY PREDICTED BY IDOCK:    7.58 KCAL/MOL
REMARK 922        TOTAL FREE ENERGY PREDICTED BY IDOCK:    8.02 KCAL/MOL
REMARK 923 INTER-LIGAND FREE ENERGY PREDICTED BY IDOCK:    6.97 KCAL/MOL
REMARK 924 INTRA-LIGAND FREE ENERGY PREDICTED BY IDOCK:    1.05 KCAL/MOL
REMARK 927      BINDING AFFINITY PREDICTED BY RF-SCORE:    0.00 PKD
ROOT
ATOM      1  N   CYS A   1     -11.552  15.789  63.682  1.00  0.00    -0.706 NA 
ATOM      2  H1  CYS A   1     -10.549  15.967  63.739  1.00  0.00     0.000 HD 
ATOM      3  CA  CYS A   1     -12.098  15.078  64.890  1.00  0.00    -0.201 C  
ATOM      4  H2  CYS A   1     -12.064  16.654  63.508  1.00  0.00     0.000 HD 
ATOM      5  C   CYS A   1     -11.365  13.741  65.037  1.00  0.00    -0.328 C  
ATOM      6  O   CYS A   1     -10.313  13.655  64.181  1.00  0.00    -0.315 OA 
ATOM      7  OXT CYS A   1     -11.667  12.856  65.820  1.00  0.00    -0.348 OA 
ENDROOT
BRANCH   3   8
ATOM      8  CB  CYS A   1     -13.606  14.812  64.805  1.00  0.00     1.976 C  
ATOM      9  SG  CYS A   1     -14.143  13.544  66.003  1.00  0.00     6.890 SA 
ATOM     10  HG  CYS A   1     -15.509  13.302  65.926  1.00  0.00     0.000 H  
ENDBRANCH   3   8
TORSDOF 1
ENDMDL
