MODEL        1
REMARK 921   NORMALIZED FREE ENERGY PREDICTED BY IDOCK:   -2.79 KCAL/MOL
REMARK 922        TOTAL FREE ENERGY PREDICTED BY IDOCK:   -2.95 KCAL/MOL
REMARK 923 INTER-LIGAND FREE ENERGY PREDICTED BY IDOCK:   -2.95 KCAL/MOL
REMARK 924 INTRA-LIGAND FREE ENERGY PREDICTED BY IDOCK:    0.00 KCAL/MOL
REMARK 927      BINDING AFFINITY PREDICTED BY RF-SCORE:    0.00 PKD
ROOT
HETATM    1  N   UNL     1     -11.646  16.378  63.888  1.00  0.00    -1.602 NA 
HETATM    2  C   UNL     1     -10.844  15.821  64.980  1.00  0.00    -0.443 C  
HETATM    3  H1  UNL     1     -11.714  17.393  63.961  1.00  0.00     0.000 HD 
HETATM    4  H2  UNL     1     -12.567  15.942  63.840  1.00  0.00     0.000 HD 
ENDROOT
BRANCH   2   5
HETATM    5  C   UNL     1     -10.741  14.296  64.870  1.00  0.00    -0.432 C  
HETATM    6  S   UNL     1     -12.271  13.501  65.448  1.00  0.00    -0.477 SA 
HETATM    7  H   UNL     1     -12.178  12.118  65.349  1.00  0.00     0.000 H  
ENDBRANCH   2   5
TORSDOF 1
ENDMDL
MODEL        2
REMARK 921   NORMALIZED FREE ENERGY PREDICTED BY IDOCK:   -2.76 KCAL/MOL
REMARK 922        TOTAL FREE ENERGY PREDICTED BY IDOCK:   -2.92 KCAL/MOL
REMARK 923 INTER-LIGAND FREE ENERGY PREDICTED BY IDOCK:   -2.92 KCAL/MOL
REMARK 924 INTRA-LIGAND FREE ENERGY PREDICTED BY IDOCK:    0.00 KCAL/MOL
REMARK 927      BINDING AFFINITY PREDICTED BY RF-SCORE:    0.00 PKD
ROOT
HETATM    1  N   UNL     1     -11.563  16.356  63.888  1.00  0.00    -1.602 NA 
HETATM    2  C   UNL     1     -11.195  15.372  64.908  1.00  0.00    -0.403 C  
HETATM    3  H1  UNL     1     -10.842  17.071  63.788  1.00  0.00     0.000 HD 
HETATM    4  H2  UNL     1     -12.477  16.768  64.078  1.00  0.00     0.000 HD 
ENDROOT
BRANCH   2   5
HETATM    5  C   UNL     1     -12.277  14.299  65.059  1.00  0.00    -0.433 C  
HETATM    6  S   UNL     1     -11.923  12.870  63.992  1.00  0.00    -0.487 SA 
HETATM    7  H   UNL     1     -12.905  11.895  64.128  1.00  0.00     0.000 H  
ENDBRANCH   2   5
TORSDOF 1
ENDMDL
MODEL        3
REMARK 921   NORMALIZED FREE ENERGY PREDICTED BY IDOCK:   -2.51 KCAL/MOL
REMARK 922        TOTAL FREE ENERGY PREDICTED BY IDOCK:   -2.66 KCAL/MOL
REMARK 923 INTER-LIGAND FREE ENERGY PREDICTED BY IDOCK:   -2.66 KCAL/MOL
REMARK 924 INTRA-LIGAND FREE ENERGY PREDICTED BY IDOCK:    0.00 KCAL/MOL
REMARK 927      BINDING AFFINITY PREDICTED BY RF-SCORE:    0.00 PKD
ROOT
HETATM    1  N   UNL     1     -11.631  16.324  63.843  1.00  0.00    -1.573 NA 
HETATM    2  C   UNL     1     -11.727  15.065  64.584  1.00  0.00    -0.382 C  
HETATM    3  H1  UNL     1     -12.413  16.432  63.197  1.00  0.00     0.000 HD 
HETATM    4  H2  UNL     1     -10.734  16.410  63.366  1.00  0.00     0.000 HD 
ENDROOT
BRANCH   2   5
HETATM    5  C   UNL     1     -10.554  14.902  65.556  1.00  0.00    -0.357 C  
HETATM    6  S   UNL     1     -11.141  14.853  67.276  1.00  0.00    -0.343 SA 
HETATM    7  H   UNL     1     -10.077  14.705  68.158  1.00  0.00     0.000 H  
ENDBRANCH   2   5
TORSDOF 1
ENDMDL
MODEL        4
REMARK 921   NORMALIZED FREE ENERGY PREDICTED BY IDOCK:   -2.45 KCAL/MOL
REMARK 922        TOTAL FREE ENERGY PREDICTED BY IDOCK:   -2.60 KCAL/MOL
REMARK 923 INTER-LIGAND FREE ENERGY PREDICTED BY IDOCK:   -2.60 KCAL/MOL
REMARK 924 INTRA-LIGAND FREE ENERGY PREDICTED BY IDOCK:    0.00 KCAL/MOL
REMARK 927      BINDING AFFINITY PREDICTED BY RF-SCORE:    0.00 PKD
ROOT
HETATM    1  N   UNL     1     -11.553  16.239  63.857  1.00  0.00    -1.573 NA 
HETATM    2  C   UNL     1     -10.760  15.877  65.034  1.00  0.00    -0.404 C  
HETATM    3  H1  UNL     1     -11.481  17.236  63.655  1.00  0.00     0.000 HD 
HETATM    4  H2  UNL     1     -12.526  15.946  63.956  1.00  0.00     0.000 HD 
ENDROOT
BRANCH   2   5
HETATM    5  C   UNL     1     -10.869  14.380  65.337  1.00  0.00    -0.344 C  
HETATM    6  S   UNL     1      -9.582  13.862  66.512  1.00  0.00    -0.275 SA 
HETATM    7  H   UNL     1      -9.680  12.503  66.787  1.00  0.00     0.000 H  
ENDBRANCH   2   5
TORSDOF 1
ENDMDL
MODEL        5
REMARK 921   NORMALIZED FREE ENERGY PREDICTED BY IDOCK:   -2.36 KCAL/MOL
REMARK 922        TOTAL FREE ENERGY PREDICTED BY IDOCK:   -2.50 KCAL/MOL
REMARK 923 INTER-LIGAND FREE ENERGY PREDICTED BY IDOCK:   -2.50 KCAL/MOL
REMARK 924 INTRA-LIGAND FREE ENERGY PREDICTED BY IDOCK:    0.00 KCAL/MOL
REMARK 927      BINDING AFFINITY PREDICTED BY RF-SCORE:    0.00 PKD
ROOT
HETATM    1  N   UNL     1     -12.503  14.047  63.272  1.00  0.00    -1.112 NA 
HETATM    2  C   UNL     1     -12.043  12.674  63.488  1.00  0.00    -0.561 C  
HETATM    3  H1  UNL     1     -13.455  14.064  62.904  1.00  0.00     0.000 HD 
HETATM    4  H2  UNL     1     -11.860  14.568  62.674  1.00  0.00     0.000 HD 
ENDROOT
BRANCH   2   5
HETATM    5  C   UNL     1     -10.614  12.649  64.040  1.00  0.00    -0.427 C  
HETATM    6  S   UNL     1     -10.301  14.098  65.093  1.00  0.00    -0.396 SA 
HETATM    7  H   UNL     1      -9.005  14.075  65.595  1.00  0.00     0.000 H  
ENDBRANCH   2   5
TORSDOF 1
ENDMDL
MODEL        6
REMARK 921   NORMALIZED FREE ENERGY PREDICTED BY IDOCK:   -2.36 KCAL/MOL
REMARK 922        TOTAL FREE ENERGY PREDICTED BY IDOCK:   -2.49 KCAL/MOL
REMARK 923 INTER-LIGAND FREE ENERGY PREDICTED BY IDOCK:   -2.49 KCAL/MOL
REMARK 924 INTRA-LIGAND FREE ENERGY PREDICTED BY IDOCK:    0.00 KCAL/MOL
REMARK 927      BINDING AFFINITY PREDICTED BY RF-SCORE:    0.00 PKD
ROOT
HETATM    1  N   UNL     1     -14.078   8.927  73.257  1.00  0.00    -1.248 NA 
HETATM    2  C   UNL     1     -13.766   9.057  71.832  1.00  0.00    -0.441 C  
HETATM    3  H1  UNL     1     -14.847   8.274  73.409  1.00  0.00     0.000 HD 
HETATM    4  H2  UNL     1     -14.266   9.835  73.683  1.00  0.00     0.000 HD 
ENDROOT
BRANCH   2   5
HETATM    5  C   UNL     1     -12.612  10.037  71.604  1.00  0.00    -0.427 C  
HETATM    6  S   UNL     1     -11.030   9.152  71.464  1.00  0.00    -0.378 SA 
HETATM    7  H   UNL     1      -9.982  10.041  71.256  1.00  0.00     0.000 H  
ENDBRANCH   2   5
TORSDOF 1
ENDMDL
MODEL        7
REMARK 921   NORMALIZED FREE ENERGY PREDICTED BY IDOCK:   -2.35 KCAL/MOL
REMARK 922        TOTAL FREE ENERGY PREDICTED BY IDOCK:   -2.49 KCAL/MOL
REMARK 923 INTER-LIGAND FREE ENERGY PREDICTED BY IDOCK:   -2.49 KCAL/MOL
REMARK 924 INTRA-LIGAND FREE ENERGY PREDICTED BY IDOCK:    0.00 KCAL/MOL
REMARK 927      BINDING AFFINITY PREDICTED BY RF-SCORE:    0.00 PKD
ROOT
HETATM    1  N   UNL     1     -14.061   8.869  73.266  1.00  0.00    -1.248 NA 
HETATM    2  C   UNL     1     -13.714   9.007  71.850  1.00  0.00    -0.441 C  
HETATM    3  H1  UNL     1     -15.021   8.545  73.381  1.00  0.00     0.000 HD 
HETATM    4  H2  UNL     1     -13.893   9.735  73.779  1.00  0.00     0.000 HD 
ENDROOT
BRANCH   2   5
HETATM    5  C   UNL     1     -12.272   9.492  71.677  1.00  0.00    -0.398 C  
HETATM    6  S   UNL     1     -12.217  11.018  70.689  1.00  0.00    -0.404 SA 
HETATM    7  H   UNL     1     -10.908  11.459  70.532  1.00  0.00     0.000 H  
ENDBRANCH   2   5
TORSDOF 1
ENDMDL
MODEL        8
REMARK 921   NORMALIZED FREE ENERGY PREDICTED BY IDOCK:   -2.34 KCAL/MOL
REMARK 922        TOTAL FREE ENERGY PREDICTED BY IDOCK:   -2.47 KCAL/MOL
REMARK 923 INTER-LIGAND FREE ENERGY PREDICTED BY IDOCK:   -2.47 KCAL/MOL
REMARK 924 INTRA-LIGAND FREE ENERGY PREDICTED BY IDOCK:    0.00 KCAL/MOL
REMARK 927      BINDING AFFINITY PREDICTED BY RF-SCORE:    0.00 PKD
ROOT
HETATM    1  N   UNL     1     -13.005  16.315  74.540  1.00  0.00    -0.931 NA 
HETATM    2  C   UNL     1     -12.403  15.142  73.903  1.00  0.00    -0.591 C  
HETATM    3  H1  UNL     1     -12.662  16.434  75.494  1.00  0.00     0.000 HD 
HETATM    4  H2  UNL     1     -14.024  16.277  74.509  1.00  0.00     0.000 HD 
ENDROOT
BRANCH   2   5
HETATM    5  C   UNL     1     -12.917  14.963  72.472  1.00  0.00    -0.383 C  
HETATM    6  S   UNL     1     -13.762  13.364  72.282  1.00  0.00    -0.567 SA 
HETATM    7  H   UNL     1     -14.228  13.202  70.982  1.00  0.00     0.000 H  
ENDBRANCH   2   5
TORSDOF 1
ENDMDL
MODEL        9
REMARK 921   NORMALIZED FREE ENERGY PREDICTED BY IDOCK:   -2.31 KCAL/MOL
REMARK 922        TOTAL FREE ENERGY PREDICTED BY IDOCK:   -2.44 KCAL/MOL
REMARK 923 INTER-LIGAND FREE ENERGY PREDICTED BY IDOCK:   -2.44 KCAL/MOL
REMARK 924 INTRA-LIGAND FREE ENERGY PREDICTED BY IDOCK:    0.00 KCAL/MOL
REMARK 927      BINDING AFFINITY PREDICTED BY RF-SCORE:    0.00 PKD
ROOT
HETATM    1  N   UNL     1     -12.409  13.902  63.017  1.00  0.00    -1.023 NA 
HETATM    2  C   UNL     1     -12.090  12.569  63.534  1.00  0.00    -0.562 C  
HETATM    3  H1  UNL     1     -12.252  13.954  62.010  1.00  0.00     0.000 HD 
HETATM    4  H2  UNL     1     -11.896  14.629  63.515  1.00  0.00     0.000 HD 
ENDROOT
BRANCH   2   5
HETATM    5  C   UNL     1     -12.326  12.490  65.045  1.00  0.00    -0.453 C  
HETATM    6  S   UNL     1     -11.864  14.052  65.855  1.00  0.00    -0.401 SA 
HETATM    7  H   UNL     1     -12.078  13.980  67.226  1.00  0.00     0.000 H  
ENDBRANCH   2   5
TORSDOF 1
ENDMDL
MODEL       10
REMARK 921   NORMALIZED FREE ENERGY PREDICTED BY IDOCK:   -2.27 KCAL/MOL
REMARK 922        TOTAL FREE ENERGY PREDICTED BY IDOCK:   -2.40 KCAL/MOL
REMARK 923 INTER-LIGAND FREE ENERGY PREDICTED BY IDOCK:   -2.40 KCAL/MOL
REMARK 924 INTRA-LIGAND FREE ENERGY PREDICTED BY IDOCK:    0.00 KCAL/MOL
REMARK 927      BINDING AFFINITY PREDICTED BY RF-SCORE:    0.00 PKD
ROOT
HETATM    1  N   UNL     1     -12.482  13.727  63.165  1.00  0.00    -1.074 NA 
HETATM    2  C   UNL     1     -11.866  14.173  64.416  1.00  0.00    -0.428 C  
HETATM    3  H1  UNL     1     -13.344  14.239  62.975  1.00  0.00     0.000 HD 
HETATM    4  H2  UNL     1     -12.635  12.719  63.161  1.00  0.00     0.000 HD 
ENDROOT
BRANCH   2   5
HETATM    5  C   UNL     1     -10.571  13.405  64.701  1.00  0.00    -0.415 C  
HETATM    6  S   UNL     1     -10.430  11.950  63.620  1.00  0.00    -0.485 SA 
HETATM    7  H   UNL     1      -9.255  11.253  63.878  1.00  0.00     0.000 H  
ENDBRANCH   2   5
TORSDOF 1
ENDMDL
MODEL       11
REMARK 921   NORMALIZED FREE ENERGY PREDICTED BY IDOCK:   -2.20 KCAL/MOL
REMARK 922        TOTAL FREE ENERGY PREDICTED BY IDOCK:   -2.33 KCAL/MOL
REMARK 923 INTER-LIGAND FREE ENERGY PREDICTED BY IDOCK:   -2.33 KCAL/MOL
REMARK 924 INTRA-LIGAND FREE ENERGY PREDICTED BY IDOCK:    0.00 KCAL/MOL
REMARK 927      BINDING AFFINITY PREDICTED BY RF-SCORE:    0.00 PKD
ROOT
HETATM    1  N   UNL     1     -12.493  14.566  63.555  1.00  0.00    -1.063 NA 
HETATM    2  C   UNL     1     -11.792  14.702  64.833  1.00  0.00    -0.403 C  
HETATM    3  H1  UNL     1     -12.221  15.303  62.904  1.00  0.00     0.000 HD 
HETATM    4  H2  UNL     1     -13.505  14.534  63.684  1.00  0.00     0.000 HD 
ENDROOT
BRANCH   2   5
HETATM    5  C   UNL     1     -12.200  13.595  65.809  1.00  0.00    -0.464 C  
HETATM    6  S   UNL     1     -11.807  14.065  67.521  1.00  0.00    -0.402 SA 
HETATM    7  H   UNL     1     -12.178  13.061  68.408  1.00  0.00     0.000 H  
ENDBRANCH   2   5
TORSDOF 1
ENDMDL
MODEL       12
REMARK 921   NORMALIZED FREE ENERGY PREDICTED BY IDOCK:   -2.18 KCAL/MOL
REMARK 922        TOTAL FREE ENERGY PREDICTED BY IDOCK:   -2.31 KCAL/MOL
REMARK 923 INTER-LIGAND FREE ENERGY PREDICTED BY IDOCK:   -2.31 KCAL/MOL
REMARK 924 INTRA-LIGAND FREE ENERGY PREDICTED BY IDOCK:    0.00 KCAL/MOL
REMARK 927      BINDING AFFINITY PREDICTED BY RF-SCORE:    0.00 PKD
ROOT
HETATM    1  N   UNL     1     -12.479  11.616  63.015  1.00  0.00    -0.937 NA 
HETATM    2  C   UNL     1     -11.431  12.413  63.655  1.00  0.00    -0.489 C  
HETATM    3  H1  UNL     1     -12.101  10.749  62.632  1.00  0.00     0.000 HD 
HETATM    4  H2  UNL     1     -12.978  12.154  62.306  1.00  0.00     0.000 HD 
ENDROOT
BRANCH   2   5
HETATM    5  C   UNL     1     -11.998  13.714  64.231  1.00  0.00    -0.445 C  
HETATM    6  S   UNL     1     -11.941  13.697  66.048  1.00  0.00    -0.440 SA 
HETATM    7  H   UNL     1     -12.456  14.878  66.571  1.00  0.00     0.000 H  
ENDBRANCH   2   5
TORSDOF 1
ENDMDL
MODEL       13
REMARK 921   NORMALIZED FREE ENERGY PREDICTED BY IDOCK:   -2.17 KCAL/MOL
REMARK 922        TOTAL FREE ENERGY PREDICTED BY IDOCK:   -2.30 KCAL/MOL
REMARK 923 INTER-LIGAND FREE ENERGY PREDICTED BY IDOCK:   -2.30 KCAL/MOL
REMARK 924 INTRA-LIGAND FREE ENERGY PREDICTED BY IDOCK:    0.00 KCAL/MOL
REMARK 927      BINDING AFFINITY PREDICTED BY RF-SCORE:    0.00 PKD
ROOT
HETATM    1  N   UNL     1     -14.022  13.829  72.625  1.00  0.00    -0.732 NA 
HETATM    2  C   UNL     1     -14.387  14.953  71.760  1.00  0.00    -0.578 C  
HETATM    3  H1  UNL     1     -14.840  13.453  73.107  1.00  0.00     0.000 HD 
HETATM    4  H2  UNL     1     -13.285  14.086  73.282  1.00  0.00     0.000 HD 
ENDROOT
BRANCH   2   5
HETATM    5  C   UNL     1     -13.160  15.517  71.037  1.00  0.00    -0.489 C  
HETATM    6  S   UNL     1     -11.732  15.608  72.159  1.00  0.00    -0.499 SA 
HETATM    7  H   UNL     1     -10.619  16.119  71.503  1.00  0.00     0.000 H  
ENDBRANCH   2   5
TORSDOF 1
ENDMDL
MODEL       14
REMARK 921   NORMALIZED FREE ENERGY PREDICTED BY IDOCK:   -2.14 KCAL/MOL
REMARK 922        TOTAL FREE ENERGY PREDICTED BY IDOCK:   -2.27 KCAL/MOL
REMARK 923 INTER-LIGAND FREE ENERGY PREDICTED BY IDOCK:   -2.27 KCAL/MOL
REMARK 924 INTRA-LIGAND FREE ENERGY PREDICTED BY IDOCK:    0.00 KCAL/MOL
REMARK 927      BINDING AFFINITY PREDICTED BY RF-SCORE:    0.00 PKD
ROOT
HETATM    1  N   UNL     1     -13.031  16.137  74.175  1.00  0.00    -0.944 NA 
HETATM    2  C   UNL     1     -13.657  15.770  72.903  1.00  0.00    -0.577 C  
HETATM    3  H1  UNL     1     -13.596  16.820  74.681  1.00  0.00     0.000 HD 
HETATM    4  H2  UNL     1     -12.075  16.466  74.040  1.00  0.00     0.000 HD 
ENDROOT
BRANCH   2   5
HETATM    5  C   UNL     1     -12.810  14.745  72.143  1.00  0.00    -0.331 C  
HETATM    6  S   UNL     1     -12.433  15.333  70.464  1.00  0.00    -0.415 SA 
HETATM    7  H   UNL     1     -11.664  14.402  69.775  1.00  0.00     0.000 H  
ENDBRANCH   2   5
TORSDOF 1
ENDMDL
MODEL       15
REMARK 921   NORMALIZED FREE ENERGY PREDICTED BY IDOCK:   -2.06 KCAL/MOL
REMARK 922        TOTAL FREE ENERGY PREDICTED BY IDOCK:   -2.18 KCAL/MOL
REMARK 923 INTER-LIGAND FREE ENERGY PREDICTED BY IDOCK:   -2.18 KCAL/MOL
REMARK 924 INTRA-LIGAND FREE ENERGY PREDICTED BY IDOCK:    0.00 KCAL/MOL
REMARK 927      BINDING AFFINITY PREDICTED BY RF-SCORE:    0.00 PKD
ROOT
HETATM    1  N   UNL     1     -10.335  10.931  62.706  1.00  0.00    -0.783 NA 
HETATM    2  C   UNL     1     -10.921  11.546  63.898  1.00  0.00    -0.401 C  
HETATM    3  H1  UNL     1      -9.550  10.326  62.950  1.00  0.00     0.000 HD 
HETATM    4  H2  UNL     1     -10.067  11.632  62.015  1.00  0.00     0.000 HD 
ENDROOT
BRANCH   2   5
HETATM    5  C   UNL     1     -12.099  12.453  63.531  1.00  0.00    -0.558 C  
HETATM    6  S   UNL     1     -11.987  14.045  64.402  1.00  0.00    -0.440 SA 
HETATM    7  H   UNL     1     -13.056  14.869  64.069  1.00  0.00     0.000 H  
ENDBRANCH   2   5
TORSDOF 1
ENDMDL
MODEL       16
REMARK 921   NORMALIZED FREE ENERGY PREDICTED BY IDOCK:   -1.98 KCAL/MOL
REMARK 922        TOTAL FREE ENERGY PREDICTED BY IDOCK:   -2.10 KCAL/MOL
REMARK 923 INTER-LIGAND FREE ENERGY PREDICTED BY IDOCK:   -2.10 KCAL/MOL
REMARK 924 INTRA-LIGAND FREE ENERGY PREDICTED BY IDOCK:    0.00 KCAL/MOL
REMARK 927      BINDING AFFINITY PREDICTED BY RF-SCORE:    0.00 PKD
ROOT
HETATM    1  N   UNL     1     -12.300  14.458  63.826  1.00  0.00    -1.079 NA 
HETATM    2  C   UNL     1     -12.535  13.594  64.984  1.00  0.00    -0.414 C  
HETATM    3  H1  UNL     1     -13.130  14.518  63.235  1.00  0.00     0.000 HD 
HETATM    4  H2  UNL     1     -11.483  14.158  63.294  1.00  0.00     0.000 HD 
ENDROOT
BRANCH   2   5
HETATM    5  C   UNL     1     -11.290  13.504  65.871  1.00  0.00    -0.308 C  
HETATM    6  S   UNL     1     -10.995  11.791  66.403  1.00  0.00    -0.299 SA 
HETATM    7  H   UNL     1      -9.865  11.709  67.207  1.00  0.00     0.000 H  
ENDBRANCH   2   5
TORSDOF 1
ENDMDL
MODEL       17
REMARK 921   NORMALIZED FREE ENERGY PREDICTED BY IDOCK:   -1.96 KCAL/MOL
REMARK 922        TOTAL FREE ENERGY PREDICTED BY IDOCK:   -2.08 KCAL/MOL
REMARK 923 INTER-LIGAND FREE ENERGY PREDICTED BY IDOCK:   -2.08 KCAL/MOL
REMARK 924 INTRA-LIGAND FREE ENERGY PREDICTED BY IDOCK:    0.00 KCAL/MOL
REMARK 927      BINDING AFFINITY PREDICTED BY RF-SCORE:    0.00 PKD
ROOT
HETATM    1  N   UNL     1     -13.009  14.880  70.195  1.00  0.00    -0.609 NA 
HETATM    2  C   UNL     1     -13.716  15.119  71.455  1.00  0.00    -0.495 C  
HETATM    3  H1  UNL     1     -13.527  14.236  69.597  1.00  0.00     0.000 HD 
HETATM    4  H2  UNL     1     -12.055  14.558  70.357  1.00  0.00     0.000 HD 
ENDROOT
BRANCH   2   5
HETATM    5  C   UNL     1     -12.939  16.087  72.352  1.00  0.00    -0.367 C  
HETATM    6  S   UNL     1     -12.501  15.296  73.930  1.00  0.00    -0.604 SA 
HETATM    7  H   UNL     1     -11.796  16.174  74.745  1.00  0.00     0.000 H  
ENDBRANCH   2   5
TORSDOF 1
ENDMDL
MODEL       18
REMARK 921   NORMALIZED FREE ENERGY PREDICTED BY IDOCK:   -1.93 KCAL/MOL
REMARK 922        TOTAL FREE ENERGY PREDICTED BY IDOCK:   -2.05 KCAL/MOL
REMARK 923 INTER-LIGAND FREE ENERGY PREDICTED BY IDOCK:   -2.05 KCAL/MOL
REMARK 924 INTRA-LIGAND FREE ENERGY PREDICTED BY IDOCK:    0.00 KCAL/MOL
REMARK 927      BINDING AFFINITY PREDICTED BY RF-SCORE:    0.00 PKD
ROOT
HETATM    1  N   UNL     1     -12.373  10.596  68.936  1.00  0.00    -0.790 NA 
HETATM    2  C   UNL     1     -12.405  11.009  70.340  1.00  0.00    -0.356 C  
HETATM    3  H1  UNL     1     -12.654  11.359  68.320  1.00  0.00     0.000 HD 
HETATM    4  H2  UNL     1     -12.935   9.759  68.778  1.00  0.00     0.000 HD 
ENDROOT
BRANCH   2   5
HETATM    5  C   UNL     1     -11.982   9.863  71.265  1.00  0.00    -0.402 C  
HETATM    6  S   UNL     1     -13.412   9.202  72.173  1.00  0.00    -0.499 SA 
HETATM    7  H   UNL     1     -13.028   8.163  73.012  1.00  0.00     0.000 H  
ENDBRANCH   2   5
TORSDOF 1
ENDMDL
MODEL       19
REMARK 921   NORMALIZED FREE ENERGY PREDICTED BY IDOCK:   -1.91 KCAL/MOL
REMARK 922        TOTAL FREE ENERGY PREDICTED BY IDOCK:   -2.03 KCAL/MOL
REMARK 923 INTER-LIGAND FREE ENERGY PREDICTED BY IDOCK:   -2.03 KCAL/MOL
REMARK 924 INTRA-LIGAND FREE ENERGY PREDICTED BY IDOCK:    0.00 KCAL/MOL
REMARK 927      BINDING AFFINITY PREDICTED BY RF-SCORE:    0.00 PKD
ROOT
HETATM    1  N   UNL     1     -13.027  13.901  65.161  1.00  0.00    -0.773 NA 
HETATM    2  C   UNL     1     -12.154  13.146  66.063  1.00  0.00    -0.436 C  
HETATM    3  H1  UNL     1     -13.666  14.501  65.683  1.00  0.00     0.000 HD 
HETATM    4  H2  UNL     1     -13.528  13.284  64.522  1.00  0.00     0.000 HD 
ENDROOT
BRANCH   2   5
HETATM    5  C   UNL     1     -11.194  12.245  65.281  1.00  0.00    -0.328 C  
HETATM    6  S   UNL     1     -11.799  11.969  63.589  1.00  0.00    -0.491 SA 
HETATM    7  H   UNL     1     -10.928  11.152  62.878  1.00  0.00     0.000 H  
ENDBRANCH   2   5
TORSDOF 1
ENDMDL
MODEL       20
REMARK 921   NORMALIZED FREE ENERGY PREDICTED BY IDOCK:   -1.88 KCAL/MOL
REMARK 922        TOTAL FREE ENERGY PREDICTED BY IDOCK:   -1.99 KCAL/MOL
REMARK 923 INTER-LIGAND FREE ENERGY PREDICTED BY IDOCK:   -1.99 KCAL/MOL
REMARK 924 INTRA-LIGAND FREE ENERGY PREDICTED BY IDOCK:    0.00 KCAL/MOL
REMARK 927      BINDING AFFINITY PREDICTED BY RF-SCORE:    0.00 PKD
ROOT
HETATM    1  N   UNL     1     -12.353  14.557  68.534  1.00  0.00    -0.595 NA 
HETATM    2  C   UNL     1     -12.118  14.400  69.971  1.00  0.00    -0.343 C  
HETATM    3  H1  UNL     1     -11.955  13.780  68.007  1.00  0.00     0.000 HD 
HETATM    4  H2  UNL     1     -12.009  15.456  68.195  1.00  0.00     0.000 HD 
ENDROOT
BRANCH   2   5
HETATM    5  C   UNL     1     -12.716  15.566  70.762  1.00  0.00    -0.457 C  
HETATM    6  S   UNL     1     -14.246  15.061  71.604  1.00  0.00    -0.597 SA 
HETATM    7  H   UNL     1     -14.789  16.120  72.322  1.00  0.00     0.000 H  
ENDBRANCH   2   5
TORSDOF 1
ENDMDL
MODEL       21
REMARK 921   NORMALIZED FREE ENERGY PREDICTED BY IDOCK:   -1.86 KCAL/MOL
REMARK 922        TOTAL FREE ENERGY PREDICTED BY IDOCK:   -1.97 KCAL/MOL
REMARK 923 INTER-LIGAND FREE ENERGY PREDICTED BY IDOCK:   -1.97 KCAL/MOL
REMARK 924 INTRA-LIGAND FREE ENERGY PREDICTED BY IDOCK:    0.00 KCAL/MOL
REMARK 927      BINDING AFFINITY PREDICTED BY RF-SCORE:    0.00 PKD
ROOT
HETATM    1  N   UNL     1     -12.109  10.754  68.212  1.00  0.00    -0.807 NA 
HETATM    2  C   UNL     1     -11.773  12.131  67.846  1.00  0.00    -0.336 C  
HETATM    3  H1  UNL     1     -12.218  10.656  69.222  1.00  0.00     0.000 HD 
HETATM    4  H2  UNL     1     -11.428  10.091  67.842  1.00  0.00     0.000 HD 
ENDROOT
BRANCH   2   5
HETATM    5  C   UNL     1     -11.610  12.278  66.331  1.00  0.00    -0.383 C  
HETATM    6  S   UNL     1     -12.647  13.630  65.696  1.00  0.00    -0.445 SA 
HETATM    7  H   UNL     1     -12.498  13.764  64.320  1.00  0.00     0.000 H  
ENDBRANCH   2   5
TORSDOF 1
ENDMDL
MODEL       22
REMARK 921   NORMALIZED FREE ENERGY PREDICTED BY IDOCK:   -1.85 KCAL/MOL
REMARK 922        TOTAL FREE ENERGY PREDICTED BY IDOCK:   -1.96 KCAL/MOL
REMARK 923 INTER-LIGAND FREE ENERGY PREDICTED BY IDOCK:   -1.96 KCAL/MOL
REMARK 924 INTRA-LIGAND FREE ENERGY PREDICTED BY IDOCK:    0.00 KCAL/MOL
REMARK 927      BINDING AFFINITY PREDICTED BY RF-SCORE:    0.00 PKD
ROOT
HETATM    1  N   UNL     1      -9.733  14.137  65.395  1.00  0.00    -0.566 NA 
HETATM    2  C   UNL     1     -10.808  14.964  64.845  1.00  0.00    -0.413 C  
HETATM    3  H1  UNL     1      -8.871  14.673  65.499  1.00  0.00     0.000 HD 
HETATM    4  H2  UNL     1      -9.586  13.294  64.838  1.00  0.00     0.000 HD 
ENDROOT
BRANCH   2   5
HETATM    5  C   UNL     1     -12.102  14.159  64.689  1.00  0.00    -0.452 C  
HETATM    6  S   UNL     1     -11.872  12.783  63.522  1.00  0.00    -0.529 SA 
HETATM    7  H   UNL     1     -13.046  12.052  63.381  1.00  0.00     0.000 H  
ENDBRANCH   2   5
TORSDOF 1
ENDMDL
MODEL       23
REMARK 921   NORMALIZED FREE ENERGY PREDICTED BY IDOCK:   -1.84 KCAL/MOL
REMARK 922        TOTAL FREE ENERGY PREDICTED BY IDOCK:   -1.95 KCAL/MOL
REMARK 923 INTER-LIGAND FREE ENERGY PREDICTED BY IDOCK:   -1.95 KCAL/MOL
REMARK 924 INTRA-LIGAND FREE ENERGY PREDICTED BY IDOCK:    0.00 KCAL/MOL
REMARK 927      BINDING AFFINITY PREDICTED BY RF-SCORE:    0.00 PKD
ROOT
HETATM    1  N   UNL     1     -14.397   7.629  71.125  1.00  0.00    -0.672 NA 
HETATM    2  C   UNL     1     -14.046   8.629  72.134  1.00  0.00    -0.441 C  
HETATM    3  H1  UNL     1     -15.346   7.281  71.264  1.00  0.00     0.000 HD 
HETATM    4  H2  UNL     1     -13.718   6.867  71.100  1.00  0.00     0.000 HD 
ENDROOT
BRANCH   2   5
HETATM    5  C   UNL     1     -12.621   9.152  71.925  1.00  0.00    -0.388 C  
HETATM    6  S   UNL     1     -12.643  10.819  71.201  1.00  0.00    -0.447 SA 
HETATM    7  H   UNL     1     -11.351  11.294  71.011  1.00  0.00     0.000 H  
ENDBRANCH   2   5
TORSDOF 1
ENDMDL
MODEL       24
REMARK 921   NORMALIZED FREE ENERGY PREDICTED BY IDOCK:   -1.80 KCAL/MOL
REMARK 922        TOTAL FREE ENERGY PREDICTED BY IDOCK:   -1.91 KCAL/MOL
REMARK 923 INTER-LIGAND FREE ENERGY PREDICTED BY IDOCK:   -1.91 KCAL/MOL
REMARK 924 INTRA-LIGAND FREE ENERGY PREDICTED BY IDOCK:    0.00 KCAL/MOL
REMARK 927      BINDING AFFINITY PREDICTED BY RF-SCORE:    0.00 PKD
ROOT
HETATM    1  N   UNL     1     -11.276  16.086  64.158  1.00  0.00    -1.115 NA 
HETATM    2  C   UNL     1     -11.089  15.380  65.427  1.00  0.00    -0.326 C  
HETATM    3  H1  UNL     1     -11.774  15.505  63.483  1.00  0.00     0.000 HD 
HETATM    4  H2  UNL     1     -10.390  16.423  63.782  1.00  0.00     0.000 HD 
ENDROOT
BRANCH   2   5
HETATM    5  C   UNL     1     -10.342  16.252  66.441  1.00  0.00    -0.314 C  
HETATM    6  S   UNL     1     -10.355  17.996  65.929  1.00  0.00    -0.156 SA 
HETATM    7  H   UNL     1      -9.678  18.788  66.850  1.00  0.00     0.000 H  
ENDBRANCH   2   5
TORSDOF 1
ENDMDL
MODEL       25
REMARK 921   NORMALIZED FREE ENERGY PREDICTED BY IDOCK:   -1.79 KCAL/MOL
REMARK 922        TOTAL FREE ENERGY PREDICTED BY IDOCK:   -1.89 KCAL/MOL
REMARK 923 INTER-LIGAND FREE ENERGY PREDICTED BY IDOCK:   -1.89 KCAL/MOL
REMARK 924 INTRA-LIGAND FREE ENERGY PREDICTED BY IDOCK:    0.00 KCAL/MOL
REMARK 927      BINDING AFFINITY PREDICTED BY RF-SCORE:    0.00 PKD
ROOT
HETATM    1  N   UNL     1     -10.078  13.462  64.190  1.00  0.00    -0.779 NA 
HETATM    2  C   UNL     1     -10.807  14.564  64.821  1.00  0.00    -0.393 C  
HETATM    3  H1  UNL     1      -9.923  13.643  63.198  1.00  0.00     0.000 HD 
HETATM    4  H2  UNL     1     -10.546  12.569  64.340  1.00  0.00     0.000 HD 
ENDROOT
BRANCH   2   5
HETATM    5  C   UNL     1     -11.040  14.294  66.310  1.00  0.00    -0.323 C  
HETATM    6  S   UNL     1     -11.642  12.599  66.575  1.00  0.00    -0.394 SA 
HETATM    7  H   UNL     1     -11.853  12.354  67.927  1.00  0.00     0.000 H  
ENDBRANCH   2   5
TORSDOF 1
ENDMDL
MODEL       26
REMARK 921   NORMALIZED FREE ENERGY PREDICTED BY IDOCK:   -1.76 KCAL/MOL
REMARK 922        TOTAL FREE ENERGY PREDICTED BY IDOCK:   -1.86 KCAL/MOL
REMARK 923 INTER-LIGAND FREE ENERGY PREDICTED BY IDOCK:   -1.86 KCAL/MOL
REMARK 924 INTRA-LIGAND FREE ENERGY PREDICTED BY IDOCK:    0.00 KCAL/MOL
REMARK 927      BINDING AFFINITY PREDICTED BY RF-SCORE:    0.00 PKD
ROOT
HETATM    1  N   UNL     1     -13.430  15.576  70.773  1.00  0.00    -0.809 NA 
HETATM    2  C   UNL     1     -12.346  14.719  71.255  1.00  0.00    -0.327 C  
HETATM    3  H1  UNL     1     -13.494  16.434  71.321  1.00  0.00     0.000 HD 
HETATM    4  H2  UNL     1     -14.320  15.078  70.750  1.00  0.00     0.000 HD 
ENDROOT
BRANCH   2   5
HETATM    5  C   UNL     1     -12.250  13.430  70.433  1.00  0.00    -0.345 C  
HETATM    6  S   UNL     1     -11.902  13.802  68.687  1.00  0.00    -0.381 SA 
HETATM    7  H   UNL     1     -11.814  12.632  67.940  1.00  0.00     0.000 H  
ENDBRANCH   2   5
TORSDOF 1
ENDMDL
MODEL       27
REMARK 921   NORMALIZED FREE ENERGY PREDICTED BY IDOCK:   -1.74 KCAL/MOL
REMARK 922        TOTAL FREE ENERGY PREDICTED BY IDOCK:   -1.84 KCAL/MOL
REMARK 923 INTER-LIGAND FREE ENERGY PREDICTED BY IDOCK:   -1.84 KCAL/MOL
REMARK 924 INTRA-LIGAND FREE ENERGY PREDICTED BY IDOCK:    0.00 KCAL/MOL
REMARK 927      BINDING AFFINITY PREDICTED BY RF-SCORE:    0.00 PKD
ROOT
HETATM    1  N   UNL     1      -9.705  20.218  65.986  1.00  0.00    -0.650 NA 
HETATM    2  C   UNL     1     -10.655  19.755  67.000  1.00  0.00    -0.461 C  
HETATM    3  H1  UNL     1     -10.096  20.984  65.436  1.00  0.00     0.000 HD 
HETATM    4  H2  UNL     1      -9.389  19.452  65.391  1.00  0.00     0.000 HD 
ENDROOT
BRANCH   2   5
HETATM    5  C   UNL     1     -10.067  18.606  67.825  1.00  0.00    -0.371 C  
HETATM    6  S   UNL     1      -8.382  19.003  68.379  1.00  0.00    -0.358 SA 
HETATM    7  H   UNL     1      -7.849  17.960  69.129  1.00  0.00     0.000 H  
ENDBRANCH   2   5
TORSDOF 1
ENDMDL
MODEL       28
REMARK 921   NORMALIZED FREE ENERGY PREDICTED BY IDOCK:   -1.73 KCAL/MOL
REMARK 922        TOTAL FREE ENERGY PREDICTED BY IDOCK:   -1.84 KCAL/MOL
REMARK 923 INTER-LIGAND FREE ENERGY PREDICTED BY IDOCK:   -1.84 KCAL/MOL
REMARK 924 INTRA-LIGAND FREE ENERGY PREDICTED BY IDOCK:    0.00 KCAL/MOL
REMARK 927      BINDING AFFINITY PREDICTED BY RF-SCORE:    0.00 PKD
ROOT
HETATM    1  N   UNL     1     -10.608  17.111  65.168  1.00  0.00    -0.682 NA 
HETATM    2  C   UNL     1     -10.422  18.305  65.995  1.00  0.00    -0.361 C  
HETATM    3  H1  UNL     1     -10.547  17.337  64.175  1.00  0.00     0.000 HD 
HETATM    4  H2  UNL     1     -11.481  16.633  65.391  1.00  0.00     0.000 HD 
ENDROOT
BRANCH   2   5
HETATM    5  C   UNL     1     -10.514  17.966  67.486  1.00  0.00    -0.390 C  
HETATM    6  S   UNL     1      -9.413  19.036  68.462  1.00  0.00    -0.402 SA 
HETATM    7  H   UNL     1      -9.496  18.728  69.815  1.00  0.00     0.000 H  
ENDBRANCH   2   5
TORSDOF 1
ENDMDL
MODEL       29
REMARK 921   NORMALIZED FREE ENERGY PREDICTED BY IDOCK:   -1.73 KCAL/MOL
REMARK 922        TOTAL FREE ENERGY PREDICTED BY IDOCK:   -1.83 KCAL/MOL
REMARK 923 INTER-LIGAND FREE ENERGY PREDICTED BY IDOCK:   -1.83 KCAL/MOL
REMARK 924 INTRA-LIGAND FREE ENERGY PREDICTED BY IDOCK:    0.00 KCAL/MOL
REMARK 927      BINDING AFFINITY PREDICTED BY RF-SCORE:    0.00 PKD
ROOT
HETATM    1  N   UNL     1     -10.042  17.352  65.695  1.00  0.00    -0.586 NA 
HETATM    2  C   UNL     1     -10.476  15.994  66.029  1.00  0.00    -0.345 C  
HETATM    3  H1  UNL     1      -9.526  17.775  66.467  1.00  0.00     0.000 HD 
HETATM    4  H2  UNL     1     -10.827  17.935  65.403  1.00  0.00     0.000 HD 
ENDROOT
BRANCH   2   5
HETATM    5  C   UNL     1     -11.250  15.358  64.870  1.00  0.00    -0.403 C  
HETATM    6  S   UNL     1     -12.387  14.075  65.477  1.00  0.00    -0.496 SA 
HETATM    7  H   UNL     1     -13.089  13.499  64.426  1.00  0.00     0.000 H  
ENDBRANCH   2   5
TORSDOF 1
ENDMDL
MODEL       30
REMARK 921   NORMALIZED FREE ENERGY PREDICTED BY IDOCK:   -1.72 KCAL/MOL
REMARK 922        TOTAL FREE ENERGY PREDICTED BY IDOCK:   -1.82 KCAL/MOL
REMARK 923 INTER-LIGAND FREE ENERGY PREDICTED BY IDOCK:   -1.82 KCAL/MOL
REMARK 924 INTRA-LIGAND FREE ENERGY PREDICTED BY IDOCK:    0.00 KCAL/MOL
REMARK 927      BINDING AFFINITY PREDICTED BY RF-SCORE:    0.00 PKD
ROOT
HETATM    1  N   UNL     1     -12.471  14.241  69.224  1.00  0.00    -0.528 NA 
HETATM    2  C   UNL     1     -11.792  13.556  68.121  1.00  0.00    -0.365 C  
HETATM    3  H1  UNL     1     -12.372  13.722  70.097  1.00  0.00     0.000 HD 
HETATM    4  H2  UNL     1     -13.450  14.425  69.004  1.00  0.00     0.000 HD 
ENDROOT
BRANCH   2   5
HETATM    5  C   UNL     1     -11.939  14.335  66.811  1.00  0.00    -0.436 C  
HETATM    6  S   UNL     1     -12.406  13.226  65.448  1.00  0.00    -0.490 SA 
HETATM    7  H   UNL     1     -12.540  13.932  64.258  1.00  0.00     0.000 H  
ENDBRANCH   2   5
TORSDOF 1
ENDMDL
MODEL       31
REMARK 921   NORMALIZED FREE ENERGY PREDICTED BY IDOCK:   -1.72 KCAL/MOL
REMARK 922        TOTAL FREE ENERGY PREDICTED BY IDOCK:   -1.82 KCAL/MOL
REMARK 923 INTER-LIGAND FREE ENERGY PREDICTED BY IDOCK:   -1.82 KCAL/MOL
REMARK 924 INTRA-LIGAND FREE ENERGY PREDICTED BY IDOCK:    0.00 KCAL/MOL
REMARK 927      BINDING AFFINITY PREDICTED BY RF-SCORE:    0.00 PKD
ROOT
HETATM    1  N   UNL     1     -12.261  10.822  68.614  1.00  0.00    -0.827 NA 
HETATM    2  C   UNL     1     -11.307  11.813  68.114  1.00  0.00    -0.284 C  
HETATM    3  H1  UNL     1     -11.865   9.882  68.588  1.00  0.00     0.000 HD 
HETATM    4  H2  UNL     1     -13.149  10.870  68.114  1.00  0.00     0.000 HD 
ENDROOT
BRANCH   2   5
HETATM    5  C   UNL     1     -11.901  13.224  68.154  1.00  0.00    -0.353 C  
HETATM    6  S   UNL     1     -11.996  13.838  69.863  1.00  0.00    -0.352 SA 
HETATM    7  H   UNL     1     -12.535  15.118  69.900  1.00  0.00     0.000 H  
ENDBRANCH   2   5
TORSDOF 1
ENDMDL
MODEL       32
REMARK 921   NORMALIZED FREE ENERGY PREDICTED BY IDOCK:   -1.71 KCAL/MOL
REMARK 922        TOTAL FREE ENERGY PREDICTED BY IDOCK:   -1.81 KCAL/MOL
REMARK 923 INTER-LIGAND FREE ENERGY PREDICTED BY IDOCK:   -1.81 KCAL/MOL
REMARK 924 INTRA-LIGAND FREE ENERGY PREDICTED BY IDOCK:    0.00 KCAL/MOL
REMARK 927      BINDING AFFINITY PREDICTED BY RF-SCORE:    0.00 PKD
ROOT
HETATM    1  N   UNL     1      -7.497  21.267  67.077  1.00  0.00    -0.788 NA 
HETATM    2  C   UNL     1      -8.176  20.131  67.704  1.00  0.00    -0.294 C  
HETATM    3  H1  UNL     1      -7.269  21.987  67.764  1.00  0.00     0.000 HD 
HETATM    4  H2  UNL     1      -8.041  21.647  66.302  1.00  0.00     0.000 HD 
ENDROOT
BRANCH   2   5
HETATM    5  C   UNL     1      -8.517  19.051  66.674  1.00  0.00    -0.304 C  
HETATM    6  S   UNL     1     -10.299  18.691  66.679  1.00  0.00    -0.427 SA 
HETATM    7  H   UNL     1     -10.609  17.711  65.744  1.00  0.00     0.000 H  
ENDBRANCH   2   5
TORSDOF 1
ENDMDL
MODEL       33
REMARK 921   NORMALIZED FREE ENERGY PREDICTED BY IDOCK:   -1.68 KCAL/MOL
REMARK 922        TOTAL FREE ENERGY PREDICTED BY IDOCK:   -1.77 KCAL/MOL
REMARK 923 INTER-LIGAND FREE ENERGY PREDICTED BY IDOCK:   -1.77 KCAL/MOL
REMARK 924 INTRA-LIGAND FREE ENERGY PREDICTED BY IDOCK:    0.00 KCAL/MOL
REMARK 927      BINDING AFFINITY PREDICTED BY RF-SCORE:    0.00 PKD
ROOT
HETATM    1  N   UNL     1     -13.403  10.714  72.042  1.00  0.00    -0.515 NA 
HETATM    2  C   UNL     1     -13.620   9.281  72.252  1.00  0.00    -0.480 C  
HETATM    3  H1  UNL     1     -14.284  11.228  72.065  1.00  0.00     0.000 HD 
HETATM    4  H2  UNL     1     -12.887  10.892  71.180  1.00  0.00     0.000 HD 
ENDROOT
BRANCH   2   5
HETATM    5  C   UNL     1     -12.298   8.509  72.218  1.00  0.00    -0.387 C  
HETATM    6  S   UNL     1     -11.053   9.400  71.238  1.00  0.00    -0.392 SA 
HETATM    7  H   UNL     1      -9.853   8.699  71.207  1.00  0.00     0.000 H  
ENDBRANCH   2   5
TORSDOF 1
ENDMDL
MODEL       34
REMARK 921   NORMALIZED FREE ENERGY PREDICTED BY IDOCK:   -1.68 KCAL/MOL
REMARK 922        TOTAL FREE ENERGY PREDICTED BY IDOCK:   -1.77 KCAL/MOL
REMARK 923 INTER-LIGAND FREE ENERGY PREDICTED BY IDOCK:   -1.77 KCAL/MOL
REMARK 924 INTRA-LIGAND FREE ENERGY PREDICTED BY IDOCK:    0.00 KCAL/MOL
REMARK 927      BINDING AFFINITY PREDICTED BY RF-SCORE:    0.00 PKD
ROOT
HETATM    1  N   UNL     1     -13.438  11.776  72.213  1.00  0.00    -0.547 NA 
HETATM    2  C   UNL     1     -13.173  13.029  71.504  1.00  0.00    -0.272 C  
HETATM    3  H1  UNL     1     -13.488  10.988  71.566  1.00  0.00     0.000 HD 
HETATM    4  H2  UNL     1     -14.277  11.842  72.790  1.00  0.00     0.000 HD 
ENDROOT
BRANCH   2   5
HETATM    5  C   UNL     1     -13.097  14.211  72.475  1.00  0.00    -0.463 C  
HETATM    6  S   UNL     1     -14.350  15.464  72.068  1.00  0.00    -0.492 SA 
HETATM    7  H   UNL     1     -14.281  16.537  72.950  1.00  0.00     0.000 H  
ENDBRANCH   2   5
TORSDOF 1
ENDMDL
MODEL       35
REMARK 921   NORMALIZED FREE ENERGY PREDICTED BY IDOCK:   -1.67 KCAL/MOL
REMARK 922        TOTAL FREE ENERGY PREDICTED BY IDOCK:   -1.77 KCAL/MOL
REMARK 923 INTER-LIGAND FREE ENERGY PREDICTED BY IDOCK:   -1.77 KCAL/MOL
REMARK 924 INTRA-LIGAND FREE ENERGY PREDICTED BY IDOCK:    0.00 KCAL/MOL
REMARK 927      BINDING AFFINITY PREDICTED BY RF-SCORE:    0.00 PKD
ROOT
HETATM    1  N   UNL     1     -10.195  13.006  63.757  1.00  0.00    -0.716 NA 
HETATM    2  C   UNL     1     -10.768  11.662  63.665  1.00  0.00    -0.435 C  
HETATM    3  H1  UNL     1     -10.922  13.721  63.726  1.00  0.00     0.000 HD 
HETATM    4  H2  UNL     1      -9.486  13.161  63.040  1.00  0.00     0.000 HD 
ENDROOT
BRANCH   2   5
HETATM    5  C   UNL     1      -9.676  10.589  63.712  1.00  0.00    -0.326 C  
HETATM    6  S   UNL     1      -9.646   9.766  65.333  1.00  0.00    -0.292 SA 
HETATM    7  H   UNL     1      -8.655   8.792  65.376  1.00  0.00     0.000 H  
ENDBRANCH   2   5
TORSDOF 1
ENDMDL
MODEL       36
REMARK 921   NORMALIZED FREE ENERGY PREDICTED BY IDOCK:   -1.66 KCAL/MOL
REMARK 922        TOTAL FREE ENERGY PREDICTED BY IDOCK:   -1.76 KCAL/MOL
REMARK 923 INTER-LIGAND FREE ENERGY PREDICTED BY IDOCK:   -1.76 KCAL/MOL
REMARK 924 INTRA-LIGAND FREE ENERGY PREDICTED BY IDOCK:    0.00 KCAL/MOL
REMARK 927      BINDING AFFINITY PREDICTED BY RF-SCORE:    0.00 PKD
ROOT
HETATM    1  N   UNL     1     -13.859   7.530  71.174  1.00  0.00    -0.634 NA 
HETATM    2  C   UNL     1     -12.432   7.206  71.214  1.00  0.00    -0.386 C  
HETATM    3  H1  UNL     1     -14.366   6.891  70.561  1.00  0.00     0.000 HD 
HETATM    4  H2  UNL     1     -14.015   8.504  70.914  1.00  0.00     0.000 HD 
ENDROOT
BRANCH   2   5
HETATM    5  C   UNL     1     -11.671   8.164  72.135  1.00  0.00    -0.359 C  
HETATM    6  S   UNL     1     -10.595   7.246  73.277  1.00  0.00    -0.383 SA 
HETATM    7  H   UNL     1      -9.904   8.116  74.113  1.00  0.00     0.000 H  
ENDBRANCH   2   5
TORSDOF 1
ENDMDL
MODEL       37
REMARK 921   NORMALIZED FREE ENERGY PREDICTED BY IDOCK:   -1.66 KCAL/MOL
REMARK 922        TOTAL FREE ENERGY PREDICTED BY IDOCK:   -1.76 KCAL/MOL
REMARK 923 INTER-LIGAND FREE ENERGY PREDICTED BY IDOCK:   -1.76 KCAL/MOL
REMARK 924 INTRA-LIGAND FREE ENERGY PREDICTED BY IDOCK:    0.00 KCAL/MOL
REMARK 927      BINDING AFFINITY PREDICTED BY RF-SCORE:    0.00 PKD
ROOT
HETATM    1  N   UNL     1     -10.224  19.762  69.188  1.00  0.00    -0.623 NA 
HETATM    2  C   UNL     1      -9.804  18.537  68.504  1.00  0.00    -0.381 C  
HETATM    3  H1  UNL     1     -10.629  19.555  70.101  1.00  0.00     0.000 HD 
HETATM    4  H2  UNL     1     -10.860  20.313  68.611  1.00  0.00     0.000 HD 
ENDROOT
BRANCH   2   5
HETATM    5  C   UNL     1      -9.195  18.848  67.134  1.00  0.00    -0.290 C  
HETATM    6  S   UNL     1     -10.472  19.422  65.973  1.00  0.00    -0.463 SA 
HETATM    7  H   UNL     1      -9.920  19.705  64.729  1.00  0.00     0.000 H  
ENDBRANCH   2   5
TORSDOF 1
ENDMDL
MODEL       38
REMARK 921   NORMALIZED FREE ENERGY PREDICTED BY IDOCK:   -1.64 KCAL/MOL
REMARK 922        TOTAL FREE ENERGY PREDICTED BY IDOCK:   -1.74 KCAL/MOL
REMARK 923 INTER-LIGAND FREE ENERGY PREDICTED BY IDOCK:   -1.74 KCAL/MOL
REMARK 924 INTRA-LIGAND FREE ENERGY PREDICTED BY IDOCK:    0.00 KCAL/MOL
REMARK 927      BINDING AFFINITY PREDICTED BY RF-SCORE:    0.00 PKD
ROOT
HETATM    1  N   UNL     1     -12.226  10.824  68.633  1.00  0.00    -0.827 NA 
HETATM    2  C   UNL     1     -11.130  10.784  67.662  1.00  0.00    -0.319 C  
HETATM    3  H1  UNL     1     -12.118  10.098  69.341  1.00  0.00     0.000 HD 
HETATM    4  H2  UNL     1     -13.135  10.769  68.173  1.00  0.00     0.000 HD 
ENDROOT
BRANCH   2   5
HETATM    5  C   UNL     1     -11.291  11.874  66.599  1.00  0.00    -0.337 C  
HETATM    6  S   UNL     1      -9.867  13.005  66.609  1.00  0.00    -0.256 SA 
HETATM    7  H   UNL     1     -10.013  13.994  65.644  1.00  0.00     0.000 H  
ENDBRANCH   2   5
TORSDOF 1
ENDMDL
MODEL       39
REMARK 921   NORMALIZED FREE ENERGY PREDICTED BY IDOCK:   -1.63 KCAL/MOL
REMARK 922        TOTAL FREE ENERGY PREDICTED BY IDOCK:   -1.72 KCAL/MOL
REMARK 923 INTER-LIGAND FREE ENERGY PREDICTED BY IDOCK:   -1.72 KCAL/MOL
REMARK 924 INTRA-LIGAND FREE ENERGY PREDICTED BY IDOCK:    0.00 KCAL/MOL
REMARK 927      BINDING AFFINITY PREDICTED BY RF-SCORE:    0.00 PKD
ROOT
HETATM    1  N   UNL     1     -12.787   7.322  70.717  1.00  0.00    -0.602 NA 
HETATM    2  C   UNL     1     -11.403   7.752  70.923  1.00  0.00    -0.275 C  
HETATM    3  H1  UNL     1     -12.829   6.464  70.166  1.00  0.00     0.000 HD 
HETATM    4  H2  UNL     1     -13.351   8.063  70.300  1.00  0.00     0.000 HD 
ENDROOT
BRANCH   2   5
HETATM    5  C   UNL     1     -11.340   9.039  71.750  1.00  0.00    -0.377 C  
HETATM    6  S   UNL     1     -12.823  10.056  71.480  1.00  0.00    -0.468 SA 
HETATM    7  H   UNL     1     -12.766  11.224  72.230  1.00  0.00     0.000 H  
ENDBRANCH   2   5
TORSDOF 1
ENDMDL
MODEL       40
REMARK 921   NORMALIZED FREE ENERGY PREDICTED BY IDOCK:   -1.61 KCAL/MOL
REMARK 922        TOTAL FREE ENERGY PREDICTED BY IDOCK:   -1.71 KCAL/MOL
REMARK 923 INTER-LIGAND FREE ENERGY PREDICTED BY IDOCK:   -1.71 KCAL/MOL
REMARK 924 INTRA-LIGAND FREE ENERGY PREDICTED BY IDOCK:    0.00 KCAL/MOL
REMARK 927      BINDING AFFINITY PREDICTED BY RF-SCORE:    0.00 PKD
ROOT
HETATM    1  N   UNL     1     -11.520   4.565  65.042  1.00  0.00    -1.108 NA 
HETATM    2  C   UNL     1     -10.133   4.365  65.464  1.00  0.00    -0.236 C  
HETATM    3  H1  UNL     1     -11.685   4.171  64.115  1.00  0.00     0.000 HD 
HETATM    4  H2  UNL     1     -11.787   5.548  65.085  1.00  0.00     0.000 HD 
ENDROOT
BRANCH   2   5
HETATM    5  C   UNL     1      -9.886   4.955  66.855  1.00  0.00    -0.197 C  
HETATM    6  S   UNL     1      -9.530   6.735  66.750  1.00  0.00    -0.165 SA 
HETATM    7  H   UNL     1      -9.306   7.271  68.013  1.00  0.00     0.000 H  
ENDBRANCH   2   5
TORSDOF 1
ENDMDL
MODEL       41
REMARK 921   NORMALIZED FREE ENERGY PREDICTED BY IDOCK:   -1.60 KCAL/MOL
REMARK 922        TOTAL FREE ENERGY PREDICTED BY IDOCK:   -1.70 KCAL/MOL
REMARK 923 INTER-LIGAND FREE ENERGY PREDICTED BY IDOCK:   -1.70 KCAL/MOL
REMARK 924 INTRA-LIGAND FREE ENERGY PREDICTED BY IDOCK:    0.00 KCAL/MOL
REMARK 927      BINDING AFFINITY PREDICTED BY RF-SCORE:    0.00 PKD
ROOT
HETATM    1  N   UNL     1     -12.158   5.736  72.803  1.00  0.00    -0.534 NA 
HETATM    2  C   UNL     1     -11.765   6.761  71.835  1.00  0.00    -0.310 C  
HETATM    3  H1  UNL     1     -12.146   4.806  72.382  1.00  0.00     0.000 HD 
HETATM    4  H2  UNL     1     -13.064   5.945  73.223  1.00  0.00     0.000 HD 
ENDROOT
BRANCH   2   5
HETATM    5  C   UNL     1     -11.783   8.156  72.467  1.00  0.00    -0.394 C  
HETATM    6  S   UNL     1     -13.415   8.934  72.271  1.00  0.00    -0.460 SA 
HETATM    7  H   UNL     1     -13.432  10.200  72.844  1.00  0.00     0.000 H  
ENDBRANCH   2   5
TORSDOF 1
ENDMDL
MODEL       42
REMARK 921   NORMALIZED FREE ENERGY PREDICTED BY IDOCK:   -1.60 KCAL/MOL
REMARK 922        TOTAL FREE ENERGY PREDICTED BY IDOCK:   -1.70 KCAL/MOL
REMARK 923 INTER-LIGAND FREE ENERGY PREDICTED BY IDOCK:   -1.70 KCAL/MOL
REMARK 924 INTRA-LIGAND FREE ENERGY PREDICTED BY IDOCK:    0.00 KCAL/MOL
REMARK 927      BINDING AFFINITY PREDICTED BY RF-SCORE:    0.00 PKD
ROOT
HETATM    1  N   UNL     1     -11.874  16.277  71.164  1.00  0.00    -0.617 NA 
HETATM    2  C   UNL     1     -11.012  15.604  70.190  1.00  0.00    -0.339 C  
HETATM    3  H1  UNL     1     -11.632  16.010  72.118  1.00  0.00     0.000 HD 
HETATM    4  H2  UNL     1     -12.862  16.112  70.967  1.00  0.00     0.000 HD 
ENDROOT
BRANCH   2   5
HETATM    5  C   UNL     1     -11.375  16.005  68.758  1.00  0.00    -0.380 C  
HETATM    6  S   UNL     1     -11.766  14.540  67.754  1.00  0.00    -0.361 SA 
HETATM    7  H   UNL     1     -12.096  14.904  66.454  1.00  0.00     0.000 H  
ENDBRANCH   2   5
TORSDOF 1
ENDMDL
MODEL       43
REMARK 921   NORMALIZED FREE ENERGY PREDICTED BY IDOCK:   -1.60 KCAL/MOL
REMARK 922        TOTAL FREE ENERGY PREDICTED BY IDOCK:   -1.69 KCAL/MOL
REMARK 923 INTER-LIGAND FREE ENERGY PREDICTED BY IDOCK:   -1.69 KCAL/MOL
REMARK 924 INTRA-LIGAND FREE ENERGY PREDICTED BY IDOCK:    0.00 KCAL/MOL
REMARK 927      BINDING AFFINITY PREDICTED BY RF-SCORE:    0.00 PKD
ROOT
HETATM    1  N   UNL     1      -7.529  21.300  66.862  1.00  0.00    -0.770 NA 
HETATM    2  C   UNL     1      -6.182  21.002  67.354  1.00  0.00    -0.326 C  
HETATM    3  H1  UNL     1      -7.526  22.116  66.249  1.00  0.00     0.000 HD 
HETATM    4  H2  UNL     1      -8.192  21.409  67.629  1.00  0.00     0.000 HD 
ENDROOT
BRANCH   2   5
HETATM    5  C   UNL     1      -6.187  19.777  68.274  1.00  0.00    -0.245 C  
HETATM    6  S   UNL     1      -5.765  20.246  69.979  1.00  0.00    -0.353 SA 
HETATM    7  H   UNL     1      -5.769  19.135  70.814  1.00  0.00     0.000 H  
ENDBRANCH   2   5
TORSDOF 1
ENDMDL
MODEL       44
REMARK 921   NORMALIZED FREE ENERGY PREDICTED BY IDOCK:   -1.60 KCAL/MOL
REMARK 922        TOTAL FREE ENERGY PREDICTED BY IDOCK:   -1.69 KCAL/MOL
REMARK 923 INTER-LIGAND FREE ENERGY PREDICTED BY IDOCK:   -1.69 KCAL/MOL
REMARK 924 INTRA-LIGAND FREE ENERGY PREDICTED BY IDOCK:    0.00 KCAL/MOL
REMARK 927      BINDING AFFINITY PREDICTED BY RF-SCORE:    0.00 PKD
ROOT
HETATM    1  N   UNL     1     -11.959  10.797  68.088  1.00  0.00    -0.801 NA 
HETATM    2  C   UNL     1     -11.652  11.395  69.389  1.00  0.00    -0.323 C  
HETATM    3  H1  UNL     1     -12.096  11.513  67.375  1.00  0.00     0.000 HD 
HETATM    4  H2  UNL     1     -12.759  10.166  68.145  1.00  0.00     0.000 HD 
ENDROOT
BRANCH   2   5
HETATM    5  C   UNL     1     -11.446  10.319  70.460  1.00  0.00    -0.343 C  
HETATM    6  S   UNL     1     -10.091   9.198  69.998  1.00  0.00    -0.221 SA 
HETATM    7  H   UNL     1      -9.903   8.222  70.970  1.00  0.00     0.000 H  
ENDBRANCH   2   5
TORSDOF 1
ENDMDL
MODEL       45
REMARK 921   NORMALIZED FREE ENERGY PREDICTED BY IDOCK:   -1.59 KCAL/MOL
REMARK 922        TOTAL FREE ENERGY PREDICTED BY IDOCK:   -1.69 KCAL/MOL
REMARK 923 INTER-LIGAND FREE ENERGY PREDICTED BY IDOCK:   -1.69 KCAL/MOL
REMARK 924 INTRA-LIGAND FREE ENERGY PREDICTED BY IDOCK:    0.00 KCAL/MOL
REMARK 927      BINDING AFFINITY PREDICTED BY RF-SCORE:    0.00 PKD
ROOT
HETATM    1  N   UNL     1     -11.499   4.563  65.171  1.00  0.00    -1.109 NA 
HETATM    2  C   UNL     1     -10.656   3.758  64.284  1.00  0.00    -0.228 C  
HETATM    3  H1  UNL     1     -12.376   4.818  64.715  1.00  0.00     0.000 HD 
HETATM    4  H2  UNL     1     -11.002   5.385  65.515  1.00  0.00     0.000 HD 
ENDROOT
BRANCH   2   5
HETATM    5  C   UNL     1      -9.340   3.375  64.967  1.00  0.00    -0.154 C  
HETATM    6  S   UNL     1      -9.312   3.956  66.690  1.00  0.00    -0.195 SA 
HETATM    7  H   UNL     1      -8.117   3.608  67.310  1.00  0.00     0.000 H  
ENDBRANCH   2   5
TORSDOF 1
ENDMDL
MODEL       46
REMARK 921   NORMALIZED FREE ENERGY PREDICTED BY IDOCK:   -1.58 KCAL/MOL
REMARK 922        TOTAL FREE ENERGY PREDICTED BY IDOCK:   -1.67 KCAL/MOL
REMARK 923 INTER-LIGAND FREE ENERGY PREDICTED BY IDOCK:   -1.67 KCAL/MOL
REMARK 924 INTRA-LIGAND FREE ENERGY PREDICTED BY IDOCK:    0.00 KCAL/MOL
REMARK 927      BINDING AFFINITY PREDICTED BY RF-SCORE:    0.00 PKD
ROOT
HETATM    1  N   UNL     1     -11.428   4.475  65.019  1.00  0.00    -1.108 NA 
HETATM    2  C   UNL     1     -10.237   4.644  65.854  1.00  0.00    -0.276 C  
HETATM    3  H1  UNL     1     -12.153   5.148  65.269  1.00  0.00     0.000 HD 
HETATM    4  H2  UNL     1     -11.777   3.517  65.054  1.00  0.00     0.000 HD 
ENDROOT
BRANCH   2   5
HETATM    5  C   UNL     1      -9.148   3.635  65.478  1.00  0.00    -0.148 C  
HETATM    6  S   UNL     1      -9.621   2.695  63.995  1.00  0.00    -0.141 SA 
HETATM    7  H   UNL     1      -8.633   1.779  63.653  1.00  0.00     0.000 H  
ENDBRANCH   2   5
TORSDOF 1
ENDMDL
MODEL       47
REMARK 921   NORMALIZED FREE ENERGY PREDICTED BY IDOCK:   -1.56 KCAL/MOL
REMARK 922        TOTAL FREE ENERGY PREDICTED BY IDOCK:   -1.65 KCAL/MOL
REMARK 923 INTER-LIGAND FREE ENERGY PREDICTED BY IDOCK:   -1.65 KCAL/MOL
REMARK 924 INTRA-LIGAND FREE ENERGY PREDICTED BY IDOCK:    0.00 KCAL/MOL
REMARK 927      BINDING AFFINITY PREDICTED BY RF-SCORE:    0.00 PKD
ROOT
HETATM    1  N   UNL     1     -11.908  11.712  67.146  1.00  0.00    -0.607 NA 
HETATM    2  C   UNL     1     -11.796  12.502  65.919  1.00  0.00    -0.430 C  
HETATM    3  H1  UNL     1     -12.852  11.760  67.532  1.00  0.00     0.000 HD 
HETATM    4  H2  UNL     1     -11.207  11.988  67.834  1.00  0.00     0.000 HD 
ENDROOT
BRANCH   2   5
HETATM    5  C   UNL     1     -10.380  12.430  65.340  1.00  0.00    -0.277 C  
HETATM    6  S   UNL     1      -9.973  10.732  64.833  1.00  0.00    -0.337 SA 
HETATM    7  H   UNL     1      -8.688  10.667  64.308  1.00  0.00     0.000 H  
ENDBRANCH   2   5
TORSDOF 1
ENDMDL
MODEL       48
REMARK 921   NORMALIZED FREE ENERGY PREDICTED BY IDOCK:   -1.55 KCAL/MOL
REMARK 922        TOTAL FREE ENERGY PREDICTED BY IDOCK:   -1.64 KCAL/MOL
REMARK 923 INTER-LIGAND FREE ENERGY PREDICTED BY IDOCK:   -1.64 KCAL/MOL
REMARK 924 INTRA-LIGAND FREE ENERGY PREDICTED BY IDOCK:    0.00 KCAL/MOL
REMARK 927      BINDING AFFINITY PREDICTED BY RF-SCORE:    0.00 PKD
ROOT
HETATM    1  N   UNL     1     -10.749   9.051  71.837  1.00  0.00    -0.355 NA 
HETATM    2  C   UNL     1     -11.412   9.998  70.938  1.00  0.00    -0.371 C  
HETATM    3  H1  UNL     1      -9.806   8.834  71.514  1.00  0.00     0.000 HD 
HETATM    4  H2  UNL     1     -11.305   8.205  71.966  1.00  0.00     0.000 HD 
ENDROOT
BRANCH   2   5
HETATM    5  C   UNL     1     -12.828  10.324  71.422  1.00  0.00    -0.441 C  
HETATM    6  S   UNL     1     -13.636   8.844  72.104  1.00  0.00    -0.471 SA 
HETATM    7  H   UNL     1     -14.921   9.140  72.544  1.00  0.00     0.000 H  
ENDBRANCH   2   5
TORSDOF 1
ENDMDL
MODEL       49
REMARK 921   NORMALIZED FREE ENERGY PREDICTED BY IDOCK:   -1.54 KCAL/MOL
REMARK 922        TOTAL FREE ENERGY PREDICTED BY IDOCK:   -1.63 KCAL/MOL
REMARK 923 INTER-LIGAND FREE ENERGY PREDICTED BY IDOCK:   -1.63 KCAL/MOL
REMARK 924 INTRA-LIGAND FREE ENERGY PREDICTED BY IDOCK:    0.00 KCAL/MOL
REMARK 927      BINDING AFFINITY PREDICTED BY RF-SCORE:    0.00 PKD
ROOT
HETATM    1  N   UNL     1     -11.798   7.203  72.819  1.00  0.00    -0.530 NA 
HETATM    2  C   UNL     1     -12.090   8.004  71.629  1.00  0.00    -0.303 C  
HETATM    3  H1  UNL     1     -12.162   6.255  72.725  1.00  0.00     0.000 HD 
HETATM    4  H2  UNL     1     -12.141   7.654  73.668  1.00  0.00     0.000 HD 
ENDROOT
BRANCH   2   5
HETATM    5  C   UNL     1     -11.543   9.428  71.770  1.00  0.00    -0.363 C  
HETATM    6  S   UNL     1     -12.586  10.614  70.871  1.00  0.00    -0.432 SA 
HETATM    7  H   UNL     1     -12.090  11.907  70.999  1.00  0.00     0.000 H  
ENDBRANCH   2   5
TORSDOF 1
ENDMDL
MODEL       50
REMARK 921   NORMALIZED FREE ENERGY PREDICTED BY IDOCK:   -1.50 KCAL/MOL
REMARK 922        TOTAL FREE ENERGY PREDICTED BY IDOCK:   -1.59 KCAL/MOL
REMARK 923 INTER-LIGAND FREE ENERGY PREDICTED BY IDOCK:   -1.59 KCAL/MOL
REMARK 924 INTRA-LIGAND FREE ENERGY PREDICTED BY IDOCK:    0.00 KCAL/MOL
REMARK 927      BINDING AFFINITY PREDICTED BY RF-SCORE:    0.00 PKD
ROOT
HETATM    1  N   UNL     1     -10.919   8.740  68.905  1.00  0.00    -0.440 NA 
HETATM    2  C   UNL     1     -10.709   9.853  69.834  1.00  0.00    -0.280 C  
HETATM    3  H1  UNL     1     -10.546   8.956  67.980  1.00  0.00     0.000 HD 
HETATM    4  H2  UNL     1     -11.901   8.470  68.860  1.00  0.00     0.000 HD 
ENDROOT
BRANCH   2   5
HETATM    5  C   UNL     1     -11.269   9.529  71.222  1.00  0.00    -0.382 C  
HETATM    6  S   UNL     1     -12.901  10.295  71.457  1.00  0.00    -0.488 SA 
HETATM    7  H   UNL     1     -13.409  10.001  72.717  1.00  0.00     0.000 H  
ENDBRANCH   2   5
TORSDOF 1
ENDMDL
MODEL       51
REMARK 921   NORMALIZED FREE ENERGY PREDICTED BY IDOCK:   -1.50 KCAL/MOL
REMARK 922        TOTAL FREE ENERGY PREDICTED BY IDOCK:   -1.59 KCAL/MOL
REMARK 923 INTER-LIGAND FREE ENERGY PREDICTED BY IDOCK:   -1.59 KCAL/MOL
REMARK 924 INTRA-LIGAND FREE ENERGY PREDICTED BY IDOCK:    0.00 KCAL/MOL
REMARK 927      BINDING AFFINITY PREDICTED BY RF-SCORE:    0.00 PKD
ROOT
HETATM    1  N   UNL     1     -11.989   7.725  72.964  1.00  0.00    -0.629 NA 
HETATM    2  C   UNL     1     -10.662   8.204  72.570  1.00  0.00    -0.349 C  
HETATM    3  H1  UNL     1     -11.929   7.060  73.735  1.00  0.00     0.000 HD 
HETATM    4  H2  UNL     1     -12.497   7.335  72.170  1.00  0.00     0.000 HD 
ENDROOT
BRANCH   2   5
HETATM    5  C   UNL     1     -10.754   9.203  71.413  1.00  0.00    -0.343 C  
HETATM    6  S   UNL     1      -9.167   9.322  70.534  1.00  0.00    -0.264 SA 
HETATM    7  H   UNL     1      -9.250  10.229  69.484  1.00  0.00     0.000 H  
ENDBRANCH   2   5
TORSDOF 1
ENDMDL
MODEL       52
REMARK 921   NORMALIZED FREE ENERGY PREDICTED BY IDOCK:   -1.50 KCAL/MOL
REMARK 922        TOTAL FREE ENERGY PREDICTED BY IDOCK:   -1.59 KCAL/MOL
REMARK 923 INTER-LIGAND FREE ENERGY PREDICTED BY IDOCK:   -1.59 KCAL/MOL
REMARK 924 INTRA-LIGAND FREE ENERGY PREDICTED BY IDOCK:    0.00 KCAL/MOL
REMARK 927      BINDING AFFINITY PREDICTED BY RF-SCORE:    0.00 PKD
ROOT
HETATM    1  N   UNL     1      -9.233  17.027  65.817  1.00  0.00    -0.521 NA 
HETATM    2  C   UNL     1     -10.199  15.944  65.628  1.00  0.00    -0.379 C  
HETATM    3  H1  UNL     1      -8.871  17.359  64.923  1.00  0.00     0.000 HD 
HETATM    4  H2  UNL     1      -8.480  16.752  66.448  1.00  0.00     0.000 HD 
ENDROOT
BRANCH   2   5
HETATM    5  C   UNL     1     -10.743  15.446  66.970  1.00  0.00    -0.321 C  
HETATM    6  S   UNL     1     -10.708  16.771  68.215  1.00  0.00    -0.364 SA 
HETATM    7  H   UNL     1     -11.202  16.319  69.433  1.00  0.00     0.000 H  
ENDBRANCH   2   5
TORSDOF 1
ENDMDL
MODEL       53
REMARK 921   NORMALIZED FREE ENERGY PREDICTED BY IDOCK:   -1.49 KCAL/MOL
REMARK 922        TOTAL FREE ENERGY PREDICTED BY IDOCK:   -1.58 KCAL/MOL
REMARK 923 INTER-LIGAND FREE ENERGY PREDICTED BY IDOCK:   -1.58 KCAL/MOL
REMARK 924 INTRA-LIGAND FREE ENERGY PREDICTED BY IDOCK:    0.00 KCAL/MOL
REMARK 927      BINDING AFFINITY PREDICTED BY RF-SCORE:    0.00 PKD
ROOT
HETATM    1  N   UNL     1     -12.480   9.489  70.525  1.00  0.00    -0.487 NA 
HETATM    2  C   UNL     1     -11.102   9.935  70.741  1.00  0.00    -0.347 C  
HETATM    3  H1  UNL     1     -12.997  10.154  69.948  1.00  0.00     0.000 HD 
HETATM    4  H2  UNL     1     -12.958   9.307  71.407  1.00  0.00     0.000 HD 
ENDROOT
BRANCH   2   5
HETATM    5  C   UNL     1     -10.326   8.938  71.606  1.00  0.00    -0.345 C  
HETATM    6  S   UNL     1     -11.463   7.869  72.540  1.00  0.00    -0.398 SA 
HETATM    7  H   UNL     1     -10.759   6.964  73.325  1.00  0.00     0.000 H  
ENDBRANCH   2   5
TORSDOF 1
ENDMDL
MODEL       54
REMARK 921   NORMALIZED FREE ENERGY PREDICTED BY IDOCK:   -1.48 KCAL/MOL
REMARK 922        TOTAL FREE ENERGY PREDICTED BY IDOCK:   -1.57 KCAL/MOL
REMARK 923 INTER-LIGAND FREE ENERGY PREDICTED BY IDOCK:   -1.57 KCAL/MOL
REMARK 924 INTRA-LIGAND FREE ENERGY PREDICTED BY IDOCK:    0.00 KCAL/MOL
REMARK 927      BINDING AFFINITY PREDICTED BY RF-SCORE:    0.00 PKD
ROOT
HETATM    1  N   UNL     1     -13.946   8.123  71.095  1.00  0.00    -0.602 NA 
HETATM    2  C   UNL     1     -12.674   7.796  71.741  1.00  0.00    -0.329 C  
HETATM    3  H1  UNL     1     -14.715   8.109  71.765  1.00  0.00     0.000 HD 
HETATM    4  H2  UNL     1     -14.131   7.512  70.299  1.00  0.00     0.000 HD 
ENDROOT
BRANCH   2   5
HETATM    5  C   UNL     1     -11.519   7.817  70.734  1.00  0.00    -0.272 C  
HETATM    6  S   UNL     1     -11.060   6.129  70.240  1.00  0.00    -0.363 SA 
HETATM    7  H   UNL     1     -10.013   6.148  69.326  1.00  0.00     0.000 H  
ENDBRANCH   2   5
TORSDOF 1
ENDMDL
MODEL       55
REMARK 921   NORMALIZED FREE ENERGY PREDICTED BY IDOCK:   -1.47 KCAL/MOL
REMARK 922        TOTAL FREE ENERGY PREDICTED BY IDOCK:   -1.56 KCAL/MOL
REMARK 923 INTER-LIGAND FREE ENERGY PREDICTED BY IDOCK:   -1.56 KCAL/MOL
REMARK 924 INTRA-LIGAND FREE ENERGY PREDICTED BY IDOCK:    0.00 KCAL/MOL
REMARK 927      BINDING AFFINITY PREDICTED BY RF-SCORE:    0.00 PKD
ROOT
HETATM    1  N   UNL     1     -11.360   6.601  67.178  1.00  0.00    -0.779 NA 
HETATM    2  C   UNL     1     -10.473   7.764  67.102  1.00  0.00    -0.343 C  
HETATM    3  H1  UNL     1     -11.670   6.312  66.250  1.00  0.00     0.000 HD 
HETATM    4  H2  UNL     1     -12.149   6.772  67.801  1.00  0.00     0.000 HD 
ENDROOT
BRANCH   2   5
HETATM    5  C   UNL     1     -10.007   8.198  68.495  1.00  0.00    -0.190 C  
HETATM    6  S   UNL     1     -10.674   7.091  69.775  1.00  0.00    -0.249 SA 
HETATM    7  H   UNL     1     -10.251   7.484  71.039  1.00  0.00     0.000 H  
ENDBRANCH   2   5
TORSDOF 1
ENDMDL
MODEL       56
REMARK 921   NORMALIZED FREE ENERGY PREDICTED BY IDOCK:   -1.46 KCAL/MOL
REMARK 922        TOTAL FREE ENERGY PREDICTED BY IDOCK:   -1.54 KCAL/MOL
REMARK 923 INTER-LIGAND FREE ENERGY PREDICTED BY IDOCK:   -1.54 KCAL/MOL
REMARK 924 INTRA-LIGAND FREE ENERGY PREDICTED BY IDOCK:    0.00 KCAL/MOL
REMARK 927      BINDING AFFINITY PREDICTED BY RF-SCORE:    0.00 PKD
ROOT
HETATM    1  N   UNL     1     -13.426  10.065  72.274  1.00  0.00    -0.596 NA 
HETATM    2  C   UNL     1     -12.807   9.828  70.968  1.00  0.00    -0.291 C  
HETATM    3  H1  UNL     1     -13.979   9.261  72.572  1.00  0.00     0.000 HD 
HETATM    4  H2  UNL     1     -13.979  10.923  72.276  1.00  0.00     0.000 HD 
ENDROOT
BRANCH   2   5
HETATM    5  C   UNL     1     -11.976  11.034  70.521  1.00  0.00    -0.379 C  
HETATM    6  S   UNL     1     -11.720  11.011  68.721  1.00  0.00    -0.278 SA 
HETATM    7  H   UNL     1     -10.966  12.106  68.314  1.00  0.00     0.000 H  
ENDBRANCH   2   5
TORSDOF 1
ENDMDL
MODEL       57
REMARK 921   NORMALIZED FREE ENERGY PREDICTED BY IDOCK:   -1.46 KCAL/MOL
REMARK 922        TOTAL FREE ENERGY PREDICTED BY IDOCK:   -1.54 KCAL/MOL
REMARK 923 INTER-LIGAND FREE ENERGY PREDICTED BY IDOCK:   -1.54 KCAL/MOL
REMARK 924 INTRA-LIGAND FREE ENERGY PREDICTED BY IDOCK:    0.00 KCAL/MOL
REMARK 927      BINDING AFFINITY PREDICTED BY RF-SCORE:    0.00 PKD
ROOT
HETATM    1  N   UNL     1      -8.990  17.117  68.592  1.00  0.00    -0.270 NA 
HETATM    2  C   UNL     1     -10.094  18.079  68.593  1.00  0.00    -0.394 C  
HETATM    3  H1  UNL     1      -8.622  16.976  69.533  1.00  0.00     0.000 HD 
HETATM    4  H2  UNL     1      -8.256  17.389  67.938  1.00  0.00     0.000 HD 
ENDROOT
BRANCH   2   5
HETATM    5  C   UNL     1     -10.647  18.289  67.180  1.00  0.00    -0.367 C  
HETATM    6  S   UNL     1     -10.043  19.852  66.474  1.00  0.00    -0.510 SA 
HETATM    7  H   UNL     1     -10.545  20.043  65.192  1.00  0.00     0.000 H  
ENDBRANCH   2   5
TORSDOF 1
ENDMDL
MODEL       58
REMARK 921   NORMALIZED FREE ENERGY PREDICTED BY IDOCK:   -1.45 KCAL/MOL
REMARK 922        TOTAL FREE ENERGY PREDICTED BY IDOCK:   -1.54 KCAL/MOL
REMARK 923 INTER-LIGAND FREE ENERGY PREDICTED BY IDOCK:   -1.54 KCAL/MOL
REMARK 924 INTRA-LIGAND FREE ENERGY PREDICTED BY IDOCK:    0.00 KCAL/MOL
REMARK 927      BINDING AFFINITY PREDICTED BY RF-SCORE:    0.00 PKD
ROOT
HETATM    1  N   UNL     1     -12.093  13.096  66.098  1.00  0.00    -0.421 NA 
HETATM    2  C   UNL     1     -12.072  14.293  66.942  1.00  0.00    -0.409 C  
HETATM    3  H1  UNL     1     -12.267  13.336  65.121  1.00  0.00     0.000 HD 
HETATM    4  H2  UNL     1     -12.763  12.408  66.440  1.00  0.00     0.000 HD 
ENDROOT
BRANCH   2   5
HETATM    5  C   UNL     1     -11.810  13.933  68.407  1.00  0.00    -0.374 C  
HETATM    6  S   UNL     1     -11.348  15.409  69.364  1.00  0.00    -0.335 SA 
HETATM    7  H   UNL     1     -11.110  15.082  70.694  1.00  0.00     0.000 H  
ENDBRANCH   2   5
TORSDOF 1
ENDMDL
MODEL       59
REMARK 921   NORMALIZED FREE ENERGY PREDICTED BY IDOCK:   -1.44 KCAL/MOL
REMARK 922        TOTAL FREE ENERGY PREDICTED BY IDOCK:   -1.52 KCAL/MOL
REMARK 923 INTER-LIGAND FREE ENERGY PREDICTED BY IDOCK:   -1.52 KCAL/MOL
REMARK 924 INTRA-LIGAND FREE ENERGY PREDICTED BY IDOCK:    0.00 KCAL/MOL
REMARK 927      BINDING AFFINITY PREDICTED BY RF-SCORE:    0.00 PKD
ROOT
HETATM    1  N   UNL     1      -7.668  21.270  67.048  1.00  0.00    -0.741 NA 
HETATM    2  C   UNL     1      -6.618  20.542  67.764  1.00  0.00    -0.301 C  
HETATM    3  H1  UNL     1      -7.327  22.169  66.706  1.00  0.00     0.000 HD 
HETATM    4  H2  UNL     1      -8.505  21.379  67.621  1.00  0.00     0.000 HD 
ENDROOT
BRANCH   2   5
HETATM    5  C   UNL     1      -7.129  19.193  68.276  1.00  0.00    -0.273 C  
HETATM    6  S   UNL     1      -7.239  17.985  66.921  1.00  0.00    -0.208 SA 
HETATM    7  H   UNL     1      -7.703  16.760  67.386  1.00  0.00     0.000 H  
ENDBRANCH   2   5
TORSDOF 1
ENDMDL
MODEL       60
REMARK 921   NORMALIZED FREE ENERGY PREDICTED BY IDOCK:   -1.44 KCAL/MOL
REMARK 922        TOTAL FREE ENERGY PREDICTED BY IDOCK:   -1.52 KCAL/MOL
REMARK 923 INTER-LIGAND FREE ENERGY PREDICTED BY IDOCK:   -1.52 KCAL/MOL
REMARK 924 INTRA-LIGAND FREE ENERGY PREDICTED BY IDOCK:    0.00 KCAL/MOL
REMARK 927      BINDING AFFINITY PREDICTED BY RF-SCORE:    0.00 PKD
ROOT
HETATM    1  N   UNL     1     -12.167  14.386  67.301  1.00  0.00    -0.608 NA 
HETATM    2  C   UNL     1     -11.147  15.414  67.082  1.00  0.00    -0.291 C  
HETATM    3  H1  UNL     1     -12.287  13.803  66.473  1.00  0.00     0.000 HD 
HETATM    4  H2  UNL     1     -13.051  14.794  67.605  1.00  0.00     0.000 HD 
ENDROOT
BRANCH   2   5
HETATM    5  C   UNL     1     -10.966  16.289  68.325  1.00  0.00    -0.348 C  
HETATM    6  S   UNL     1      -9.351  17.125  68.299  1.00  0.00    -0.273 SA 
HETATM    7  H   UNL     1      -9.187  17.920  69.427  1.00  0.00     0.000 H  
ENDBRANCH   2   5
TORSDOF 1
ENDMDL
MODEL       61
REMARK 921   NORMALIZED FREE ENERGY PREDICTED BY IDOCK:   -1.41 KCAL/MOL
REMARK 922        TOTAL FREE ENERGY PREDICTED BY IDOCK:   -1.49 KCAL/MOL
REMARK 923 INTER-LIGAND FREE ENERGY PREDICTED BY IDOCK:   -1.49 KCAL/MOL
REMARK 924 INTRA-LIGAND FREE ENERGY PREDICTED BY IDOCK:    0.00 KCAL/MOL
REMARK 927      BINDING AFFINITY PREDICTED BY RF-SCORE:    0.00 PKD
ROOT
HETATM    1  N   UNL     1     -11.951   6.691  69.857  1.00  0.00    -0.639 NA 
HETATM    2  C   UNL     1     -12.494   6.962  71.189  1.00  0.00    -0.349 C  
HETATM    3  H1  UNL     1     -12.604   6.977  69.127  1.00  0.00     0.000 HD 
HETATM    4  H2  UNL     1     -11.679   5.713  69.756  1.00  0.00     0.000 HD 
ENDROOT
BRANCH   2   5
HETATM    5  C   UNL     1     -11.514   6.535  72.285  1.00  0.00    -0.289 C  
HETATM    6  S   UNL     1     -10.196   5.485  71.602  1.00  0.00    -0.215 SA 
HETATM    7  H   UNL     1      -9.306   5.096  72.597  1.00  0.00     0.000 H  
ENDBRANCH   2   5
TORSDOF 1
ENDMDL
MODEL       62
REMARK 921   NORMALIZED FREE ENERGY PREDICTED BY IDOCK:   -1.39 KCAL/MOL
REMARK 922        TOTAL FREE ENERGY PREDICTED BY IDOCK:   -1.47 KCAL/MOL
REMARK 923 INTER-LIGAND FREE ENERGY PREDICTED BY IDOCK:   -1.47 KCAL/MOL
REMARK 924 INTRA-LIGAND FREE ENERGY PREDICTED BY IDOCK:    0.00 KCAL/MOL
REMARK 927      BINDING AFFINITY PREDICTED BY RF-SCORE:    0.00 PKD
ROOT
HETATM    1  N   UNL     1     -11.476  14.148  70.435  1.00  0.00    -0.491 NA 
HETATM    2  C   UNL     1     -11.799  12.902  69.738  1.00  0.00    -0.310 C  
HETATM    3  H1  UNL     1     -11.127  14.854  69.787  1.00  0.00     0.000 HD 
HETATM    4  H2  UNL     1     -10.825  13.989  71.204  1.00  0.00     0.000 HD 
ENDROOT
BRANCH   2   5
HETATM    5  C   UNL     1     -12.323  11.842  70.711  1.00  0.00    -0.337 C  
HETATM    6  S   UNL     1     -13.338  12.604  72.013  1.00  0.00    -0.337 SA 
HETATM    7  H   UNL     1     -13.814  11.642  72.897  1.00  0.00     0.000 H  
ENDBRANCH   2   5
TORSDOF 1
ENDMDL
MODEL       63
REMARK 921   NORMALIZED FREE ENERGY PREDICTED BY IDOCK:   -1.39 KCAL/MOL
REMARK 922        TOTAL FREE ENERGY PREDICTED BY IDOCK:   -1.47 KCAL/MOL
REMARK 923 INTER-LIGAND FREE ENERGY PREDICTED BY IDOCK:   -1.47 KCAL/MOL
REMARK 924 INTRA-LIGAND FREE ENERGY PREDICTED BY IDOCK:    0.00 KCAL/MOL
REMARK 927      BINDING AFFINITY PREDICTED BY RF-SCORE:    0.00 PKD
ROOT
HETATM    1  N   UNL     1     -11.393   6.493  67.949  1.00  0.00    -0.637 NA 
HETATM    2  C   UNL     1     -11.273   6.382  69.404  1.00  0.00    -0.394 C  
HETATM    3  H1  UNL     1     -12.137   5.892  67.593  1.00  0.00     0.000 HD 
HETATM    4  H2  UNL     1     -10.504   6.306  67.485  1.00  0.00     0.000 HD 
ENDROOT
BRANCH   2   5
HETATM    5  C   UNL     1     -10.157   7.285  69.939  1.00  0.00    -0.194 C  
HETATM    6  S   UNL     1     -10.673   8.114  71.472  1.00  0.00    -0.244 SA 
HETATM    7  H   UNL     1      -9.660   8.933  71.958  1.00  0.00     0.000 H  
ENDBRANCH   2   5
TORSDOF 1
ENDMDL
MODEL       64
REMARK 921   NORMALIZED FREE ENERGY PREDICTED BY IDOCK:   -1.39 KCAL/MOL
REMARK 922        TOTAL FREE ENERGY PREDICTED BY IDOCK:   -1.47 KCAL/MOL
REMARK 923 INTER-LIGAND FREE ENERGY PREDICTED BY IDOCK:   -1.47 KCAL/MOL
REMARK 924 INTRA-LIGAND FREE ENERGY PREDICTED BY IDOCK:    0.00 KCAL/MOL
REMARK 927      BINDING AFFINITY PREDICTED BY RF-SCORE:    0.00 PKD
ROOT
HETATM    1  N   UNL     1     -11.986   6.071  72.757  1.00  0.00    -0.529 NA 
HETATM    2  C   UNL     1     -11.045   7.036  72.184  1.00  0.00    -0.245 C  
HETATM    3  H1  UNL     1     -11.683   5.763  73.681  1.00  0.00     0.000 HD 
HETATM    4  H2  UNL     1     -12.141   5.281  72.130  1.00  0.00     0.000 HD 
ENDROOT
BRANCH   2   5
HETATM    5  C   UNL     1     -11.501   7.498  70.797  1.00  0.00    -0.284 C  
HETATM    6  S   UNL     1     -11.007   6.301  69.520  1.00  0.00    -0.409 SA 
HETATM    7  H   UNL     1     -11.421   6.721  68.262  1.00  0.00     0.000 H  
ENDBRANCH   2   5
TORSDOF 1
ENDMDL
MODEL       65
REMARK 921   NORMALIZED FREE ENERGY PREDICTED BY IDOCK:   -1.38 KCAL/MOL
REMARK 922        TOTAL FREE ENERGY PREDICTED BY IDOCK:   -1.46 KCAL/MOL
REMARK 923 INTER-LIGAND FREE ENERGY PREDICTED BY IDOCK:   -1.46 KCAL/MOL
REMARK 924 INTRA-LIGAND FREE ENERGY PREDICTED BY IDOCK:    0.00 KCAL/MOL
REMARK 927      BINDING AFFINITY PREDICTED BY RF-SCORE:    0.00 PKD
ROOT
HETATM    1  N   UNL     1      -6.177  20.407  70.666  1.00  0.00    -0.529 NA 
HETATM    2  C   UNL     1      -6.470  19.346  69.701  1.00  0.00    -0.294 C  
HETATM    3  H1  UNL     1      -5.887  20.019  71.564  1.00  0.00     0.000 HD 
HETATM    4  H2  UNL     1      -6.964  21.046  70.771  1.00  0.00     0.000 HD 
ENDROOT
BRANCH   2   5
HETATM    5  C   UNL     1      -6.905  19.928  68.352  1.00  0.00    -0.300 C  
HETATM    6  S   UNL     1      -5.666  21.102  67.724  1.00  0.00    -0.341 SA 
HETATM    7  H   UNL     1      -6.061  21.630  66.500  1.00  0.00     0.000 H  
ENDBRANCH   2   5
TORSDOF 1
ENDMDL
MODEL       66
REMARK 921   NORMALIZED FREE ENERGY PREDICTED BY IDOCK:   -1.38 KCAL/MOL
REMARK 922        TOTAL FREE ENERGY PREDICTED BY IDOCK:   -1.46 KCAL/MOL
REMARK 923 INTER-LIGAND FREE ENERGY PREDICTED BY IDOCK:   -1.46 KCAL/MOL
REMARK 924 INTRA-LIGAND FREE ENERGY PREDICTED BY IDOCK:    0.00 KCAL/MOL
REMARK 927      BINDING AFFINITY PREDICTED BY RF-SCORE:    0.00 PKD
ROOT
HETATM    1  N   UNL     1     -11.067   5.680  66.179  1.00  0.00    -0.756 NA 
HETATM    2  C   UNL     1     -11.023   6.345  67.484  1.00  0.00    -0.364 C  
HETATM    3  H1  UNL     1     -11.835   5.011  66.131  1.00  0.00     0.000 HD 
HETATM    4  H2  UNL     1     -10.173   5.243  65.951  1.00  0.00     0.000 HD 
ENDROOT
BRANCH   2   5
HETATM    5  C   UNL     1      -9.869   7.350  67.555  1.00  0.00    -0.158 C  
HETATM    6  S   UNL     1     -10.400   8.887  68.368  1.00  0.00    -0.183 SA 
HETATM    7  H   UNL     1      -9.353   9.799  68.434  1.00  0.00     0.000 H  
ENDBRANCH   2   5
TORSDOF 1
ENDMDL
MODEL       67
REMARK 921   NORMALIZED FREE ENERGY PREDICTED BY IDOCK:   -1.36 KCAL/MOL
REMARK 922        TOTAL FREE ENERGY PREDICTED BY IDOCK:   -1.44 KCAL/MOL
REMARK 923 INTER-LIGAND FREE ENERGY PREDICTED BY IDOCK:   -1.44 KCAL/MOL
REMARK 924 INTRA-LIGAND FREE ENERGY PREDICTED BY IDOCK:    0.00 KCAL/MOL
REMARK 927      BINDING AFFINITY PREDICTED BY RF-SCORE:    0.00 PKD
ROOT
HETATM    1  N   UNL     1     -11.802  10.226  68.249  1.00  0.00    -0.715 NA 
HETATM    2  C   UNL     1     -10.794   9.805  69.224  1.00  0.00    -0.216 C  
HETATM    3  H1  UNL     1     -12.296  11.060  68.565  1.00  0.00     0.000 HD 
HETATM    4  H2  UNL     1     -12.447   9.468  68.027  1.00  0.00     0.000 HD 
ENDROOT
BRANCH   2   5
HETATM    5  C   UNL     1     -10.051   8.553  68.749  1.00  0.00    -0.196 C  
HETATM    6  S   UNL     1     -10.334   8.267  66.976  1.00  0.00    -0.312 SA 
HETATM    7  H   UNL     1      -9.660   7.130  66.544  1.00  0.00     0.000 H  
ENDBRANCH   2   5
TORSDOF 1
ENDMDL
MODEL       68
REMARK 921   NORMALIZED FREE ENERGY PREDICTED BY IDOCK:   -1.36 KCAL/MOL
REMARK 922        TOTAL FREE ENERGY PREDICTED BY IDOCK:   -1.44 KCAL/MOL
REMARK 923 INTER-LIGAND FREE ENERGY PREDICTED BY IDOCK:   -1.44 KCAL/MOL
REMARK 924 INTRA-LIGAND FREE ENERGY PREDICTED BY IDOCK:    0.00 KCAL/MOL
REMARK 927      BINDING AFFINITY PREDICTED BY RF-SCORE:    0.00 PKD
ROOT
HETATM    1  N   UNL     1     -11.519  14.861  67.833  1.00  0.00    -0.330 NA 
HETATM    2  C   UNL     1     -12.163  14.072  66.781  1.00  0.00    -0.404 C  
HETATM    3  H1  UNL     1     -11.781  15.845  67.768  1.00  0.00     0.000 HD 
HETATM    4  H2  UNL     1     -10.506  14.740  67.825  1.00  0.00     0.000 HD 
ENDROOT
BRANCH   2   5
HETATM    5  C   UNL     1     -11.771  12.594  66.878  1.00  0.00    -0.383 C  
HETATM    6  S   UNL     1     -11.715  12.052  68.613  1.00  0.00    -0.322 SA 
HETATM    7  H   UNL     1     -11.359  10.712  68.701  1.00  0.00     0.000 H  
ENDBRANCH   2   5
TORSDOF 1
ENDMDL
MODEL       69
REMARK 921   NORMALIZED FREE ENERGY PREDICTED BY IDOCK:   -1.35 KCAL/MOL
REMARK 922        TOTAL FREE ENERGY PREDICTED BY IDOCK:   -1.43 KCAL/MOL
REMARK 923 INTER-LIGAND FREE ENERGY PREDICTED BY IDOCK:   -1.43 KCAL/MOL
REMARK 924 INTRA-LIGAND FREE ENERGY PREDICTED BY IDOCK:    0.00 KCAL/MOL
REMARK 927      BINDING AFFINITY PREDICTED BY RF-SCORE:    0.00 PKD
ROOT
HETATM    1  N   UNL     1     -11.444  11.863  70.092  1.00  0.00    -0.521 NA 
HETATM    2  C   UNL     1     -11.982  13.177  69.736  1.00  0.00    -0.314 C  
HETATM    3  H1  UNL     1     -11.512  11.696  71.096  1.00  0.00     0.000 HD 
HETATM    4  H2  UNL     1     -10.488  11.745  69.755  1.00  0.00     0.000 HD 
ENDROOT
BRANCH   2   5
HETATM    5  C   UNL     1     -11.881  13.428  68.228  1.00  0.00    -0.358 C  
HETATM    6  S   UNL     1     -10.330  14.283  67.816  1.00  0.00    -0.240 SA 
HETATM    7  H   UNL     1     -10.238  14.510  66.448  1.00  0.00     0.000 H  
ENDBRANCH   2   5
TORSDOF 1
ENDMDL
MODEL       70
REMARK 921   NORMALIZED FREE ENERGY PREDICTED BY IDOCK:   -1.35 KCAL/MOL
REMARK 922        TOTAL FREE ENERGY PREDICTED BY IDOCK:   -1.43 KCAL/MOL
REMARK 923 INTER-LIGAND FREE ENERGY PREDICTED BY IDOCK:   -1.43 KCAL/MOL
REMARK 924 INTRA-LIGAND FREE ENERGY PREDICTED BY IDOCK:    0.00 KCAL/MOL
REMARK 927      BINDING AFFINITY PREDICTED BY RF-SCORE:    0.00 PKD
ROOT
HETATM    1  N   UNL     1     -11.000   9.342  71.556  1.00  0.00    -0.360 NA 
HETATM    2  C   UNL     1     -11.870  10.305  70.878  1.00  0.00    -0.377 C  
HETATM    3  H1  UNL     1     -10.283   8.983  70.924  1.00  0.00     0.000 HD 
HETATM    4  H2  UNL     1     -11.537   8.587  71.982  1.00  0.00     0.000 HD 
ENDROOT
BRANCH   2   5
HETATM    5  C   UNL     1     -12.945  10.844  71.826  1.00  0.00    -0.451 C  
HETATM    6  S   UNL     1     -13.023  12.660  71.750  1.00  0.00    -0.238 SA 
HETATM    7  H   UNL     1     -13.999  13.149  72.611  1.00  0.00     0.000 H  
ENDBRANCH   2   5
TORSDOF 1
ENDMDL
MODEL       71
REMARK 921   NORMALIZED FREE ENERGY PREDICTED BY IDOCK:   -1.33 KCAL/MOL
REMARK 922        TOTAL FREE ENERGY PREDICTED BY IDOCK:   -1.41 KCAL/MOL
REMARK 923 INTER-LIGAND FREE ENERGY PREDICTED BY IDOCK:   -1.41 KCAL/MOL
REMARK 924 INTRA-LIGAND FREE ENERGY PREDICTED BY IDOCK:    0.00 KCAL/MOL
REMARK 927      BINDING AFFINITY PREDICTED BY RF-SCORE:    0.00 PKD
ROOT
HETATM    1  N   UNL     1     -11.699   5.259  73.156  1.00  0.00    -0.535 NA 
HETATM    2  C   UNL     1     -10.681   5.180  72.107  1.00  0.00    -0.187 C  
HETATM    3  H1  UNL     1     -11.479   4.633  73.931  1.00  0.00     0.000 HD 
HETATM    4  H2  UNL     1     -12.633   5.084  72.785  1.00  0.00     0.000 HD 
ENDROOT
BRANCH   2   5
HETATM    5  C   UNL     1     -11.010   6.119  70.943  1.00  0.00    -0.297 C  
HETATM    6  S   UNL     1     -12.440   7.168  71.342  1.00  0.00    -0.394 SA 
HETATM    7  H   UNL     1     -12.739   8.021  70.286  1.00  0.00     0.000 H  
ENDBRANCH   2   5
TORSDOF 1
ENDMDL
MODEL       72
REMARK 921   NORMALIZED FREE ENERGY PREDICTED BY IDOCK:   -1.33 KCAL/MOL
REMARK 922        TOTAL FREE ENERGY PREDICTED BY IDOCK:   -1.41 KCAL/MOL
REMARK 923 INTER-LIGAND FREE ENERGY PREDICTED BY IDOCK:   -1.41 KCAL/MOL
REMARK 924 INTRA-LIGAND FREE ENERGY PREDICTED BY IDOCK:    0.00 KCAL/MOL
REMARK 927      BINDING AFFINITY PREDICTED BY RF-SCORE:    0.00 PKD
ROOT
HETATM    1  N   UNL     1      -7.184  19.603  68.906  1.00  0.00    -0.351 NA 
HETATM    2  C   UNL     1      -7.849  18.468  68.264  1.00  0.00    -0.303 C  
HETATM    3  H1  UNL     1      -6.704  19.316  69.759  1.00  0.00     0.000 HD 
HETATM    4  H2  UNL     1      -7.836  20.368  69.082  1.00  0.00     0.000 HD 
ENDROOT
BRANCH   2   5
HETATM    5  C   UNL     1      -8.569  18.899  66.983  1.00  0.00    -0.289 C  
HETATM    6  S   UNL     1      -9.663  20.316  67.301  1.00  0.00    -0.464 SA 
HETATM    7  H   UNL     1     -10.317  20.708  66.139  1.00  0.00     0.000 H  
ENDBRANCH   2   5
TORSDOF 1
ENDMDL
MODEL       73
REMARK 921   NORMALIZED FREE ENERGY PREDICTED BY IDOCK:   -1.33 KCAL/MOL
REMARK 922        TOTAL FREE ENERGY PREDICTED BY IDOCK:   -1.41 KCAL/MOL
REMARK 923 INTER-LIGAND FREE ENERGY PREDICTED BY IDOCK:   -1.41 KCAL/MOL
REMARK 924 INTRA-LIGAND FREE ENERGY PREDICTED BY IDOCK:    0.00 KCAL/MOL
REMARK 927      BINDING AFFINITY PREDICTED BY RF-SCORE:    0.00 PKD
ROOT
HETATM    1  N   UNL     1     -12.112  12.323  66.034  1.00  0.00    -0.630 NA 
HETATM    2  C   UNL     1     -11.049  12.230  65.032  1.00  0.00    -0.316 C  
HETATM    3  H1  UNL     1     -12.620  13.205  65.953  1.00  0.00     0.000 HD 
HETATM    4  H2  UNL     1     -11.751  12.184  66.978  1.00  0.00     0.000 HD 
ENDROOT
BRANCH   2   5
HETATM    5  C   UNL     1     -10.287  10.908  65.153  1.00  0.00    -0.278 C  
HETATM    6  S   UNL     1      -8.867  11.079  66.276  1.00  0.00    -0.184 SA 
HETATM    7  H   UNL     1      -8.175   9.878  66.386  1.00  0.00     0.000 H  
ENDBRANCH   2   5
TORSDOF 1
ENDMDL
MODEL       74
REMARK 921   NORMALIZED FREE ENERGY PREDICTED BY IDOCK:   -1.31 KCAL/MOL
REMARK 922        TOTAL FREE ENERGY PREDICTED BY IDOCK:   -1.39 KCAL/MOL
REMARK 923 INTER-LIGAND FREE ENERGY PREDICTED BY IDOCK:   -1.39 KCAL/MOL
REMARK 924 INTRA-LIGAND FREE ENERGY PREDICTED BY IDOCK:    0.00 KCAL/MOL
REMARK 927      BINDING AFFINITY PREDICTED BY RF-SCORE:    0.00 PKD
ROOT
HETATM    1  N   UNL     1      -9.376  13.762  68.646  1.00  0.00    -0.362 NA 
HETATM    2  C   UNL     1     -10.101  14.595  67.684  1.00  0.00    -0.228 C  
HETATM    3  H1  UNL     1      -8.391  14.025  68.694  1.00  0.00     0.000 HD 
HETATM    4  H2  UNL     1      -9.489  12.769  68.442  1.00  0.00     0.000 HD 
ENDROOT
BRANCH   2   5
HETATM    5  C   UNL     1     -11.579  14.201  67.613  1.00  0.00    -0.365 C  
HETATM    6  S   UNL     1     -11.990  13.525  65.975  1.00  0.00    -0.433 SA 
HETATM    7  H   UNL     1     -13.331  13.167  65.909  1.00  0.00     0.000 H  
ENDBRANCH   2   5
TORSDOF 1
ENDMDL
MODEL       75
REMARK 921   NORMALIZED FREE ENERGY PREDICTED BY IDOCK:   -1.29 KCAL/MOL
REMARK 922        TOTAL FREE ENERGY PREDICTED BY IDOCK:   -1.37 KCAL/MOL
REMARK 923 INTER-LIGAND FREE ENERGY PREDICTED BY IDOCK:   -1.37 KCAL/MOL
REMARK 924 INTRA-LIGAND FREE ENERGY PREDICTED BY IDOCK:    0.00 KCAL/MOL
REMARK 927      BINDING AFFINITY PREDICTED BY RF-SCORE:    0.00 PKD
ROOT
HETATM    1  N   UNL     1      -8.219  18.173  68.578  1.00  0.00    -0.308 NA 
HETATM    2  C   UNL     1      -9.539  18.805  68.636  1.00  0.00    -0.387 C  
HETATM    3  H1  UNL     1      -7.649  18.435  69.383  1.00  0.00     0.000 HD 
HETATM    4  H2  UNL     1      -7.743  18.378  67.699  1.00  0.00     0.000 HD 
ENDROOT
BRANCH   2   5
HETATM    5  C   UNL     1     -10.394  18.411  67.428  1.00  0.00    -0.391 C  
HETATM    6  S   UNL     1     -10.033  16.707  66.906  1.00  0.00    -0.280 SA 
HETATM    7  H   UNL     1     -10.810  16.350  65.810  1.00  0.00     0.000 H  
ENDBRANCH   2   5
TORSDOF 1
ENDMDL
MODEL       76
REMARK 921   NORMALIZED FREE ENERGY PREDICTED BY IDOCK:   -1.28 KCAL/MOL
REMARK 922        TOTAL FREE ENERGY PREDICTED BY IDOCK:   -1.35 KCAL/MOL
REMARK 923 INTER-LIGAND FREE ENERGY PREDICTED BY IDOCK:   -1.35 KCAL/MOL
REMARK 924 INTRA-LIGAND FREE ENERGY PREDICTED BY IDOCK:    0.00 KCAL/MOL
REMARK 927      BINDING AFFINITY PREDICTED BY RF-SCORE:    0.00 PKD
ROOT
HETATM    1  N   UNL     1     -12.430  12.719  71.003  1.00  0.00    -0.347 NA 
HETATM    2  C   UNL     1     -12.445  13.981  70.262  1.00  0.00    -0.338 C  
HETATM    3  H1  UNL     1     -12.918  11.984  70.491  1.00  0.00     0.000 HD 
HETATM    4  H2  UNL     1     -12.806  12.833  71.945  1.00  0.00     0.000 HD 
ENDROOT
BRANCH   2   5
HETATM    5  C   UNL     1     -11.713  15.085  71.030  1.00  0.00    -0.332 C  
HETATM    6  S   UNL     1     -10.950  16.274  69.886  1.00  0.00    -0.334 SA 
HETATM    7  H   UNL     1     -10.286  17.276  70.584  1.00  0.00     0.000 H  
ENDBRANCH   2   5
TORSDOF 1
ENDMDL
MODEL       77
REMARK 921   NORMALIZED FREE ENERGY PREDICTED BY IDOCK:   -1.27 KCAL/MOL
REMARK 922        TOTAL FREE ENERGY PREDICTED BY IDOCK:   -1.34 KCAL/MOL
REMARK 923 INTER-LIGAND FREE ENERGY PREDICTED BY IDOCK:   -1.34 KCAL/MOL
REMARK 924 INTRA-LIGAND FREE ENERGY PREDICTED BY IDOCK:    0.00 KCAL/MOL
REMARK 927      BINDING AFFINITY PREDICTED BY RF-SCORE:    0.00 PKD
ROOT
HETATM    1  N   UNL     1     -10.102   8.806  66.167  1.00  0.00    -0.424 NA 
HETATM    2  C   UNL     1     -10.018  10.085  65.459  1.00  0.00    -0.296 C  
HETATM    3  H1  UNL     1     -10.737   8.866  66.963  1.00  0.00     0.000 HD 
HETATM    4  H2  UNL     1      -9.180   8.471  66.446  1.00  0.00     0.000 HD 
ENDROOT
BRANCH   2   5
HETATM    5  C   UNL     1      -9.065   9.996  64.263  1.00  0.00    -0.255 C  
HETATM    6  S   UNL     1      -9.519  11.203  62.982  1.00  0.00    -0.367 SA 
HETATM    7  H   UNL     1      -8.655  11.122  61.896  1.00  0.00     0.000 H  
ENDBRANCH   2   5
TORSDOF 1
ENDMDL
MODEL       78
REMARK 921   NORMALIZED FREE ENERGY PREDICTED BY IDOCK:   -1.27 KCAL/MOL
REMARK 922        TOTAL FREE ENERGY PREDICTED BY IDOCK:   -1.34 KCAL/MOL
REMARK 923 INTER-LIGAND FREE ENERGY PREDICTED BY IDOCK:   -1.34 KCAL/MOL
REMARK 924 INTRA-LIGAND FREE ENERGY PREDICTED BY IDOCK:    0.00 KCAL/MOL
REMARK 927      BINDING AFFINITY PREDICTED BY RF-SCORE:    0.00 PKD
ROOT
HETATM    1  N   UNL     1     -11.743  12.176  70.181  1.00  0.00    -0.525 NA 
HETATM    2  C   UNL     1     -11.788  12.840  68.876  1.00  0.00    -0.308 C  
HETATM    3  H1  UNL     1     -12.419  12.585  70.826  1.00  0.00     0.000 HD 
HETATM    4  H2  UNL     1     -10.801  12.181  70.571  1.00  0.00     0.000 HD 
ENDROOT
BRANCH   2   5
HETATM    5  C   UNL     1     -10.773  12.227  67.907  1.00  0.00    -0.215 C  
HETATM    6  S   UNL     1     -10.915  10.414  67.883  1.00  0.00    -0.292 SA 
HETATM    7  H   UNL     1      -9.995   9.857  67.003  1.00  0.00     0.000 H  
ENDBRANCH   2   5
TORSDOF 1
ENDMDL
MODEL       79
REMARK 921   NORMALIZED FREE ENERGY PREDICTED BY IDOCK:   -1.27 KCAL/MOL
REMARK 922        TOTAL FREE ENERGY PREDICTED BY IDOCK:   -1.34 KCAL/MOL
REMARK 923 INTER-LIGAND FREE ENERGY PREDICTED BY IDOCK:   -1.34 KCAL/MOL
REMARK 924 INTRA-LIGAND FREE ENERGY PREDICTED BY IDOCK:    0.00 KCAL/MOL
REMARK 927      BINDING AFFINITY PREDICTED BY RF-SCORE:    0.00 PKD
ROOT
HETATM    1  N   UNL     1      -9.801  13.023  68.652  1.00  0.00    -0.396 NA 
HETATM    2  C   UNL     1     -10.303  11.648  68.617  1.00  0.00    -0.215 C  
HETATM    3  H1  UNL     1      -8.795  13.053  68.484  1.00  0.00     0.000 HD 
HETATM    4  H2  UNL     1     -10.051  13.491  69.523  1.00  0.00     0.000 HD 
ENDROOT
BRANCH   2   5
HETATM    5  C   UNL     1     -11.813  11.602  68.868  1.00  0.00    -0.329 C  
HETATM    6  S   UNL     1     -12.170  11.174  70.599  1.00  0.00    -0.400 SA 
HETATM    7  H   UNL     1     -13.540  11.133  70.827  1.00  0.00     0.000 H  
ENDBRANCH   2   5
TORSDOF 1
ENDMDL
MODEL       80
REMARK 921   NORMALIZED FREE ENERGY PREDICTED BY IDOCK:   -1.24 KCAL/MOL
REMARK 922        TOTAL FREE ENERGY PREDICTED BY IDOCK:   -1.31 KCAL/MOL
REMARK 923 INTER-LIGAND FREE ENERGY PREDICTED BY IDOCK:   -1.31 KCAL/MOL
REMARK 924 INTRA-LIGAND FREE ENERGY PREDICTED BY IDOCK:    0.00 KCAL/MOL
REMARK 927      BINDING AFFINITY PREDICTED BY RF-SCORE:    0.00 PKD
ROOT
HETATM    1  N   UNL     1     -11.442   6.419  73.086  1.00  0.00    -0.461 NA 
HETATM    2  C   UNL     1     -10.353   7.344  73.408  1.00  0.00    -0.360 C  
HETATM    3  H1  UNL     1     -11.500   5.664  73.770  1.00  0.00     0.000 HD 
HETATM    4  H2  UNL     1     -11.358   6.059  72.135  1.00  0.00     0.000 HD 
ENDROOT
BRANCH   2   5
HETATM    5  C   UNL     1     -10.266   8.477  72.382  1.00  0.00    -0.299 C  
HETATM    6  S   UNL     1      -8.603   8.563  71.650  1.00  0.00    -0.192 SA 
HETATM    7  H   UNL     1      -8.524   9.591  70.719  1.00  0.00     0.000 H  
ENDBRANCH   2   5
TORSDOF 1
ENDMDL
MODEL       81
REMARK 921   NORMALIZED FREE ENERGY PREDICTED BY IDOCK:   -1.23 KCAL/MOL
REMARK 922        TOTAL FREE ENERGY PREDICTED BY IDOCK:   -1.30 KCAL/MOL
REMARK 923 INTER-LIGAND FREE ENERGY PREDICTED BY IDOCK:   -1.30 KCAL/MOL
REMARK 924 INTRA-LIGAND FREE ENERGY PREDICTED BY IDOCK:    0.00 KCAL/MOL
REMARK 927      BINDING AFFINITY PREDICTED BY RF-SCORE:    0.00 PKD
ROOT
HETATM    1  N   UNL     1      -8.403  10.132  70.266  1.00  0.00    -0.385 NA 
HETATM    2  C   UNL     1      -9.569   9.280  70.022  1.00  0.00    -0.209 C  
HETATM    3  H1  UNL     1      -7.589   9.800  69.748  1.00  0.00     0.000 HD 
HETATM    4  H2  UNL     1      -8.204  10.218  71.263  1.00  0.00     0.000 HD 
ENDROOT
BRANCH   2   5
HETATM    5  C   UNL     1     -10.791   9.778  70.799  1.00  0.00    -0.333 C  
HETATM    6  S   UNL     1     -11.673  11.064  69.863  1.00  0.00    -0.377 SA 
HETATM    7  H   UNL     1     -12.783  11.516  70.568  1.00  0.00     0.000 H  
ENDBRANCH   2   5
TORSDOF 1
ENDMDL
MODEL       82
REMARK 921   NORMALIZED FREE ENERGY PREDICTED BY IDOCK:   -1.22 KCAL/MOL
REMARK 922        TOTAL FREE ENERGY PREDICTED BY IDOCK:   -1.30 KCAL/MOL
REMARK 923 INTER-LIGAND FREE ENERGY PREDICTED BY IDOCK:   -1.30 KCAL/MOL
REMARK 924 INTRA-LIGAND FREE ENERGY PREDICTED BY IDOCK:    0.00 KCAL/MOL
REMARK 927      BINDING AFFINITY PREDICTED BY RF-SCORE:    0.00 PKD
ROOT
HETATM    1  N   UNL     1      -9.032  14.900  69.583  1.00  0.00    -0.444 NA 
HETATM    2  C   UNL     1     -10.053  15.947  69.642  1.00  0.00    -0.271 C  
HETATM    3  H1  UNL     1      -9.206  14.174  70.279  1.00  0.00     0.000 HD 
HETATM    4  H2  UNL     1      -8.092  15.287  69.671  1.00  0.00     0.000 HD 
ENDROOT
BRANCH   2   5
HETATM    5  C   UNL     1      -9.793  17.035  68.596  1.00  0.00    -0.290 C  
HETATM    6  S   UNL     1     -10.391  16.517  66.959  1.00  0.00    -0.290 SA 
HETATM    7  H   UNL     1     -10.155  17.505  66.010  1.00  0.00     0.000 H  
ENDBRANCH   2   5
TORSDOF 1
ENDMDL
MODEL       83
REMARK 921   NORMALIZED FREE ENERGY PREDICTED BY IDOCK:   -1.22 KCAL/MOL
REMARK 922        TOTAL FREE ENERGY PREDICTED BY IDOCK:   -1.29 KCAL/MOL
REMARK 923 INTER-LIGAND FREE ENERGY PREDICTED BY IDOCK:   -1.29 KCAL/MOL
REMARK 924 INTRA-LIGAND FREE ENERGY PREDICTED BY IDOCK:    0.00 KCAL/MOL
REMARK 927      BINDING AFFINITY PREDICTED BY RF-SCORE:    0.00 PKD
ROOT
HETATM    1  N   UNL     1     -11.888   6.642  69.645  1.00  0.00    -0.646 NA 
HETATM    2  C   UNL     1     -10.725   6.825  68.775  1.00  0.00    -0.239 C  
HETATM    3  H1  UNL     1     -12.412   7.512  69.748  1.00  0.00     0.000 HD 
HETATM    4  H2  UNL     1     -11.623   6.255  70.550  1.00  0.00     0.000 HD 
ENDROOT
BRANCH   2   5
HETATM    5  C   UNL     1      -9.938   5.519  68.621  1.00  0.00    -0.166 C  
HETATM    6  S   UNL     1      -9.816   4.645  70.210  1.00  0.00    -0.243 SA 
HETATM    7  H   UNL     1      -9.102   3.460  70.070  1.00  0.00     0.000 H  
ENDBRANCH   2   5
TORSDOF 1
ENDMDL
MODEL       84
REMARK 921   NORMALIZED FREE ENERGY PREDICTED BY IDOCK:   -1.21 KCAL/MOL
REMARK 922        TOTAL FREE ENERGY PREDICTED BY IDOCK:   -1.28 KCAL/MOL
REMARK 923 INTER-LIGAND FREE ENERGY PREDICTED BY IDOCK:   -1.28 KCAL/MOL
REMARK 924 INTRA-LIGAND FREE ENERGY PREDICTED BY IDOCK:    0.00 KCAL/MOL
REMARK 927      BINDING AFFINITY PREDICTED BY RF-SCORE:    0.00 PKD
ROOT
HETATM    1  N   UNL     1     -10.982  14.499  65.152  1.00  0.00    -0.355 NA 
HETATM    2  C   UNL     1     -10.369  15.797  65.442  1.00  0.00    -0.389 C  
HETATM    3  H1  UNL     1     -11.778  14.600  64.523  1.00  0.00     0.000 HD 
HETATM    4  H2  UNL     1     -11.239  14.007  66.007  1.00  0.00     0.000 HD 
ENDROOT
BRANCH   2   5
HETATM    5  C   UNL     1      -9.173  15.647  66.387  1.00  0.00    -0.311 C  
HETATM    6  S   UNL     1      -9.575  16.273  68.046  1.00  0.00    -0.227 SA 
HETATM    7  H   UNL     1      -8.489  16.137  68.903  1.00  0.00     0.000 H  
ENDBRANCH   2   5
TORSDOF 1
ENDMDL
MODEL       85
REMARK 921   NORMALIZED FREE ENERGY PREDICTED BY IDOCK:   -1.21 KCAL/MOL
REMARK 922        TOTAL FREE ENERGY PREDICTED BY IDOCK:   -1.28 KCAL/MOL
REMARK 923 INTER-LIGAND FREE ENERGY PREDICTED BY IDOCK:   -1.28 KCAL/MOL
REMARK 924 INTRA-LIGAND FREE ENERGY PREDICTED BY IDOCK:    0.00 KCAL/MOL
REMARK 927      BINDING AFFINITY PREDICTED BY RF-SCORE:    0.00 PKD
ROOT
HETATM    1  N   UNL     1     -12.401   6.967  70.380  1.00  0.00    -0.618 NA 
HETATM    2  C   UNL     1     -11.381   6.817  71.420  1.00  0.00    -0.279 C  
HETATM    3  H1  UNL     1     -13.007   7.766  70.569  1.00  0.00     0.000 HD 
HETATM    4  H2  UNL     1     -12.938   6.109  70.256  1.00  0.00     0.000 HD 
ENDROOT
BRANCH   2   5
HETATM    5  C   UNL     1     -10.471   5.619  71.136  1.00  0.00    -0.241 C  
HETATM    6  S   UNL     1      -9.318   5.340  72.514  1.00  0.00    -0.138 SA 
HETATM    7  H   UNL     1      -8.492   4.252  72.256  1.00  0.00     0.000 H  
ENDBRANCH   2   5
TORSDOF 1
ENDMDL
MODEL       86
REMARK 921   NORMALIZED FREE ENERGY PREDICTED BY IDOCK:   -1.20 KCAL/MOL
REMARK 922        TOTAL FREE ENERGY PREDICTED BY IDOCK:   -1.27 KCAL/MOL
REMARK 923 INTER-LIGAND FREE ENERGY PREDICTED BY IDOCK:   -1.27 KCAL/MOL
REMARK 924 INTRA-LIGAND FREE ENERGY PREDICTED BY IDOCK:    0.00 KCAL/MOL
REMARK 927      BINDING AFFINITY PREDICTED BY RF-SCORE:    0.00 PKD
ROOT
HETATM    1  N   UNL     1      -8.784  20.228  66.043  1.00  0.00    -0.580 NA 
HETATM    2  C   UNL     1      -8.386  19.216  67.023  1.00  0.00    -0.276 C  
HETATM    3  H1  UNL     1      -9.776  20.452  66.125  1.00  0.00     0.000 HD 
HETATM    4  H2  UNL     1      -8.539  19.947  65.093  1.00  0.00     0.000 HD 
ENDROOT
BRANCH   2   5
HETATM    5  C   UNL     1      -6.896  18.881  66.901  1.00  0.00    -0.195 C  
HETATM    6  S   UNL     1      -6.006  19.326  68.422  1.00  0.00    -0.221 SA 
HETATM    7  H   UNL     1      -4.654  19.022  68.312  1.00  0.00     0.000 H  
ENDBRANCH   2   5
TORSDOF 1
ENDMDL
MODEL       87
REMARK 921   NORMALIZED FREE ENERGY PREDICTED BY IDOCK:   -1.20 KCAL/MOL
REMARK 922        TOTAL FREE ENERGY PREDICTED BY IDOCK:   -1.27 KCAL/MOL
REMARK 923 INTER-LIGAND FREE ENERGY PREDICTED BY IDOCK:   -1.27 KCAL/MOL
REMARK 924 INTRA-LIGAND FREE ENERGY PREDICTED BY IDOCK:    0.00 KCAL/MOL
REMARK 927      BINDING AFFINITY PREDICTED BY RF-SCORE:    0.00 PKD
ROOT
HETATM    1  N   UNL     1     -10.855   9.111  67.691  1.00  0.00    -0.475 NA 
HETATM    2  C   UNL     1     -11.086  10.348  68.438  1.00  0.00    -0.268 C  
HETATM    3  H1  UNL     1     -11.298   8.314  68.149  1.00  0.00     0.000 HD 
HETATM    4  H2  UNL     1      -9.860   8.948  67.534  1.00  0.00     0.000 HD 
ENDROOT
BRANCH   2   5
HETATM    5  C   UNL     1     -10.421  11.544  67.750  1.00  0.00    -0.188 C  
HETATM    6  S   UNL     1     -11.388  12.081  66.307  1.00  0.00    -0.338 SA 
HETATM    7  H   UNL     1     -10.784  13.167  65.683  1.00  0.00     0.000 H  
ENDBRANCH   2   5
TORSDOF 1
ENDMDL
MODEL       88
REMARK 921   NORMALIZED FREE ENERGY PREDICTED BY IDOCK:   -1.18 KCAL/MOL
REMARK 922        TOTAL FREE ENERGY PREDICTED BY IDOCK:   -1.25 KCAL/MOL
REMARK 923 INTER-LIGAND FREE ENERGY PREDICTED BY IDOCK:   -1.25 KCAL/MOL
REMARK 924 INTRA-LIGAND FREE ENERGY PREDICTED BY IDOCK:    0.00 KCAL/MOL
REMARK 927      BINDING AFFINITY PREDICTED BY RF-SCORE:    0.00 PKD
ROOT
HETATM    1  N   UNL     1     -11.023   7.780  67.827  1.00  0.00    -0.501 NA 
HETATM    2  C   UNL     1     -10.358   8.531  66.761  1.00  0.00    -0.276 C  
HETATM    3  H1  UNL     1     -11.408   6.903  67.476  1.00  0.00     0.000 HD 
HETATM    4  H2  UNL     1     -11.734   8.342  68.294  1.00  0.00     0.000 HD 
ENDROOT
BRANCH   2   5
HETATM    5  C   UNL     1      -9.779   9.847  67.288  1.00  0.00    -0.171 C  
HETATM    6  S   UNL     1     -11.019  11.175  67.216  1.00  0.00    -0.302 SA 
HETATM    7  H   UNL     1     -10.494  12.370  67.694  1.00  0.00     0.000 H  
ENDBRANCH   2   5
TORSDOF 1
ENDMDL
MODEL       89
REMARK 921   NORMALIZED FREE ENERGY PREDICTED BY IDOCK:   -1.18 KCAL/MOL
REMARK 922        TOTAL FREE ENERGY PREDICTED BY IDOCK:   -1.25 KCAL/MOL
REMARK 923 INTER-LIGAND FREE ENERGY PREDICTED BY IDOCK:   -1.25 KCAL/MOL
REMARK 924 INTRA-LIGAND FREE ENERGY PREDICTED BY IDOCK:    0.00 KCAL/MOL
REMARK 927      BINDING AFFINITY PREDICTED BY RF-SCORE:    0.00 PKD
ROOT
HETATM    1  N   UNL     1      -8.872  11.947  65.794  1.00  0.00    -0.407 NA 
HETATM    2  C   UNL     1      -9.877  11.265  66.612  1.00  0.00    -0.205 C  
HETATM    3  H1  UNL     1      -7.968  11.478  65.853  1.00  0.00     0.000 HD 
HETATM    4  H2  UNL     1      -8.800  12.935  66.036  1.00  0.00     0.000 HD 
ENDROOT
BRANCH   2   5
HETATM    5  C   UNL     1     -11.235  11.968  66.522  1.00  0.00    -0.334 C  
HETATM    6  S   UNL     1     -11.296  13.077  65.083  1.00  0.00    -0.301 SA 
HETATM    7  H   UNL     1     -12.528  13.715  65.001  1.00  0.00     0.000 H  
ENDBRANCH   2   5
TORSDOF 1
ENDMDL
MODEL       90
REMARK 921   NORMALIZED FREE ENERGY PREDICTED BY IDOCK:   -1.17 KCAL/MOL
REMARK 922        TOTAL FREE ENERGY PREDICTED BY IDOCK:   -1.24 KCAL/MOL
REMARK 923 INTER-LIGAND FREE ENERGY PREDICTED BY IDOCK:   -1.24 KCAL/MOL
REMARK 924 INTRA-LIGAND FREE ENERGY PREDICTED BY IDOCK:    0.00 KCAL/MOL
REMARK 927      BINDING AFFINITY PREDICTED BY RF-SCORE:    0.00 PKD
ROOT
HETATM    1  N   UNL     1     -11.709   6.479  69.270  1.00  0.00    -0.606 NA 
HETATM    2  C   UNL     1     -11.134   6.553  70.615  1.00  0.00    -0.309 C  
HETATM    3  H1  UNL     1     -12.727   6.422  69.306  1.00  0.00     0.000 HD 
HETATM    4  H2  UNL     1     -11.308   5.710  68.733  1.00  0.00     0.000 HD 
ENDROOT
BRANCH   2   5
HETATM    5  C   UNL     1      -9.606   6.641  70.560  1.00  0.00    -0.169 C  
HETATM    6  S   UNL     1      -9.063   8.362  70.341  1.00  0.00    -0.154 SA 
HETATM    7  H   UNL     1      -7.677   8.442  70.292  1.00  0.00     0.000 H  
ENDBRANCH   2   5
TORSDOF 1
ENDMDL
MODEL       91
REMARK 921   NORMALIZED FREE ENERGY PREDICTED BY IDOCK:   -1.16 KCAL/MOL
REMARK 922        TOTAL FREE ENERGY PREDICTED BY IDOCK:   -1.23 KCAL/MOL
REMARK 923 INTER-LIGAND FREE ENERGY PREDICTED BY IDOCK:   -1.23 KCAL/MOL
REMARK 924 INTRA-LIGAND FREE ENERGY PREDICTED BY IDOCK:    0.00 KCAL/MOL
REMARK 927      BINDING AFFINITY PREDICTED BY RF-SCORE:    0.00 PKD
ROOT
HETATM    1  N   UNL     1      -8.336  17.539  68.775  1.00  0.00    -0.256 NA 
HETATM    2  C   UNL     1      -8.596  18.976  68.666  1.00  0.00    -0.354 C  
HETATM    3  H1  UNL     1      -9.093  17.062  69.265  1.00  0.00     0.000 HD 
HETATM    4  H2  UNL     1      -7.432  17.354  69.210  1.00  0.00     0.000 HD 
ENDROOT
BRANCH   2   5
HETATM    5  C   UNL     1      -7.459  19.691  67.930  1.00  0.00    -0.286 C  
HETATM    6  S   UNL     1      -7.776  19.738  66.140  1.00  0.00    -0.333 SA 
HETATM    7  H   UNL     1      -6.744  20.388  65.472  1.00  0.00     0.000 H  
ENDBRANCH   2   5
TORSDOF 1
ENDMDL
MODEL       92
REMARK 921   NORMALIZED FREE ENERGY PREDICTED BY IDOCK:   -1.14 KCAL/MOL
REMARK 922        TOTAL FREE ENERGY PREDICTED BY IDOCK:   -1.21 KCAL/MOL
REMARK 923 INTER-LIGAND FREE ENERGY PREDICTED BY IDOCK:   -1.21 KCAL/MOL
REMARK 924 INTRA-LIGAND FREE ENERGY PREDICTED BY IDOCK:    0.00 KCAL/MOL
REMARK 927      BINDING AFFINITY PREDICTED BY RF-SCORE:    0.00 PKD
ROOT
HETATM    1  N   UNL     1      -5.862  17.491  70.073  1.00  0.00    -0.253 NA 
HETATM    2  C   UNL     1      -6.612  17.870  68.874  1.00  0.00    -0.241 C  
HETATM    3  H1  UNL     1      -5.538  16.526  70.016  1.00  0.00     0.000 HD 
HETATM    4  H2  UNL     1      -6.405  17.656  70.921  1.00  0.00     0.000 HD 
ENDROOT
BRANCH   2   5
HETATM    5  C   UNL     1      -7.098  19.320  68.959  1.00  0.00    -0.356 C  
HETATM    6  S   UNL     1      -5.805  20.398  69.646  1.00  0.00    -0.356 SA 
HETATM    7  H   UNL     1      -6.246  21.714  69.723  1.00  0.00     0.000 H  
ENDBRANCH   2   5
TORSDOF 1
ENDMDL
MODEL       93
REMARK 921   NORMALIZED FREE ENERGY PREDICTED BY IDOCK:   -1.14 KCAL/MOL
REMARK 922        TOTAL FREE ENERGY PREDICTED BY IDOCK:   -1.20 KCAL/MOL
REMARK 923 INTER-LIGAND FREE ENERGY PREDICTED BY IDOCK:   -1.20 KCAL/MOL
REMARK 924 INTRA-LIGAND FREE ENERGY PREDICTED BY IDOCK:    0.00 KCAL/MOL
REMARK 927      BINDING AFFINITY PREDICTED BY RF-SCORE:    0.00 PKD
ROOT
HETATM    1  N   UNL     1     -10.400   4.921  71.813  1.00  0.00    -0.198 NA 
HETATM    2  C   UNL     1     -11.072   5.267  73.067  1.00  0.00    -0.317 C  
HETATM    3  H1  UNL     1     -10.743   4.034  71.443  1.00  0.00     0.000 HD 
HETATM    4  H2  UNL     1      -9.386   4.917  71.920  1.00  0.00     0.000 HD 
ENDROOT
BRANCH   2   5
HETATM    5  C   UNL     1     -10.558   6.599  73.622  1.00  0.00    -0.300 C  
HETATM    6  S   UNL     1     -11.044   7.980  72.544  1.00  0.00    -0.387 SA 
HETATM    7  H   UNL     1     -10.578   9.189  73.048  1.00  0.00     0.000 H  
ENDBRANCH   2   5
TORSDOF 1
ENDMDL
MODEL       94
REMARK 921   NORMALIZED FREE ENERGY PREDICTED BY IDOCK:   -1.13 KCAL/MOL
REMARK 922        TOTAL FREE ENERGY PREDICTED BY IDOCK:   -1.20 KCAL/MOL
REMARK 923 INTER-LIGAND FREE ENERGY PREDICTED BY IDOCK:   -1.20 KCAL/MOL
REMARK 924 INTRA-LIGAND FREE ENERGY PREDICTED BY IDOCK:    0.00 KCAL/MOL
REMARK 927      BINDING AFFINITY PREDICTED BY RF-SCORE:    0.00 PKD
ROOT
HETATM    1  N   UNL     1      -8.584  13.826  68.866  1.00  0.00    -0.366 NA 
HETATM    2  C   UNL     1      -9.039  14.554  67.681  1.00  0.00    -0.195 C  
HETATM    3  H1  UNL     1      -7.568  13.866  68.957  1.00  0.00     0.000 HD 
HETATM    4  H2  UNL     1      -8.923  12.864  68.868  1.00  0.00     0.000 HD 
ENDROOT
BRANCH   2   5
HETATM    5  C   UNL     1     -10.564  14.494  67.545  1.00  0.00    -0.262 C  
HETATM    6  S   UNL     1     -11.356  15.776  68.562  1.00  0.00    -0.377 SA 
HETATM    7  H   UNL     1     -12.739  15.722  68.439  1.00  0.00     0.000 H  
ENDBRANCH   2   5
TORSDOF 1
ENDMDL
MODEL       95
REMARK 921   NORMALIZED FREE ENERGY PREDICTED BY IDOCK:   -1.13 KCAL/MOL
REMARK 922        TOTAL FREE ENERGY PREDICTED BY IDOCK:   -1.20 KCAL/MOL
REMARK 923 INTER-LIGAND FREE ENERGY PREDICTED BY IDOCK:   -1.20 KCAL/MOL
REMARK 924 INTRA-LIGAND FREE ENERGY PREDICTED BY IDOCK:    0.00 KCAL/MOL
REMARK 927      BINDING AFFINITY PREDICTED BY RF-SCORE:    0.00 PKD
ROOT
HETATM    1  N   UNL     1     -11.319   8.122  69.840  1.00  0.00    -0.455 NA 
HETATM    2  C   UNL     1     -10.172   8.900  69.368  1.00  0.00    -0.209 C  
HETATM    3  H1  UNL     1     -11.187   7.815  70.804  1.00  0.00     0.000 HD 
HETATM    4  H2  UNL     1     -11.519   7.336  69.221  1.00  0.00     0.000 HD 
ENDROOT
BRANCH   2   5
HETATM    5  C   UNL     1     -10.372   9.360  67.921  1.00  0.00    -0.225 C  
HETATM    6  S   UNL     1     -11.220  10.967  67.864  1.00  0.00    -0.311 SA 
HETATM    7  H   UNL     1     -11.401  11.386  66.551  1.00  0.00     0.000 H  
ENDBRANCH   2   5
TORSDOF 1
ENDMDL
MODEL       96
REMARK 921   NORMALIZED FREE ENERGY PREDICTED BY IDOCK:   -1.13 KCAL/MOL
REMARK 922        TOTAL FREE ENERGY PREDICTED BY IDOCK:   -1.19 KCAL/MOL
REMARK 923 INTER-LIGAND FREE ENERGY PREDICTED BY IDOCK:   -1.19 KCAL/MOL
REMARK 924 INTRA-LIGAND FREE ENERGY PREDICTED BY IDOCK:    0.00 KCAL/MOL
REMARK 927      BINDING AFFINITY PREDICTED BY RF-SCORE:    0.00 PKD
ROOT
HETATM    1  N   UNL     1      -9.035   7.743  74.214  1.00  0.00    -0.436 NA 
HETATM    2  C   UNL     1     -10.165   6.949  73.728  1.00  0.00    -0.363 C  
HETATM    3  H1  UNL     1      -9.300   8.719  74.347  1.00  0.00     0.000 HD 
HETATM    4  H2  UNL     1      -8.224   7.654  73.601  1.00  0.00     0.000 HD 
ENDROOT
BRANCH   2   5
HETATM    5  C   UNL     1      -9.767   5.483  73.528  1.00  0.00    -0.149 C  
HETATM    6  S   UNL     1     -11.240   4.429  73.368  1.00  0.00    -0.247 SA 
HETATM    7  H   UNL     1     -10.879   3.098  73.188  1.00  0.00     0.000 H  
ENDBRANCH   2   5
TORSDOF 1
ENDMDL
MODEL       97
REMARK 921   NORMALIZED FREE ENERGY PREDICTED BY IDOCK:   -1.11 KCAL/MOL
REMARK 922        TOTAL FREE ENERGY PREDICTED BY IDOCK:   -1.18 KCAL/MOL
REMARK 923 INTER-LIGAND FREE ENERGY PREDICTED BY IDOCK:   -1.18 KCAL/MOL
REMARK 924 INTRA-LIGAND FREE ENERGY PREDICTED BY IDOCK:    0.00 KCAL/MOL
REMARK 927      BINDING AFFINITY PREDICTED BY RF-SCORE:    0.00 PKD
ROOT
HETATM    1  N   UNL     1     -11.699   7.880  69.957  1.00  0.00    -0.443 NA 
HETATM    2  C   UNL     1     -11.277   9.143  70.565  1.00  0.00    -0.264 C  
HETATM    3  H1  UNL     1     -12.260   7.327  70.605  1.00  0.00     0.000 HD 
HETATM    4  H2  UNL     1     -10.902   7.350  69.604  1.00  0.00     0.000 HD 
ENDROOT
BRANCH   2   5
HETATM    5  C   UNL     1     -10.435   9.974  69.592  1.00  0.00    -0.248 C  
HETATM    6  S   UNL     1     -10.506   9.274  67.915  1.00  0.00    -0.222 SA 
HETATM    7  H   UNL     1      -9.742  10.027  67.031  1.00  0.00     0.000 H  
ENDBRANCH   2   5
TORSDOF 1
ENDMDL
MODEL       98
REMARK 921   NORMALIZED FREE ENERGY PREDICTED BY IDOCK:   -1.11 KCAL/MOL
REMARK 922        TOTAL FREE ENERGY PREDICTED BY IDOCK:   -1.18 KCAL/MOL
REMARK 923 INTER-LIGAND FREE ENERGY PREDICTED BY IDOCK:   -1.18 KCAL/MOL
REMARK 924 INTRA-LIGAND FREE ENERGY PREDICTED BY IDOCK:    0.00 KCAL/MOL
REMARK 927      BINDING AFFINITY PREDICTED BY RF-SCORE:    0.00 PKD
ROOT
HETATM    1  N   UNL     1      -8.328  12.283  68.833  1.00  0.00    -0.351 NA 
HETATM    2  C   UNL     1      -9.126  13.252  68.079  1.00  0.00    -0.202 C  
HETATM    3  H1  UNL     1      -7.350  12.306  68.545  1.00  0.00     0.000 HD 
HETATM    4  H2  UNL     1      -8.718  11.343  68.765  1.00  0.00     0.000 HD 
ENDROOT
BRANCH   2   5
HETATM    5  C   UNL     1     -10.594  13.218  68.512  1.00  0.00    -0.256 C  
HETATM    6  S   UNL     1     -11.647  12.563  67.182  1.00  0.00    -0.366 SA 
HETATM    7  H   UNL     1     -12.980  12.532  67.575  1.00  0.00     0.000 H  
ENDBRANCH   2   5
TORSDOF 1
ENDMDL
MODEL       99
REMARK 921   NORMALIZED FREE ENERGY PREDICTED BY IDOCK:   -1.10 KCAL/MOL
REMARK 922        TOTAL FREE ENERGY PREDICTED BY IDOCK:   -1.17 KCAL/MOL
REMARK 923 INTER-LIGAND FREE ENERGY PREDICTED BY IDOCK:   -1.17 KCAL/MOL
REMARK 924 INTRA-LIGAND FREE ENERGY PREDICTED BY IDOCK:    0.00 KCAL/MOL
REMARK 927      BINDING AFFINITY PREDICTED BY RF-SCORE:    0.00 PKD
ROOT
HETATM    1  N   UNL     1     -10.884   8.707  67.682  1.00  0.00    -0.493 NA 
HETATM    2  C   UNL     1     -10.480  10.048  67.256  1.00  0.00    -0.254 C  
HETATM    3  H1  UNL     1     -11.132   8.693  68.672  1.00  0.00     0.000 HD 
HETATM    4  H2  UNL     1     -10.168   8.013  67.465  1.00  0.00     0.000 HD 
ENDROOT
BRANCH   2   5
HETATM    5  C   UNL     1     -10.109  10.069  65.770  1.00  0.00    -0.250 C  
HETATM    6  S   UNL     1      -8.328  10.367  65.553  1.00  0.00    -0.170 SA 
HETATM    7  H   UNL     1      -7.990  10.386  64.204  1.00  0.00     0.000 H  
ENDBRANCH   2   5
TORSDOF 1
ENDMDL
MODEL      100
REMARK 921   NORMALIZED FREE ENERGY PREDICTED BY IDOCK:   -1.10 KCAL/MOL
REMARK 922        TOTAL FREE ENERGY PREDICTED BY IDOCK:   -1.16 KCAL/MOL
REMARK 923 INTER-LIGAND FREE ENERGY PREDICTED BY IDOCK:   -1.16 KCAL/MOL
REMARK 924 INTRA-LIGAND FREE ENERGY PREDICTED BY IDOCK:    0.00 KCAL/MOL
REMARK 927      BINDING AFFINITY PREDICTED BY RF-SCORE:    0.00 PKD
ROOT
HETATM    1  N   UNL     1     -10.477   7.736  66.602  1.00  0.00    -0.491 NA 
HETATM    2  C   UNL     1     -11.134   6.507  67.053  1.00  0.00    -0.339 C  
HETATM    3  H1  UNL     1     -11.155   8.487  66.462  1.00  0.00     0.000 HD 
HETATM    4  H2  UNL     1      -9.917   7.576  65.765  1.00  0.00     0.000 HD 
ENDROOT
BRANCH   2   5
HETATM    5  C   UNL     1     -10.117   5.381  67.263  1.00  0.00    -0.193 C  
HETATM    6  S   UNL     1      -8.724   5.542  66.105  1.00  0.00    -0.137 SA 
HETATM    7  H   UNL     1      -7.802   4.520  66.296  1.00  0.00     0.000 H  
ENDBRANCH   2   5
TORSDOF 1
ENDMDL
MODEL      101
REMARK 921   NORMALIZED FREE ENERGY PREDICTED BY IDOCK:   -1.09 KCAL/MOL
REMARK 922        TOTAL FREE ENERGY PREDICTED BY IDOCK:   -1.15 KCAL/MOL
REMARK 923 INTER-LIGAND FREE ENERGY PREDICTED BY IDOCK:   -1.15 KCAL/MOL
REMARK 924 INTRA-LIGAND FREE ENERGY PREDICTED BY IDOCK:    0.00 KCAL/MOL
REMARK 927      BINDING AFFINITY PREDICTED BY RF-SCORE:    0.00 PKD
ROOT
HETATM    1  N   UNL     1      -6.567  19.668  69.775  1.00  0.00    -0.324 NA 
HETATM    2  C   UNL     1      -6.828  18.492  68.942  1.00  0.00    -0.278 C  
HETATM    3  H1  UNL     1      -6.180  19.401  70.680  1.00  0.00     0.000 HD 
HETATM    4  H2  UNL     1      -7.401  20.246  69.879  1.00  0.00     0.000 HD 
ENDROOT
BRANCH   2   5
HETATM    5  C   UNL     1      -7.408  18.894  67.583  1.00  0.00    -0.221 C  
HETATM    6  S   UNL     1      -7.406  17.482  66.436  1.00  0.00    -0.325 SA 
HETATM    7  H   UNL     1      -7.933  17.846  65.202  1.00  0.00     0.000 H  
ENDBRANCH   2   5
TORSDOF 1
ENDMDL
MODEL      102
REMARK 921   NORMALIZED FREE ENERGY PREDICTED BY IDOCK:   -1.07 KCAL/MOL
REMARK 922        TOTAL FREE ENERGY PREDICTED BY IDOCK:   -1.14 KCAL/MOL
REMARK 923 INTER-LIGAND FREE ENERGY PREDICTED BY IDOCK:   -1.14 KCAL/MOL
REMARK 924 INTRA-LIGAND FREE ENERGY PREDICTED BY IDOCK:    0.00 KCAL/MOL
REMARK 927      BINDING AFFINITY PREDICTED BY RF-SCORE:    0.00 PKD
ROOT
HETATM    1  N   UNL     1      -8.615  13.314  66.821  1.00  0.00    -0.421 NA 
HETATM    2  C   UNL     1      -8.628  11.864  67.029  1.00  0.00    -0.176 C  
HETATM    3  H1  UNL     1      -7.706  13.713  67.057  1.00  0.00     0.000 HD 
HETATM    4  H2  UNL     1      -9.370  13.772  67.332  1.00  0.00     0.000 HD 
ENDROOT
BRANCH   2   5
HETATM    5  C   UNL     1      -9.992  11.265  66.675  1.00  0.00    -0.209 C  
HETATM    6  S   UNL     1     -10.071  10.834  64.910  1.00  0.00    -0.332 SA 
HETATM    7  H   UNL     1     -11.309  10.290  64.588  1.00  0.00     0.000 H  
ENDBRANCH   2   5
TORSDOF 1
ENDMDL
MODEL      103
REMARK 921   NORMALIZED FREE ENERGY PREDICTED BY IDOCK:   -1.07 KCAL/MOL
REMARK 922        TOTAL FREE ENERGY PREDICTED BY IDOCK:   -1.14 KCAL/MOL
REMARK 923 INTER-LIGAND FREE ENERGY PREDICTED BY IDOCK:   -1.14 KCAL/MOL
REMARK 924 INTRA-LIGAND FREE ENERGY PREDICTED BY IDOCK:    0.00 KCAL/MOL
REMARK 927      BINDING AFFINITY PREDICTED BY RF-SCORE:    0.00 PKD
ROOT
HETATM    1  N   UNL     1     -11.848   5.425  73.052  1.00  0.00    -0.534 NA 
HETATM    2  C   UNL     1     -10.411   5.618  73.256  1.00  0.00    -0.211 C  
HETATM    3  H1  UNL     1     -12.257   4.874  73.808  1.00  0.00     0.000 HD 
HETATM    4  H2  UNL     1     -12.045   5.014  72.139  1.00  0.00     0.000 HD 
ENDROOT
BRANCH   2   5
HETATM    5  C   UNL     1      -9.796   6.444  72.123  1.00  0.00    -0.158 C  
HETATM    6  S   UNL     1     -10.076   5.646  70.513  1.00  0.00    -0.233 SA 
HETATM    7  H   UNL     1      -9.518   6.396  69.485  1.00  0.00     0.000 H  
ENDBRANCH   2   5
TORSDOF 1
ENDMDL
MODEL      104
REMARK 921   NORMALIZED FREE ENERGY PREDICTED BY IDOCK:   -1.05 KCAL/MOL
REMARK 922        TOTAL FREE ENERGY PREDICTED BY IDOCK:   -1.11 KCAL/MOL
REMARK 923 INTER-LIGAND FREE ENERGY PREDICTED BY IDOCK:   -1.11 KCAL/MOL
REMARK 924 INTRA-LIGAND FREE ENERGY PREDICTED BY IDOCK:    0.00 KCAL/MOL
REMARK 927      BINDING AFFINITY PREDICTED BY RF-SCORE:    0.00 PKD
ROOT
HETATM    1  N   UNL     1      -9.923   8.435  66.122  1.00  0.00    -0.472 NA 
HETATM    2  C   UNL     1     -10.523   8.468  67.458  1.00  0.00    -0.258 C  
HETATM    3  H1  UNL     1     -10.635   8.512  65.396  1.00  0.00     0.000 HD 
HETATM    4  H2  UNL     1      -9.343   7.607  65.993  1.00  0.00     0.000 HD 
ENDROOT
BRANCH   2   5
HETATM    5  C   UNL     1      -9.455   8.353  68.549  1.00  0.00    -0.146 C  
HETATM    6  S   UNL     1      -9.878   9.390  69.981  1.00  0.00    -0.237 SA 
HETATM    7  H   UNL     1      -8.908   9.285  70.971  1.00  0.00     0.000 H  
ENDBRANCH   2   5
TORSDOF 1
ENDMDL
MODEL      105
REMARK 921   NORMALIZED FREE ENERGY PREDICTED BY IDOCK:   -1.03 KCAL/MOL
REMARK 922        TOTAL FREE ENERGY PREDICTED BY IDOCK:   -1.10 KCAL/MOL
REMARK 923 INTER-LIGAND FREE ENERGY PREDICTED BY IDOCK:   -1.10 KCAL/MOL
REMARK 924 INTRA-LIGAND FREE ENERGY PREDICTED BY IDOCK:    0.00 KCAL/MOL
REMARK 927      BINDING AFFINITY PREDICTED BY RF-SCORE:    0.00 PKD
ROOT
HETATM    1  N   UNL     1      -9.572   4.326  70.357  1.00  0.00    -0.179 NA 
HETATM    2  C   UNL     1     -10.491   5.362  69.885  1.00  0.00    -0.308 C  
HETATM    3  H1  UNL     1      -9.558   3.527  69.722  1.00  0.00     0.000 HD 
HETATM    4  H2  UNL     1      -9.786   4.042  71.313  1.00  0.00     0.000 HD 
ENDROOT
BRANCH   2   5
HETATM    5  C   UNL     1     -10.511   6.562  70.837  1.00  0.00    -0.223 C  
HETATM    6  S   UNL     1     -12.218   7.021  71.265  1.00  0.00    -0.386 SA 
HETATM    7  H   UNL     1     -12.236   8.109  72.129  1.00  0.00     0.000 H  
ENDBRANCH   2   5
TORSDOF 1
ENDMDL
MODEL      106
REMARK 921   NORMALIZED FREE ENERGY PREDICTED BY IDOCK:   -1.03 KCAL/MOL
REMARK 922        TOTAL FREE ENERGY PREDICTED BY IDOCK:   -1.09 KCAL/MOL
REMARK 923 INTER-LIGAND FREE ENERGY PREDICTED BY IDOCK:   -1.09 KCAL/MOL
REMARK 924 INTRA-LIGAND FREE ENERGY PREDICTED BY IDOCK:    0.00 KCAL/MOL
REMARK 927      BINDING AFFINITY PREDICTED BY RF-SCORE:    0.00 PKD
ROOT
HETATM    1  N   UNL     1      -7.913  16.927  68.200  1.00  0.00    -0.189 NA 
HETATM    2  C   UNL     1      -8.426  15.848  67.354  1.00  0.00    -0.175 C  
HETATM    3  H1  UNL     1      -7.434  16.556  69.022  1.00  0.00     0.000 HD 
HETATM    4  H2  UNL     1      -8.650  17.583  68.459  1.00  0.00     0.000 HD 
ENDROOT
BRANCH   2   5
HETATM    5  C   UNL     1      -9.145  16.403  66.121  1.00  0.00    -0.326 C  
HETATM    6  S   UNL     1     -10.332  15.194  65.463  1.00  0.00    -0.400 SA 
HETATM    7  H   UNL     1     -10.984  15.698  64.344  1.00  0.00     0.000 H  
ENDBRANCH   2   5
TORSDOF 1
ENDMDL
MODEL      107
REMARK 921   NORMALIZED FREE ENERGY PREDICTED BY IDOCK:   -1.03 KCAL/MOL
REMARK 922        TOTAL FREE ENERGY PREDICTED BY IDOCK:   -1.09 KCAL/MOL
REMARK 923 INTER-LIGAND FREE ENERGY PREDICTED BY IDOCK:   -1.09 KCAL/MOL
REMARK 924 INTRA-LIGAND FREE ENERGY PREDICTED BY IDOCK:    0.00 KCAL/MOL
REMARK 927      BINDING AFFINITY PREDICTED BY RF-SCORE:    0.00 PKD
ROOT
HETATM    1  N   UNL     1     -10.663   9.059  71.401  1.00  0.00    -0.303 NA 
HETATM    2  C   UNL     1      -9.987   9.060  70.102  1.00  0.00    -0.189 C  
HETATM    3  H1  UNL     1     -10.345   9.834  71.983  1.00  0.00     0.000 HD 
HETATM    4  H2  UNL     1     -10.558   8.164  71.878  1.00  0.00     0.000 HD 
ENDROOT
BRANCH   2   5
HETATM    5  C   UNL     1     -10.465   7.897  69.228  1.00  0.00    -0.216 C  
HETATM    6  S   UNL     1     -11.229   6.595  70.242  1.00  0.00    -0.380 SA 
HETATM    7  H   UNL     1     -11.663   5.539  69.449  1.00  0.00     0.000 H  
ENDBRANCH   2   5
TORSDOF 1
ENDMDL
MODEL      108
REMARK 921   NORMALIZED FREE ENERGY PREDICTED BY IDOCK:   -1.01 KCAL/MOL
REMARK 922        TOTAL FREE ENERGY PREDICTED BY IDOCK:   -1.07 KCAL/MOL
REMARK 923 INTER-LIGAND FREE ENERGY PREDICTED BY IDOCK:   -1.07 KCAL/MOL
REMARK 924 INTRA-LIGAND FREE ENERGY PREDICTED BY IDOCK:    0.00 KCAL/MOL
REMARK 927      BINDING AFFINITY PREDICTED BY RF-SCORE:    0.00 PKD
ROOT
HETATM    1  N   UNL     1     -11.414   6.563  68.955  1.00  0.00    -0.615 NA 
HETATM    2  C   UNL     1     -10.460   7.540  68.426  1.00  0.00    -0.175 C  
HETATM    3  H1  UNL     1     -12.154   7.021  69.487  1.00  0.00     0.000 HD 
HETATM    4  H2  UNL     1     -10.946   5.843  69.505  1.00  0.00     0.000 HD 
ENDROOT
BRANCH   2   5
HETATM    5  C   UNL     1      -9.349   6.854  67.626  1.00  0.00    -0.121 C  
HETATM    6  S   UNL     1      -8.728   7.946  66.312  1.00  0.00    -0.161 SA 
HETATM    7  H   UNL     1      -7.719   7.323  65.586  1.00  0.00     0.000 H  
ENDBRANCH   2   5
TORSDOF 1
ENDMDL
MODEL      109
REMARK 921   NORMALIZED FREE ENERGY PREDICTED BY IDOCK:   -1.01 KCAL/MOL
REMARK 922        TOTAL FREE ENERGY PREDICTED BY IDOCK:   -1.07 KCAL/MOL
REMARK 923 INTER-LIGAND FREE ENERGY PREDICTED BY IDOCK:   -1.07 KCAL/MOL
REMARK 924 INTRA-LIGAND FREE ENERGY PREDICTED BY IDOCK:    0.00 KCAL/MOL
REMARK 927      BINDING AFFINITY PREDICTED BY RF-SCORE:    0.00 PKD
ROOT
HETATM    1  N   UNL     1      -7.440  15.331  66.747  1.00  0.00    -0.276 NA 
HETATM    2  C   UNL     1      -8.576  16.254  66.728  1.00  0.00    -0.237 C  
HETATM    3  H1  UNL     1      -7.250  14.959  65.816  1.00  0.00     0.000 HD 
HETATM    4  H2  UNL     1      -7.575  14.585  67.429  1.00  0.00     0.000 HD 
ENDROOT
BRANCH   2   5
HETATM    5  C   UNL     1      -8.860  16.812  68.126  1.00  0.00    -0.223 C  
HETATM    6  S   UNL     1      -8.388  18.565  68.231  1.00  0.00    -0.329 SA 
HETATM    7  H   UNL     1      -8.645  19.072  69.499  1.00  0.00     0.000 H  
ENDBRANCH   2   5
TORSDOF 1
ENDMDL
MODEL      110
REMARK 921   NORMALIZED FREE ENERGY PREDICTED BY IDOCK:   -1.00 KCAL/MOL
REMARK 922        TOTAL FREE ENERGY PREDICTED BY IDOCK:   -1.06 KCAL/MOL
REMARK 923 INTER-LIGAND FREE ENERGY PREDICTED BY IDOCK:   -1.06 KCAL/MOL
REMARK 924 INTRA-LIGAND FREE ENERGY PREDICTED BY IDOCK:    0.00 KCAL/MOL
REMARK 927      BINDING AFFINITY PREDICTED BY RF-SCORE:    0.00 PKD
ROOT
HETATM    1  N   UNL     1      -6.264  13.576  71.103  1.00  0.00    -0.533 NA 
HETATM    2  C   UNL     1      -6.459  14.667  70.146  1.00  0.00    -0.166 C  
HETATM    3  H1  UNL     1      -6.833  12.765  70.858  1.00  0.00     0.000 HD 
HETATM    4  H2  UNL     1      -6.438  13.881  72.060  1.00  0.00     0.000 HD 
ENDROOT
BRANCH   2   5
HETATM    5  C   UNL     1      -5.605  15.885  70.513  1.00  0.00    -0.111 C  
HETATM    6  S   UNL     1      -6.042  17.317  69.482  1.00  0.00    -0.248 SA 
HETATM    7  H   UNL     1      -5.267  18.422  69.815  1.00  0.00     0.000 H  
ENDBRANCH   2   5
TORSDOF 1
ENDMDL
MODEL      111
REMARK 921   NORMALIZED FREE ENERGY PREDICTED BY IDOCK:   -0.95 KCAL/MOL
REMARK 922        TOTAL FREE ENERGY PREDICTED BY IDOCK:   -1.00 KCAL/MOL
REMARK 923 INTER-LIGAND FREE ENERGY PREDICTED BY IDOCK:   -1.00 KCAL/MOL
REMARK 924 INTRA-LIGAND FREE ENERGY PREDICTED BY IDOCK:    0.00 KCAL/MOL
REMARK 927      BINDING AFFINITY PREDICTED BY RF-SCORE:    0.00 PKD
ROOT
HETATM    1  N   UNL     1      -8.325  17.242  66.693  1.00  0.00    -0.238 NA 
HETATM    2  C   UNL     1      -8.554  15.826  66.399  1.00  0.00    -0.311 C  
HETATM    3  H1  UNL     1      -8.775  17.840  66.000  1.00  0.00     0.000 HD 
HETATM    4  H2  UNL     1      -7.331  17.450  66.780  1.00  0.00     0.000 HD 
ENDROOT
BRANCH   2   5
HETATM    5  C   UNL     1      -7.880  14.927  67.440  1.00  0.00    -0.199 C  
HETATM    6  S   UNL     1      -8.349  15.423  69.125  1.00  0.00    -0.254 SA 
HETATM    7  H   UNL     1      -7.737  14.608  70.070  1.00  0.00     0.000 H  
ENDBRANCH   2   5
TORSDOF 1
ENDMDL
MODEL      112
REMARK 921   NORMALIZED FREE ENERGY PREDICTED BY IDOCK:   -0.94 KCAL/MOL
REMARK 922        TOTAL FREE ENERGY PREDICTED BY IDOCK:   -0.99 KCAL/MOL
REMARK 923 INTER-LIGAND FREE ENERGY PREDICTED BY IDOCK:   -0.99 KCAL/MOL
REMARK 924 INTRA-LIGAND FREE ENERGY PREDICTED BY IDOCK:    0.00 KCAL/MOL
REMARK 927      BINDING AFFINITY PREDICTED BY RF-SCORE:    0.00 PKD
ROOT
HETATM    1  N   UNL     1     -11.072  12.996  66.395  1.00  0.00    -0.281 NA 
HETATM    2  C   UNL     1     -10.296  14.206  66.120  1.00  0.00    -0.300 C  
HETATM    3  H1  UNL     1     -11.736  12.804  65.644  1.00  0.00     0.000 HD 
HETATM    4  H2  UNL     1     -11.536  13.046  67.302  1.00  0.00     0.000 HD 
ENDROOT
BRANCH   2   5
HETATM    5  C   UNL     1      -9.299  14.493  67.246  1.00  0.00    -0.210 C  
HETATM    6  S   UNL     1      -8.505  12.959  67.815  1.00  0.00    -0.199 SA 
HETATM    7  H   UNL     1      -7.600  13.220  68.837  1.00  0.00     0.000 H  
ENDBRANCH   2   5
TORSDOF 1
ENDMDL
MODEL      113
REMARK 921   NORMALIZED FREE ENERGY PREDICTED BY IDOCK:   -0.91 KCAL/MOL
REMARK 922        TOTAL FREE ENERGY PREDICTED BY IDOCK:   -0.96 KCAL/MOL
REMARK 923 INTER-LIGAND FREE ENERGY PREDICTED BY IDOCK:   -0.96 KCAL/MOL
REMARK 924 INTRA-LIGAND FREE ENERGY PREDICTED BY IDOCK:    0.00 KCAL/MOL
REMARK 927      BINDING AFFINITY PREDICTED BY RF-SCORE:    0.00 PKD
ROOT
HETATM    1  N   UNL     1     -10.212   6.579  66.189  1.00  0.00    -0.404 NA 
HETATM    2  C   UNL     1     -10.576   5.184  66.445  1.00  0.00    -0.276 C  
HETATM    3  H1  UNL     1     -11.019   7.119  65.875  1.00  0.00     0.000 HD 
HETATM    4  H2  UNL     1      -9.435   6.648  65.531  1.00  0.00     0.000 HD 
ENDROOT
BRANCH   2   5
HETATM    5  C   UNL     1      -9.365   4.373  66.917  1.00  0.00    -0.153 C  
HETATM    6  S   UNL     1      -9.146   4.524  68.716  1.00  0.00    -0.130 SA 
HETATM    7  H   UNL     1      -8.047   3.788  69.144  1.00  0.00     0.000 H  
ENDBRANCH   2   5
TORSDOF 1
ENDMDL
MODEL      114
REMARK 921   NORMALIZED FREE ENERGY PREDICTED BY IDOCK:   -0.88 KCAL/MOL
REMARK 922        TOTAL FREE ENERGY PREDICTED BY IDOCK:   -0.93 KCAL/MOL
REMARK 923 INTER-LIGAND FREE ENERGY PREDICTED BY IDOCK:   -0.93 KCAL/MOL
REMARK 924 INTRA-LIGAND FREE ENERGY PREDICTED BY IDOCK:    0.00 KCAL/MOL
REMARK 927      BINDING AFFINITY PREDICTED BY RF-SCORE:    0.00 PKD
ROOT
HETATM    1  N   UNL     1     -10.087   5.411  69.629  1.00  0.00    -0.225 NA 
HETATM    2  C   UNL     1      -9.606   6.795  69.620  1.00  0.00    -0.148 C  
HETATM    3  H1  UNL     1      -9.613   4.861  70.346  1.00  0.00     0.000 HD 
HETATM    4  H2  UNL     1     -10.004   4.980  68.708  1.00  0.00     0.000 HD 
ENDROOT
BRANCH   2   5
HETATM    5  C   UNL     1     -10.317   7.622  68.545  1.00  0.00    -0.198 C  
HETATM    6  S   UNL     1     -10.980   6.548  67.236  1.00  0.00    -0.361 SA 
HETATM    7  H   UNL     1     -11.626   7.299  66.260  1.00  0.00     0.000 H  
ENDBRANCH   2   5
TORSDOF 1
ENDMDL
MODEL      115
REMARK 921   NORMALIZED FREE ENERGY PREDICTED BY IDOCK:   -0.88 KCAL/MOL
REMARK 922        TOTAL FREE ENERGY PREDICTED BY IDOCK:   -0.93 KCAL/MOL
REMARK 923 INTER-LIGAND FREE ENERGY PREDICTED BY IDOCK:   -0.93 KCAL/MOL
REMARK 924 INTRA-LIGAND FREE ENERGY PREDICTED BY IDOCK:    0.00 KCAL/MOL
REMARK 927      BINDING AFFINITY PREDICTED BY RF-SCORE:    0.00 PKD
ROOT
HETATM    1  N   UNL     1      -8.380  10.890  64.212  1.00  0.00    -0.371 NA 
HETATM    2  C   UNL     1      -8.728   9.726  65.029  1.00  0.00    -0.174 C  
HETATM    3  H1  UNL     1      -8.206  10.622  63.243  1.00  0.00     0.000 HD 
HETATM    4  H2  UNL     1      -7.592  11.403  64.607  1.00  0.00     0.000 HD 
ENDROOT
BRANCH   2   5
HETATM    5  C   UNL     1      -8.991  10.128  66.483  1.00  0.00    -0.143 C  
HETATM    6  S   UNL     1     -10.293  11.393  66.580  1.00  0.00    -0.242 SA 
HETATM    7  H   UNL     1     -10.532  11.758  67.900  1.00  0.00     0.000 H  
ENDBRANCH   2   5
TORSDOF 1
ENDMDL
MODEL      116
REMARK 921   NORMALIZED FREE ENERGY PREDICTED BY IDOCK:   -0.87 KCAL/MOL
REMARK 922        TOTAL FREE ENERGY PREDICTED BY IDOCK:   -0.92 KCAL/MOL
REMARK 923 INTER-LIGAND FREE ENERGY PREDICTED BY IDOCK:   -0.92 KCAL/MOL
REMARK 924 INTRA-LIGAND FREE ENERGY PREDICTED BY IDOCK:    0.00 KCAL/MOL
REMARK 927      BINDING AFFINITY PREDICTED BY RF-SCORE:    0.00 PKD
ROOT
HETATM    1  N   UNL     1      -9.982   7.782  66.210  1.00  0.00    -0.467 NA 
HETATM    2  C   UNL     1      -8.972   8.740  65.754  1.00  0.00    -0.206 C  
HETATM    3  H1  UNL     1     -10.530   7.424  65.427  1.00  0.00     0.000 HD 
HETATM    4  H2  UNL     1     -10.578   8.183  66.934  1.00  0.00     0.000 HD 
ENDROOT
BRANCH   2   5
HETATM    5  C   UNL     1      -8.149   9.278  66.928  1.00  0.00    -0.108 C  
HETATM    6  S   UNL     1      -8.832   8.707  68.514  1.00  0.00    -0.142 SA 
HETATM    7  H   UNL     1      -8.085   9.195  69.580  1.00  0.00     0.000 H  
ENDBRANCH   2   5
TORSDOF 1
ENDMDL
MODEL      117
REMARK 921   NORMALIZED FREE ENERGY PREDICTED BY IDOCK:   -0.87 KCAL/MOL
REMARK 922        TOTAL FREE ENERGY PREDICTED BY IDOCK:   -0.92 KCAL/MOL
REMARK 923 INTER-LIGAND FREE ENERGY PREDICTED BY IDOCK:   -0.92 KCAL/MOL
REMARK 924 INTRA-LIGAND FREE ENERGY PREDICTED BY IDOCK:    0.00 KCAL/MOL
REMARK 927      BINDING AFFINITY PREDICTED BY RF-SCORE:    0.00 PKD
ROOT
HETATM    1  N   UNL     1      -9.414   7.873  69.856  1.00  0.00    -0.160 NA 
HETATM    2  C   UNL     1      -9.140   6.510  70.318  1.00  0.00    -0.155 C  
HETATM    3  H1  UNL     1      -8.549   8.378  69.664  1.00  0.00     0.000 HD 
HETATM    4  H2  UNL     1     -10.007   8.379  70.514  1.00  0.00     0.000 HD 
ENDROOT
BRANCH   2   5
HETATM    5  C   UNL     1     -10.439   5.751  70.605  1.00  0.00    -0.264 C  
HETATM    6  S   UNL     1     -11.673   6.844  71.372  1.00  0.00    -0.337 SA 
HETATM    7  H   UNL     1     -12.851   6.155  71.633  1.00  0.00     0.000 H  
ENDBRANCH   2   5
TORSDOF 1
ENDMDL
MODEL      118
REMARK 921   NORMALIZED FREE ENERGY PREDICTED BY IDOCK:   -0.87 KCAL/MOL
REMARK 922        TOTAL FREE ENERGY PREDICTED BY IDOCK:   -0.92 KCAL/MOL
REMARK 923 INTER-LIGAND FREE ENERGY PREDICTED BY IDOCK:   -0.92 KCAL/MOL
REMARK 924 INTRA-LIGAND FREE ENERGY PREDICTED BY IDOCK:    0.00 KCAL/MOL
REMARK 927      BINDING AFFINITY PREDICTED BY RF-SCORE:    0.00 PKD
ROOT
HETATM    1  N   UNL     1      -7.402  10.164  70.636  1.00  0.00    -0.424 NA 
HETATM    2  C   UNL     1      -8.418   9.965  69.600  1.00  0.00    -0.187 C  
HETATM    3  H1  UNL     1      -7.678   9.722  71.514  1.00  0.00     0.000 HD 
HETATM    4  H2  UNL     1      -7.187  11.153  70.765  1.00  0.00     0.000 HD 
ENDROOT
BRANCH   2   5
HETATM    5  C   UNL     1      -8.003  10.628  68.283  1.00  0.00    -0.116 C  
HETATM    6  S   UNL     1      -9.122  12.001  67.869  1.00  0.00    -0.189 SA 
HETATM    7  H   UNL     1      -8.745  12.602  66.674  1.00  0.00     0.000 H  
ENDBRANCH   2   5
TORSDOF 1
ENDMDL
MODEL      119
REMARK 921   NORMALIZED FREE ENERGY PREDICTED BY IDOCK:   -0.86 KCAL/MOL
REMARK 922        TOTAL FREE ENERGY PREDICTED BY IDOCK:   -0.91 KCAL/MOL
REMARK 923 INTER-LIGAND FREE ENERGY PREDICTED BY IDOCK:   -0.91 KCAL/MOL
REMARK 924 INTRA-LIGAND FREE ENERGY PREDICTED BY IDOCK:    0.00 KCAL/MOL
REMARK 927      BINDING AFFINITY PREDICTED BY RF-SCORE:    0.00 PKD
ROOT
HETATM    1  N   UNL     1      -8.165   8.572  73.820  1.00  0.00    -0.387 NA 
HETATM    2  C   UNL     1      -9.330   7.725  73.554  1.00  0.00    -0.290 C  
HETATM    3  H1  UNL     1      -8.438   9.547  73.947  1.00  0.00     0.000 HD 
HETATM    4  H2  UNL     1      -7.456   8.472  73.094  1.00  0.00     0.000 HD 
ENDROOT
BRANCH   2   5
HETATM    5  C   UNL     1      -8.920   6.262  73.365  1.00  0.00    -0.124 C  
HETATM    6  S   UNL     1      -7.788   6.083  71.954  1.00  0.00    -0.107 SA 
HETATM    7  H   UNL     1      -7.416   4.755  71.782  1.00  0.00     0.000 H  
ENDBRANCH   2   5
TORSDOF 1
ENDMDL
MODEL      120
REMARK 921   NORMALIZED FREE ENERGY PREDICTED BY IDOCK:   -0.85 KCAL/MOL
REMARK 922        TOTAL FREE ENERGY PREDICTED BY IDOCK:   -0.90 KCAL/MOL
REMARK 923 INTER-LIGAND FREE ENERGY PREDICTED BY IDOCK:   -0.90 KCAL/MOL
REMARK 924 INTRA-LIGAND FREE ENERGY PREDICTED BY IDOCK:    0.00 KCAL/MOL
REMARK 927      BINDING AFFINITY PREDICTED BY RF-SCORE:    0.00 PKD
ROOT
HETATM    1  N   UNL     1     -10.416   7.954  70.509  1.00  0.00    -0.211 NA 
HETATM    2  C   UNL     1     -10.778   8.219  71.903  1.00  0.00    -0.283 C  
HETATM    3  H1  UNL     1     -11.229   8.027  69.897  1.00  0.00     0.000 HD 
HETATM    4  H2  UNL     1      -9.949   7.053  70.408  1.00  0.00     0.000 HD 
ENDROOT
BRANCH   2   5
HETATM    5  C   UNL     1      -9.559   8.110  72.823  1.00  0.00    -0.283 C  
HETATM    6  S   UNL     1      -9.108   6.370  73.099  1.00  0.00    -0.127 SA 
HETATM    7  H   UNL     1      -8.001   6.271  73.933  1.00  0.00     0.000 H  
ENDBRANCH   2   5
TORSDOF 1
ENDMDL
MODEL      121
REMARK 921   NORMALIZED FREE ENERGY PREDICTED BY IDOCK:   -0.84 KCAL/MOL
REMARK 922        TOTAL FREE ENERGY PREDICTED BY IDOCK:   -0.89 KCAL/MOL
REMARK 923 INTER-LIGAND FREE ENERGY PREDICTED BY IDOCK:   -0.89 KCAL/MOL
REMARK 924 INTRA-LIGAND FREE ENERGY PREDICTED BY IDOCK:    0.00 KCAL/MOL
REMARK 927      BINDING AFFINITY PREDICTED BY RF-SCORE:    0.00 PKD
ROOT
HETATM    1  N   UNL     1      -8.929  11.377  68.992  1.00  0.00    -0.389 NA 
HETATM    2  C   UNL     1      -8.717  10.795  67.665  1.00  0.00    -0.126 C  
HETATM    3  H1  UNL     1      -9.069  10.651  69.695  1.00  0.00     0.000 HD 
HETATM    4  H2  UNL     1      -9.696  12.049  68.988  1.00  0.00     0.000 HD 
ENDROOT
BRANCH   2   5
HETATM    5  C   UNL     1      -8.505  11.885  66.610  1.00  0.00    -0.143 C  
HETATM    6  S   UNL     1      -9.019  13.510  67.244  1.00  0.00    -0.230 SA 
HETATM    7  H   UNL     1      -8.827  14.499  66.287  1.00  0.00     0.000 H  
ENDBRANCH   2   5
TORSDOF 1
ENDMDL
MODEL      122
REMARK 921   NORMALIZED FREE ENERGY PREDICTED BY IDOCK:   -0.82 KCAL/MOL
REMARK 922        TOTAL FREE ENERGY PREDICTED BY IDOCK:   -0.86 KCAL/MOL
REMARK 923 INTER-LIGAND FREE ENERGY PREDICTED BY IDOCK:   -0.86 KCAL/MOL
REMARK 924 INTRA-LIGAND FREE ENERGY PREDICTED BY IDOCK:    0.00 KCAL/MOL
REMARK 927      BINDING AFFINITY PREDICTED BY RF-SCORE:    0.00 PKD
ROOT
HETATM    1  N   UNL     1     -10.069  11.795  69.202  1.00  0.00    -0.417 NA 
HETATM    2  C   UNL     1      -9.092  12.053  68.143  1.00  0.00    -0.191 C  
HETATM    3  H1  UNL     1     -10.677  12.602  69.349  1.00  0.00     0.000 HD 
HETATM    4  H2  UNL     1      -9.616  11.504  70.068  1.00  0.00     0.000 HD 
ENDROOT
BRANCH   2   5
HETATM    5  C   UNL     1      -8.181  10.842  67.923  1.00  0.00    -0.113 C  
HETATM    6  S   UNL     1      -6.735  11.293  66.917  1.00  0.00    -0.142 SA 
HETATM    7  H   UNL     1      -5.908  10.194  66.717  1.00  0.00     0.000 H  
ENDBRANCH   2   5
TORSDOF 1
ENDMDL
MODEL      123
REMARK 921   NORMALIZED FREE ENERGY PREDICTED BY IDOCK:   -0.79 KCAL/MOL
REMARK 922        TOTAL FREE ENERGY PREDICTED BY IDOCK:   -0.84 KCAL/MOL
REMARK 923 INTER-LIGAND FREE ENERGY PREDICTED BY IDOCK:   -0.84 KCAL/MOL
REMARK 924 INTRA-LIGAND FREE ENERGY PREDICTED BY IDOCK:    0.00 KCAL/MOL
REMARK 927      BINDING AFFINITY PREDICTED BY RF-SCORE:    0.00 PKD
ROOT
HETATM    1  N   UNL     1      -8.795   5.601  64.449  1.00  0.00    -0.354 NA 
HETATM    2  C   UNL     1      -9.311   4.320  63.963  1.00  0.00    -0.141 C  
HETATM    3  H1  UNL     1      -8.671   6.264  63.684  1.00  0.00     0.000 HD 
HETATM    4  H2  UNL     1      -7.934   5.479  64.984  1.00  0.00     0.000 HD 
ENDROOT
BRANCH   2   5
HETATM    5  C   UNL     1      -9.498   3.325  65.112  1.00  0.00    -0.139 C  
HETATM    6  S   UNL     1      -9.540   4.186  66.713  1.00  0.00    -0.206 SA 
HETATM    7  H   UNL     1      -9.710   3.283  67.756  1.00  0.00     0.000 H  
ENDBRANCH   2   5
TORSDOF 1
ENDMDL
MODEL      124
REMARK 921   NORMALIZED FREE ENERGY PREDICTED BY IDOCK:   -0.79 KCAL/MOL
REMARK 922        TOTAL FREE ENERGY PREDICTED BY IDOCK:   -0.83 KCAL/MOL
REMARK 923 INTER-LIGAND FREE ENERGY PREDICTED BY IDOCK:   -0.83 KCAL/MOL
REMARK 924 INTRA-LIGAND FREE ENERGY PREDICTED BY IDOCK:    0.00 KCAL/MOL
REMARK 927      BINDING AFFINITY PREDICTED BY RF-SCORE:    0.00 PKD
ROOT
HETATM    1  N   UNL     1     -10.511   4.629  64.938  1.00  0.00    -0.456 NA 
HETATM    2  C   UNL     1      -9.167   4.133  64.632  1.00  0.00    -0.151 C  
HETATM    3  H1  UNL     1     -11.221   4.119  64.412  1.00  0.00     0.000 HD 
HETATM    4  H2  UNL     1     -10.582   5.635  64.786  1.00  0.00     0.000 HD 
ENDROOT
BRANCH   2   5
HETATM    5  C   UNL     1      -8.101   4.898  65.421  1.00  0.00    -0.114 C  
HETATM    6  S   UNL     1      -7.803   6.535  64.688  1.00  0.00    -0.111 SA 
HETATM    7  H   UNL     1      -6.835   7.230  65.404  1.00  0.00     0.000 H  
ENDBRANCH   2   5
TORSDOF 1
ENDMDL
MODEL      125
REMARK 921   NORMALIZED FREE ENERGY PREDICTED BY IDOCK:   -0.77 KCAL/MOL
REMARK 922        TOTAL FREE ENERGY PREDICTED BY IDOCK:   -0.81 KCAL/MOL
REMARK 923 INTER-LIGAND FREE ENERGY PREDICTED BY IDOCK:   -0.81 KCAL/MOL
REMARK 924 INTRA-LIGAND FREE ENERGY PREDICTED BY IDOCK:    0.00 KCAL/MOL
REMARK 927      BINDING AFFINITY PREDICTED BY RF-SCORE:    0.00 PKD
ROOT
HETATM    1  N   UNL     1      -9.615   2.434  67.660  1.00  0.00    -0.390 NA 
HETATM    2  C   UNL     1      -8.618   3.456  67.337  1.00  0.00    -0.107 C  
HETATM    3  H1  UNL     1      -9.550   1.640  67.022  1.00  0.00     0.000 HD 
HETATM    4  H2  UNL     1     -10.558   2.824  67.679  1.00  0.00     0.000 HD 
ENDROOT
BRANCH   2   5
HETATM    5  C   UNL     1      -8.715   4.648  68.294  1.00  0.00    -0.102 C  
HETATM    6  S   UNL     1      -9.552   4.172  69.837  1.00  0.00    -0.212 SA 
HETATM    7  H   UNL     1      -9.640   5.254  70.706  1.00  0.00     0.000 H  
ENDBRANCH   2   5
TORSDOF 1
ENDMDL
MODEL      126
REMARK 921   NORMALIZED FREE ENERGY PREDICTED BY IDOCK:   -0.75 KCAL/MOL
REMARK 922        TOTAL FREE ENERGY PREDICTED BY IDOCK:   -0.79 KCAL/MOL
REMARK 923 INTER-LIGAND FREE ENERGY PREDICTED BY IDOCK:   -0.79 KCAL/MOL
REMARK 924 INTRA-LIGAND FREE ENERGY PREDICTED BY IDOCK:    0.00 KCAL/MOL
REMARK 927      BINDING AFFINITY PREDICTED BY RF-SCORE:    0.00 PKD
ROOT
HETATM    1  N   UNL     1      -8.186   7.525  70.016  1.00  0.00    -0.128 NA 
HETATM    2  C   UNL     1      -9.011   8.512  69.316  1.00  0.00    -0.146 C  
HETATM    3  H1  UNL     1      -7.394   7.232  69.443  1.00  0.00     0.000 HD 
HETATM    4  H2  UNL     1      -8.741   6.726  70.326  1.00  0.00     0.000 HD 
ENDROOT
BRANCH   2   5
HETATM    5  C   UNL     1     -10.199   8.951  70.176  1.00  0.00    -0.196 C  
HETATM    6  S   UNL     1      -9.950   8.480  71.914  1.00  0.00    -0.321 SA 
HETATM    7  H   UNL     1     -11.029   8.879  72.695  1.00  0.00     0.000 H  
ENDBRANCH   2   5
TORSDOF 1
ENDMDL
MODEL      127
REMARK 921   NORMALIZED FREE ENERGY PREDICTED BY IDOCK:   -0.73 KCAL/MOL
REMARK 922        TOTAL FREE ENERGY PREDICTED BY IDOCK:   -0.77 KCAL/MOL
REMARK 923 INTER-LIGAND FREE ENERGY PREDICTED BY IDOCK:   -0.77 KCAL/MOL
REMARK 924 INTRA-LIGAND FREE ENERGY PREDICTED BY IDOCK:    0.00 KCAL/MOL
REMARK 927      BINDING AFFINITY PREDICTED BY RF-SCORE:    0.00 PKD
ROOT
HETATM    1  N   UNL     1     -10.188   5.428  65.935  1.00  0.00    -0.417 NA 
HETATM    2  C   UNL     1      -9.880   4.003  66.072  1.00  0.00    -0.166 C  
HETATM    3  H1  UNL     1     -11.164   5.572  65.673  1.00  0.00     0.000 HD 
HETATM    4  H2  UNL     1      -9.552   5.888  65.283  1.00  0.00     0.000 HD 
ENDROOT
BRANCH   2   5
HETATM    5  C   UNL     1      -8.416   3.788  66.466  1.00  0.00    -0.106 C  
HETATM    6  S   UNL     1      -8.060   2.019  66.690  1.00  0.00    -0.083 SA 
HETATM    7  H   UNL     1      -6.731   1.823  67.048  1.00  0.00     0.000 H  
ENDBRANCH   2   5
TORSDOF 1
ENDMDL
MODEL      128
REMARK 921   NORMALIZED FREE ENERGY PREDICTED BY IDOCK:   -0.72 KCAL/MOL
REMARK 922        TOTAL FREE ENERGY PREDICTED BY IDOCK:   -0.76 KCAL/MOL
REMARK 923 INTER-LIGAND FREE ENERGY PREDICTED BY IDOCK:   -0.76 KCAL/MOL
REMARK 924 INTRA-LIGAND FREE ENERGY PREDICTED BY IDOCK:    0.00 KCAL/MOL
REMARK 927      BINDING AFFINITY PREDICTED BY RF-SCORE:    0.00 PKD
ROOT
HETATM    1  N   UNL     1      -9.872   4.535  68.420  1.00  0.00    -0.121 NA 
HETATM    2  C   UNL     1     -10.432   5.522  69.345  1.00  0.00    -0.290 C  
HETATM    3  H1  UNL     1     -10.446   3.692  68.388  1.00  0.00     0.000 HD 
HETATM    4  H2  UNL     1      -8.901   4.319  68.646  1.00  0.00     0.000 HD 
ENDROOT
BRANCH   2   5
HETATM    5  C   UNL     1      -9.571   6.787  69.394  1.00  0.00    -0.146 C  
HETATM    6  S   UNL     1     -10.283   8.096  68.352  1.00  0.00    -0.203 SA 
HETATM    7  H   UNL     1      -9.502   9.245  68.396  1.00  0.00     0.000 H  
ENDBRANCH   2   5
TORSDOF 1
ENDMDL
MODEL      129
REMARK 921   NORMALIZED FREE ENERGY PREDICTED BY IDOCK:   -0.72 KCAL/MOL
REMARK 922        TOTAL FREE ENERGY PREDICTED BY IDOCK:   -0.76 KCAL/MOL
REMARK 923 INTER-LIGAND FREE ENERGY PREDICTED BY IDOCK:   -0.76 KCAL/MOL
REMARK 924 INTRA-LIGAND FREE ENERGY PREDICTED BY IDOCK:    0.00 KCAL/MOL
REMARK 927      BINDING AFFINITY PREDICTED BY RF-SCORE:    0.00 PKD
ROOT
HETATM    1  N   UNL     1      -9.995   9.602  65.034  1.00  0.00    -0.391 NA 
HETATM    2  C   UNL     1      -8.652   9.522  65.612  1.00  0.00    -0.138 C  
HETATM    3  H1  UNL     1     -10.682   9.884  65.734  1.00  0.00     0.000 HD 
HETATM    4  H2  UNL     1     -10.260   8.728  64.579  1.00  0.00     0.000 HD 
ENDROOT
BRANCH   2   5
HETATM    5  C   UNL     1      -7.621   9.100  64.561  1.00  0.00    -0.107 C  
HETATM    6  S   UNL     1      -7.719   7.313  64.240  1.00  0.00    -0.123 SA 
HETATM    7  H   UNL     1      -6.784   6.929  63.286  1.00  0.00     0.000 H  
ENDBRANCH   2   5
TORSDOF 1
ENDMDL
MODEL      130
REMARK 921   NORMALIZED FREE ENERGY PREDICTED BY IDOCK:   -0.70 KCAL/MOL
REMARK 922        TOTAL FREE ENERGY PREDICTED BY IDOCK:   -0.74 KCAL/MOL
REMARK 923 INTER-LIGAND FREE ENERGY PREDICTED BY IDOCK:   -0.74 KCAL/MOL
REMARK 924 INTRA-LIGAND FREE ENERGY PREDICTED BY IDOCK:    0.00 KCAL/MOL
REMARK 927      BINDING AFFINITY PREDICTED BY RF-SCORE:    0.00 PKD
ROOT
HETATM    1  N   UNL     1      -8.349   4.226  63.429  1.00  0.00    -0.095 NA 
HETATM    2  C   UNL     1      -9.588   4.130  62.655  1.00  0.00    -0.136 C  
HETATM    3  H1  UNL     1      -7.591   4.612  62.866  1.00  0.00     0.000 HD 
HETATM    4  H2  UNL     1      -8.093   3.328  63.839  1.00  0.00     0.000 HD 
ENDROOT
BRANCH   2   5
HETATM    5  C   UNL     1     -10.727   3.552  63.500  1.00  0.00    -0.249 C  
HETATM    6  S   UNL     1     -11.150   1.870  62.953  1.00  0.00    -0.258 SA 
HETATM    7  H   UNL     1     -12.183   1.345  63.720  1.00  0.00     0.000 H  
ENDBRANCH   2   5
TORSDOF 1
ENDMDL
MODEL      131
REMARK 921   NORMALIZED FREE ENERGY PREDICTED BY IDOCK:   -0.69 KCAL/MOL
REMARK 922        TOTAL FREE ENERGY PREDICTED BY IDOCK:   -0.73 KCAL/MOL
REMARK 923 INTER-LIGAND FREE ENERGY PREDICTED BY IDOCK:   -0.73 KCAL/MOL
REMARK 924 INTRA-LIGAND FREE ENERGY PREDICTED BY IDOCK:    0.00 KCAL/MOL
REMARK 927      BINDING AFFINITY PREDICTED BY RF-SCORE:    0.00 PKD
ROOT
HETATM    1  N   UNL     1     -10.939  11.576  65.643  1.00  0.00    -0.270 NA 
HETATM    2  C   UNL     1      -9.494  11.716  65.447  1.00  0.00    -0.171 C  
HETATM    3  H1  UNL     1     -11.399  12.487  65.659  1.00  0.00     0.000 HD 
HETATM    4  H2  UNL     1     -11.153  11.032  66.479  1.00  0.00     0.000 HD 
ENDROOT
BRANCH   2   5
HETATM    5  C   UNL     1      -8.804  10.349  65.422  1.00  0.00    -0.179 C  
HETATM    6  S   UNL     1      -7.458  10.281  66.644  1.00  0.00    -0.115 SA 
HETATM    7  H   UNL     1      -6.832   9.041  66.622  1.00  0.00     0.000 H  
ENDBRANCH   2   5
TORSDOF 1
ENDMDL
MODEL      132
REMARK 921   NORMALIZED FREE ENERGY PREDICTED BY IDOCK:   -0.69 KCAL/MOL
REMARK 922        TOTAL FREE ENERGY PREDICTED BY IDOCK:   -0.73 KCAL/MOL
REMARK 923 INTER-LIGAND FREE ENERGY PREDICTED BY IDOCK:   -0.73 KCAL/MOL
REMARK 924 INTRA-LIGAND FREE ENERGY PREDICTED BY IDOCK:    0.00 KCAL/MOL
REMARK 927      BINDING AFFINITY PREDICTED BY RF-SCORE:    0.00 PKD
ROOT
HETATM    1  N   UNL     1      -8.439   6.552  63.211  1.00  0.00    -0.328 NA 
HETATM    2  C   UNL     1      -8.532   5.287  62.480  1.00  0.00    -0.113 C  
HETATM    3  H1  UNL     1      -8.556   7.349  62.585  1.00  0.00     0.000 HD 
HETATM    4  H2  UNL     1      -7.569   6.615  63.740  1.00  0.00     0.000 HD 
ENDROOT
BRANCH   2   5
HETATM    5  C   UNL     1      -8.356   4.090  63.419  1.00  0.00    -0.093 C  
HETATM    6  S   UNL     1      -9.970   3.435  63.943  1.00  0.00    -0.194 SA 
HETATM    7  H   UNL     1      -9.810   2.349  64.795  1.00  0.00     0.000 H  
ENDBRANCH   2   5
TORSDOF 1
ENDMDL
MODEL      133
REMARK 921   NORMALIZED FREE ENERGY PREDICTED BY IDOCK:   -0.69 KCAL/MOL
REMARK 922        TOTAL FREE ENERGY PREDICTED BY IDOCK:   -0.73 KCAL/MOL
REMARK 923 INTER-LIGAND FREE ENERGY PREDICTED BY IDOCK:   -0.73 KCAL/MOL
REMARK 924 INTRA-LIGAND FREE ENERGY PREDICTED BY IDOCK:    0.00 KCAL/MOL
REMARK 927      BINDING AFFINITY PREDICTED BY RF-SCORE:    0.00 PKD
ROOT
HETATM    1  N   UNL     1      -7.805   8.265  66.826  1.00  0.00    -0.094 NA 
HETATM    2  C   UNL     1      -9.116   7.994  66.234  1.00  0.00    -0.186 C  
HETATM    3  H1  UNL     1      -7.127   7.548  66.567  1.00  0.00     0.000 HD 
HETATM    4  H2  UNL     1      -7.866   8.376  67.838  1.00  0.00     0.000 HD 
ENDROOT
BRANCH   2   5
HETATM    5  C   UNL     1     -10.133   9.071  66.623  1.00  0.00    -0.285 C  
HETATM    6  S   UNL     1      -9.318  10.681  66.847  1.00  0.00    -0.161 SA 
HETATM    7  H   UNL     1     -10.240  11.659  67.199  1.00  0.00     0.000 H  
ENDBRANCH   2   5
TORSDOF 1
ENDMDL
MODEL      134
REMARK 921   NORMALIZED FREE ENERGY PREDICTED BY IDOCK:   -0.67 KCAL/MOL
REMARK 922        TOTAL FREE ENERGY PREDICTED BY IDOCK:   -0.71 KCAL/MOL
REMARK 923 INTER-LIGAND FREE ENERGY PREDICTED BY IDOCK:   -0.71 KCAL/MOL
REMARK 924 INTRA-LIGAND FREE ENERGY PREDICTED BY IDOCK:    0.00 KCAL/MOL
REMARK 927      BINDING AFFINITY PREDICTED BY RF-SCORE:    0.00 PKD
ROOT
HETATM    1  N   UNL     1      -8.133   3.257  70.951  1.00  0.00    -0.053 NA 
HETATM    2  C   UNL     1      -9.284   3.301  71.855  1.00  0.00    -0.117 C  
HETATM    3  H1  UNL     1      -7.690   2.338  70.963  1.00  0.00     0.000 HD 
HETATM    4  H2  UNL     1      -7.465   3.999  71.159  1.00  0.00     0.000 HD 
ENDROOT
BRANCH   2   5
HETATM    5  C   UNL     1      -9.950   4.680  71.837  1.00  0.00    -0.189 C  
HETATM    6  S   UNL     1     -11.104   4.859  73.231  1.00  0.00    -0.347 SA 
HETATM    7  H   UNL     1     -11.709   6.111  73.216  1.00  0.00     0.000 H  
ENDBRANCH   2   5
TORSDOF 1
ENDMDL
MODEL      135
REMARK 921   NORMALIZED FREE ENERGY PREDICTED BY IDOCK:   -0.66 KCAL/MOL
REMARK 922        TOTAL FREE ENERGY PREDICTED BY IDOCK:   -0.70 KCAL/MOL
REMARK 923 INTER-LIGAND FREE ENERGY PREDICTED BY IDOCK:   -0.70 KCAL/MOL
REMARK 924 INTRA-LIGAND FREE ENERGY PREDICTED BY IDOCK:    0.00 KCAL/MOL
REMARK 927      BINDING AFFINITY PREDICTED BY RF-SCORE:    0.00 PKD
ROOT
HETATM    1  N   UNL     1     -11.000   7.929  70.741  1.00  0.00    -0.247 NA 
HETATM    2  C   UNL     1     -10.050   7.040  71.411  1.00  0.00    -0.189 C  
HETATM    3  H1  UNL     1     -11.717   8.259  71.388  1.00  0.00     0.000 HD 
HETATM    4  H2  UNL     1     -11.411   7.487  69.918  1.00  0.00     0.000 HD 
ENDROOT
BRANCH   2   5
HETATM    5  C   UNL     1      -8.973   6.546  70.441  1.00  0.00    -0.152 C  
HETATM    6  S   UNL     1      -8.075   5.127  71.138  1.00  0.00    -0.110 SA 
HETATM    7  H   UNL     1      -7.097   4.679  70.257  1.00  0.00     0.000 H  
ENDBRANCH   2   5
TORSDOF 1
ENDMDL
MODEL      136
REMARK 921   NORMALIZED FREE ENERGY PREDICTED BY IDOCK:   -0.64 KCAL/MOL
REMARK 922        TOTAL FREE ENERGY PREDICTED BY IDOCK:   -0.68 KCAL/MOL
REMARK 923 INTER-LIGAND FREE ENERGY PREDICTED BY IDOCK:   -0.68 KCAL/MOL
REMARK 924 INTRA-LIGAND FREE ENERGY PREDICTED BY IDOCK:    0.00 KCAL/MOL
REMARK 927      BINDING AFFINITY PREDICTED BY RF-SCORE:    0.00 PKD
ROOT
HETATM    1  N   UNL     1      -6.350  16.304  68.797  1.00  0.00    -0.121 NA 
HETATM    2  C   UNL     1      -6.906  16.384  67.445  1.00  0.00    -0.169 C  
HETATM    3  H1  UNL     1      -6.970  15.787  69.421  1.00  0.00     0.000 HD 
HETATM    4  H2  UNL     1      -6.131  17.229  69.167  1.00  0.00     0.000 HD 
ENDROOT
BRANCH   2   5
HETATM    5  C   UNL     1      -5.976  17.160  66.508  1.00  0.00    -0.190 C  
HETATM    6  S   UNL     1      -6.455  18.912  66.425  1.00  0.00    -0.202 SA 
HETATM    7  H   UNL     1      -5.611  19.617  65.574  1.00  0.00     0.000 H  
ENDBRANCH   2   5
TORSDOF 1
ENDMDL
MODEL      137
REMARK 921   NORMALIZED FREE ENERGY PREDICTED BY IDOCK:   -0.63 KCAL/MOL
REMARK 922        TOTAL FREE ENERGY PREDICTED BY IDOCK:   -0.67 KCAL/MOL
REMARK 923 INTER-LIGAND FREE ENERGY PREDICTED BY IDOCK:   -0.67 KCAL/MOL
REMARK 924 INTRA-LIGAND FREE ENERGY PREDICTED BY IDOCK:    0.00 KCAL/MOL
REMARK 927      BINDING AFFINITY PREDICTED BY RF-SCORE:    0.00 PKD
ROOT
HETATM    1  N   UNL     1      -6.179  13.030  70.367  1.00  0.00    -0.379 NA 
HETATM    2  C   UNL     1      -6.995  13.284  69.178  1.00  0.00    -0.031 C  
HETATM    3  H1  UNL     1      -6.419  12.135  70.795  1.00  0.00     0.000 HD 
HETATM    4  H2  UNL     1      -6.245  13.796  71.038  1.00  0.00     0.000 HD 
ENDROOT
BRANCH   2   5
HETATM    5  C   UNL     1      -6.635  14.627  68.536  1.00  0.00    -0.095 C  
HETATM    6  S   UNL     1      -8.083  15.724  68.473  1.00  0.00    -0.163 SA 
HETATM    7  H   UNL     1      -7.757  16.943  67.890  1.00  0.00     0.000 H  
ENDBRANCH   2   5
TORSDOF 1
ENDMDL
MODEL      138
REMARK 921   NORMALIZED FREE ENERGY PREDICTED BY IDOCK:   -0.63 KCAL/MOL
REMARK 922        TOTAL FREE ENERGY PREDICTED BY IDOCK:   -0.67 KCAL/MOL
REMARK 923 INTER-LIGAND FREE ENERGY PREDICTED BY IDOCK:   -0.67 KCAL/MOL
REMARK 924 INTRA-LIGAND FREE ENERGY PREDICTED BY IDOCK:    0.00 KCAL/MOL
REMARK 927      BINDING AFFINITY PREDICTED BY RF-SCORE:    0.00 PKD
ROOT
HETATM    1  N   UNL     1     -10.187   3.096  64.853  1.00  0.00    -0.380 NA 
HETATM    2  C   UNL     1      -9.072   2.148  64.794  1.00  0.00    -0.126 C  
HETATM    3  H1  UNL     1     -11.024   2.710  64.416  1.00  0.00     0.000 HD 
HETATM    4  H2  UNL     1      -9.933   3.998  64.448  1.00  0.00     0.000 HD 
ENDROOT
BRANCH   2   5
HETATM    5  C   UNL     1      -7.816   2.727  65.451  1.00  0.00    -0.081 C  
HETATM    6  S   UNL     1      -8.047   2.904  67.246  1.00  0.00    -0.079 SA 
HETATM    7  H   UNL     1      -6.907   3.429  67.843  1.00  0.00     0.000 H  
ENDBRANCH   2   5
TORSDOF 1
ENDMDL
MODEL      139
REMARK 921   NORMALIZED FREE ENERGY PREDICTED BY IDOCK:   -0.62 KCAL/MOL
REMARK 922        TOTAL FREE ENERGY PREDICTED BY IDOCK:   -0.66 KCAL/MOL
REMARK 923 INTER-LIGAND FREE ENERGY PREDICTED BY IDOCK:   -0.66 KCAL/MOL
REMARK 924 INTRA-LIGAND FREE ENERGY PREDICTED BY IDOCK:    0.00 KCAL/MOL
REMARK 927      BINDING AFFINITY PREDICTED BY RF-SCORE:    0.00 PKD
ROOT
HETATM    1  N   UNL     1      -8.747   7.342  68.711  1.00  0.00    -0.125 NA 
HETATM    2  C   UNL     1      -7.992   8.585  68.548  1.00  0.00    -0.117 C  
HETATM    3  H1  UNL     1      -8.502   6.872  69.583  1.00  0.00     0.000 HD 
HETATM    4  H2  UNL     1      -8.631   6.725  67.907  1.00  0.00     0.000 HD 
ENDROOT
BRANCH   2   5
HETATM    5  C   UNL     1      -8.360   9.291  67.240  1.00  0.00    -0.125 C  
HETATM    6  S   UNL     1     -10.003   8.769  66.663  1.00  0.00    -0.292 SA 
HETATM    7  H   UNL     1     -10.338   9.409  65.475  1.00  0.00     0.000 H  
ENDBRANCH   2   5
TORSDOF 1
ENDMDL
MODEL      140
REMARK 921   NORMALIZED FREE ENERGY PREDICTED BY IDOCK:   -0.61 KCAL/MOL
REMARK 922        TOTAL FREE ENERGY PREDICTED BY IDOCK:   -0.64 KCAL/MOL
REMARK 923 INTER-LIGAND FREE ENERGY PREDICTED BY IDOCK:   -0.64 KCAL/MOL
REMARK 924 INTRA-LIGAND FREE ENERGY PREDICTED BY IDOCK:    0.00 KCAL/MOL
REMARK 927      BINDING AFFINITY PREDICTED BY RF-SCORE:    0.00 PKD
ROOT
HETATM    1  N   UNL     1      -6.182  11.592  70.400  1.00  0.00    -0.438 NA 
HETATM    2  C   UNL     1      -7.193  11.225  69.406  1.00  0.00    -0.063 C  
HETATM    3  H1  UNL     1      -6.060  12.604  70.445  1.00  0.00     0.000 HD 
HETATM    4  H2  UNL     1      -5.298  11.114  70.229  1.00  0.00     0.000 HD 
ENDROOT
BRANCH   2   5
HETATM    5  C   UNL     1      -7.378   9.706  69.339  1.00  0.00    -0.081 C  
HETATM    6  S   UNL     1      -6.424   8.998  67.962  1.00  0.00    -0.060 SA 
HETATM    7  H   UNL     1      -6.592   7.619  67.901  1.00  0.00     0.000 H  
ENDBRANCH   2   5
TORSDOF 1
ENDMDL
MODEL      141
REMARK 921   NORMALIZED FREE ENERGY PREDICTED BY IDOCK:   -0.60 KCAL/MOL
REMARK 922        TOTAL FREE ENERGY PREDICTED BY IDOCK:   -0.63 KCAL/MOL
REMARK 923 INTER-LIGAND FREE ENERGY PREDICTED BY IDOCK:   -0.63 KCAL/MOL
REMARK 924 INTRA-LIGAND FREE ENERGY PREDICTED BY IDOCK:    0.00 KCAL/MOL
REMARK 927      BINDING AFFINITY PREDICTED BY RF-SCORE:    0.00 PKD
ROOT
HETATM    1  N   UNL     1      -8.381   8.666  73.063  1.00  0.00    -0.407 NA 
HETATM    2  C   UNL     1      -7.439   7.723  73.669  1.00  0.00    -0.126 C  
HETATM    3  H1  UNL     1      -9.064   8.997  73.745  1.00  0.00     0.000 HD 
HETATM    4  H2  UNL     1      -8.835   8.267  72.241  1.00  0.00     0.000 HD 
ENDROOT
BRANCH   2   5
HETATM    5  C   UNL     1      -6.414   7.227  72.645  1.00  0.00    -0.055 C  
HETATM    6  S   UNL     1      -6.436   8.266  71.152  1.00  0.00    -0.045 SA 
HETATM    7  H   UNL     1      -5.505   7.816  70.223  1.00  0.00     0.000 H  
ENDBRANCH   2   5
TORSDOF 1
ENDMDL
MODEL      142
REMARK 921   NORMALIZED FREE ENERGY PREDICTED BY IDOCK:   -0.60 KCAL/MOL
REMARK 922        TOTAL FREE ENERGY PREDICTED BY IDOCK:   -0.63 KCAL/MOL
REMARK 923 INTER-LIGAND FREE ENERGY PREDICTED BY IDOCK:   -0.63 KCAL/MOL
REMARK 924 INTRA-LIGAND FREE ENERGY PREDICTED BY IDOCK:    0.00 KCAL/MOL
REMARK 927      BINDING AFFINITY PREDICTED BY RF-SCORE:    0.00 PKD
ROOT
HETATM    1  N   UNL     1      -6.684   7.008  68.846  1.00  0.00    -0.058 NA 
HETATM    2  C   UNL     1      -8.000   6.371  68.779  1.00  0.00    -0.110 C  
HETATM    3  H1  UNL     1      -5.946   6.362  68.564  1.00  0.00     0.000 HD 
HETATM    4  H2  UNL     1      -6.505   7.403  69.769  1.00  0.00     0.000 HD 
ENDROOT
BRANCH   2   5
HETATM    5  C   UNL     1      -9.108   7.341  69.200  1.00  0.00    -0.137 C  
HETATM    6  S   UNL     1     -10.671   6.456  69.483  1.00  0.00    -0.326 SA 
HETATM    7  H   UNL     1     -11.676   7.336  69.866  1.00  0.00     0.000 H  
ENDBRANCH   2   5
TORSDOF 1
ENDMDL
MODEL      143
REMARK 921   NORMALIZED FREE ENERGY PREDICTED BY IDOCK:   -0.60 KCAL/MOL
REMARK 922        TOTAL FREE ENERGY PREDICTED BY IDOCK:   -0.63 KCAL/MOL
REMARK 923 INTER-LIGAND FREE ENERGY PREDICTED BY IDOCK:   -0.63 KCAL/MOL
REMARK 924 INTRA-LIGAND FREE ENERGY PREDICTED BY IDOCK:    0.00 KCAL/MOL
REMARK 927      BINDING AFFINITY PREDICTED BY RF-SCORE:    0.00 PKD
ROOT
HETATM    1  N   UNL     1      -7.758   3.820  70.214  1.00  0.00    -0.047 NA 
HETATM    2  C   UNL     1      -8.956   3.857  71.055  1.00  0.00    -0.101 C  
HETATM    3  H1  UNL     1      -7.367   2.878  70.169  1.00  0.00     0.000 HD 
HETATM    4  H2  UNL     1      -7.064   4.501  70.520  1.00  0.00     0.000 HD 
ENDROOT
BRANCH   2   5
HETATM    5  C   UNL     1      -9.544   5.270  71.121  1.00  0.00    -0.163 C  
HETATM    6  S   UNL     1     -10.525   5.633  69.634  1.00  0.00    -0.319 SA 
HETATM    7  H   UNL     1     -11.058   6.915  69.694  1.00  0.00     0.000 H  
ENDBRANCH   2   5
TORSDOF 1
ENDMDL
MODEL      144
REMARK 921   NORMALIZED FREE ENERGY PREDICTED BY IDOCK:   -0.59 KCAL/MOL
REMARK 922        TOTAL FREE ENERGY PREDICTED BY IDOCK:   -0.63 KCAL/MOL
REMARK 923 INTER-LIGAND FREE ENERGY PREDICTED BY IDOCK:   -0.63 KCAL/MOL
REMARK 924 INTRA-LIGAND FREE ENERGY PREDICTED BY IDOCK:    0.00 KCAL/MOL
REMARK 927      BINDING AFFINITY PREDICTED BY RF-SCORE:    0.00 PKD
ROOT
HETATM    1  N   UNL     1     -10.357   4.219  64.022  1.00  0.00    -0.421 NA 
HETATM    2  C   UNL     1      -9.407   3.440  63.224  1.00  0.00    -0.098 C  
HETATM    3  H1  UNL     1     -11.234   4.359  63.520  1.00  0.00     0.000 HD 
HETATM    4  H2  UNL     1      -9.952   5.105  64.325  1.00  0.00     0.000 HD 
ENDROOT
BRANCH   2   5
HETATM    5  C   UNL     1      -8.091   3.230  63.978  1.00  0.00    -0.082 C  
HETATM    6  S   UNL     1      -6.894   2.324  62.951  1.00  0.00    -0.027 SA 
HETATM    7  H   UNL     1      -5.700   2.133  63.635  1.00  0.00     0.000 H  
ENDBRANCH   2   5
TORSDOF 1
ENDMDL
MODEL      145
REMARK 921   NORMALIZED FREE ENERGY PREDICTED BY IDOCK:   -0.58 KCAL/MOL
REMARK 922        TOTAL FREE ENERGY PREDICTED BY IDOCK:   -0.62 KCAL/MOL
REMARK 923 INTER-LIGAND FREE ENERGY PREDICTED BY IDOCK:   -0.62 KCAL/MOL
REMARK 924 INTRA-LIGAND FREE ENERGY PREDICTED BY IDOCK:    0.00 KCAL/MOL
REMARK 927      BINDING AFFINITY PREDICTED BY RF-SCORE:    0.00 PKD
ROOT
HETATM    1  N   UNL     1      -9.784   1.667  67.705  1.00  0.00    -0.405 NA 
HETATM    2  C   UNL     1      -8.665   2.576  67.449  1.00  0.00    -0.118 C  
HETATM    3  H1  UNL     1     -10.151   1.279  66.835  1.00  0.00     0.000 HD 
HETATM    4  H2  UNL     1     -10.517   2.119  68.252  1.00  0.00     0.000 HD 
ENDROOT
BRANCH   2   5
HETATM    5  C   UNL     1      -8.114   3.158  68.755  1.00  0.00    -0.060 C  
HETATM    6  S   UNL     1      -6.792   2.105  69.426  1.00  0.00    -0.033 SA 
HETATM    7  H   UNL     1      -6.292   2.633  70.610  1.00  0.00     0.000 H  
ENDBRANCH   2   5
TORSDOF 1
ENDMDL
MODEL      146
REMARK 921   NORMALIZED FREE ENERGY PREDICTED BY IDOCK:   -0.55 KCAL/MOL
REMARK 922        TOTAL FREE ENERGY PREDICTED BY IDOCK:   -0.58 KCAL/MOL
REMARK 923 INTER-LIGAND FREE ENERGY PREDICTED BY IDOCK:   -0.58 KCAL/MOL
REMARK 924 INTRA-LIGAND FREE ENERGY PREDICTED BY IDOCK:    0.00 KCAL/MOL
REMARK 927      BINDING AFFINITY PREDICTED BY RF-SCORE:    0.00 PKD
ROOT
HETATM    1  N   UNL     1      -7.972   4.184  66.947  1.00  0.00    -0.097 NA 
HETATM    2  C   UNL     1      -9.349   4.251  66.454  1.00  0.00    -0.164 C  
HETATM    3  H1  UNL     1      -7.413   3.533  66.395  1.00  0.00     0.000 HD 
HETATM    4  H2  UNL     1      -7.941   3.956  67.941  1.00  0.00     0.000 HD 
ENDROOT
BRANCH   2   5
HETATM    5  C   UNL     1     -10.189   5.228  67.282  1.00  0.00    -0.206 C  
HETATM    6  S   UNL     1      -9.145   6.535  67.995  1.00  0.00    -0.112 SA 
HETATM    7  H   UNL     1      -9.906   7.422  68.746  1.00  0.00     0.000 H  
ENDBRANCH   2   5
TORSDOF 1
ENDMDL
MODEL      147
REMARK 921   NORMALIZED FREE ENERGY PREDICTED BY IDOCK:   -0.54 KCAL/MOL
REMARK 922        TOTAL FREE ENERGY PREDICTED BY IDOCK:   -0.58 KCAL/MOL
REMARK 923 INTER-LIGAND FREE ENERGY PREDICTED BY IDOCK:   -0.58 KCAL/MOL
REMARK 924 INTRA-LIGAND FREE ENERGY PREDICTED BY IDOCK:    0.00 KCAL/MOL
REMARK 927      BINDING AFFINITY PREDICTED BY RF-SCORE:    0.00 PKD
ROOT
HETATM    1  N   UNL     1      -9.441   9.377  69.474  1.00  0.00    -0.170 NA 
HETATM    2  C   UNL     1      -8.788   8.086  69.249  1.00  0.00    -0.141 C  
HETATM    3  H1  UNL     1      -8.883  10.144  69.100  1.00  0.00     0.000 HD 
HETATM    4  H2  UNL     1      -9.660   9.519  70.461  1.00  0.00     0.000 HD 
ENDROOT
BRANCH   2   5
HETATM    5  C   UNL     1      -9.627   6.935  69.811  1.00  0.00    -0.154 C  
HETATM    6  S   UNL     1      -9.076   5.341  69.131  1.00  0.00    -0.111 SA 
HETATM    7  H   UNL     1      -9.837   4.295  69.641  1.00  0.00     0.000 H  
ENDBRANCH   2   5
TORSDOF 1
ENDMDL
MODEL      148
REMARK 921   NORMALIZED FREE ENERGY PREDICTED BY IDOCK:   -0.53 KCAL/MOL
REMARK 922        TOTAL FREE ENERGY PREDICTED BY IDOCK:   -0.56 KCAL/MOL
REMARK 923 INTER-LIGAND FREE ENERGY PREDICTED BY IDOCK:   -0.56 KCAL/MOL
REMARK 924 INTRA-LIGAND FREE ENERGY PREDICTED BY IDOCK:    0.00 KCAL/MOL
REMARK 927      BINDING AFFINITY PREDICTED BY RF-SCORE:    0.00 PKD
ROOT
HETATM    1  N   UNL     1      -7.700   2.518  65.573  1.00  0.00    -0.076 NA 
HETATM    2  C   UNL     1      -8.715   1.796  66.342  1.00  0.00    -0.116 C  
HETATM    3  H1  UNL     1      -7.329   1.941  64.818  1.00  0.00     0.000 HD 
HETATM    4  H2  UNL     1      -6.957   2.874  66.174  1.00  0.00     0.000 HD 
ENDROOT
BRANCH   2   5
HETATM    5  C   UNL     1      -9.273   2.662  67.475  1.00  0.00    -0.176 C  
HETATM    6  S   UNL     1      -9.454   4.391  66.940  1.00  0.00    -0.192 SA 
HETATM    7  H   UNL     1      -9.960   5.177  67.968  1.00  0.00     0.000 H  
ENDBRANCH   2   5
TORSDOF 1
ENDMDL
MODEL      149
REMARK 921   NORMALIZED FREE ENERGY PREDICTED BY IDOCK:   -0.51 KCAL/MOL
REMARK 922        TOTAL FREE ENERGY PREDICTED BY IDOCK:   -0.53 KCAL/MOL
REMARK 923 INTER-LIGAND FREE ENERGY PREDICTED BY IDOCK:   -0.53 KCAL/MOL
REMARK 924 INTRA-LIGAND FREE ENERGY PREDICTED BY IDOCK:    0.00 KCAL/MOL
REMARK 927      BINDING AFFINITY PREDICTED BY RF-SCORE:    0.00 PKD
ROOT
HETATM    1  N   UNL     1      -8.968   6.952  68.130  1.00  0.00    -0.124 NA 
HETATM    2  C   UNL     1      -7.907   5.948  68.030  1.00  0.00    -0.104 C  
HETATM    3  H1  UNL     1      -8.672   7.844  67.732  1.00  0.00     0.000 HD 
HETATM    4  H2  UNL     1      -9.293   7.060  69.091  1.00  0.00     0.000 HD 
ENDROOT
BRANCH   2   5
HETATM    5  C   UNL     1      -8.352   4.610  68.627  1.00  0.00    -0.082 C  
HETATM    6  S   UNL     1      -9.682   4.853  69.843  1.00  0.00    -0.225 SA 
HETATM    7  H   UNL     1     -10.086   3.639  70.385  1.00  0.00     0.000 H  
ENDBRANCH   2   5
TORSDOF 1
ENDMDL
MODEL      150
REMARK 921   NORMALIZED FREE ENERGY PREDICTED BY IDOCK:   -0.49 KCAL/MOL
REMARK 922        TOTAL FREE ENERGY PREDICTED BY IDOCK:   -0.52 KCAL/MOL
REMARK 923 INTER-LIGAND FREE ENERGY PREDICTED BY IDOCK:   -0.52 KCAL/MOL
REMARK 924 INTRA-LIGAND FREE ENERGY PREDICTED BY IDOCK:    0.00 KCAL/MOL
REMARK 927      BINDING AFFINITY PREDICTED BY RF-SCORE:    0.00 PKD
ROOT
HETATM    1  N   UNL     1     -10.891   4.886  72.355  1.00  0.00    -0.177 NA 
HETATM    2  C   UNL     1      -9.982   4.515  73.441  1.00  0.00    -0.150 C  
HETATM    3  H1  UNL     1     -11.810   5.143  72.714  1.00  0.00     0.000 HD 
HETATM    4  H2  UNL     1     -10.955   4.150  71.652  1.00  0.00     0.000 HD 
ENDROOT
BRANCH   2   5
HETATM    5  C   UNL     1      -8.601   4.130  72.901  1.00  0.00    -0.100 C  
HETATM    6  S   UNL     1      -7.368   5.402  73.312  1.00  0.00    -0.096 SA 
HETATM    7  H   UNL     1      -6.115   5.053  72.822  1.00  0.00     0.000 H  
ENDBRANCH   2   5
TORSDOF 1
ENDMDL
MODEL      151
REMARK 921   NORMALIZED FREE ENERGY PREDICTED BY IDOCK:   -0.47 KCAL/MOL
REMARK 922        TOTAL FREE ENERGY PREDICTED BY IDOCK:   -0.50 KCAL/MOL
REMARK 923 INTER-LIGAND FREE ENERGY PREDICTED BY IDOCK:   -0.50 KCAL/MOL
REMARK 924 INTRA-LIGAND FREE ENERGY PREDICTED BY IDOCK:    0.00 KCAL/MOL
REMARK 927      BINDING AFFINITY PREDICTED BY RF-SCORE:    0.00 PKD
ROOT
HETATM    1  N   UNL     1      -8.823   5.898  63.045  1.00  0.00    -0.322 NA 
HETATM    2  C   UNL     1      -7.773   4.882  62.936  1.00  0.00    -0.065 C  
HETATM    3  H1  UNL     1      -9.607   5.686  62.428  1.00  0.00     0.000 HD 
HETATM    4  H2  UNL     1      -8.456   6.835  62.878  1.00  0.00     0.000 HD 
ENDROOT
BRANCH   2   5
HETATM    5  C   UNL     1      -6.596   5.200  63.863  1.00  0.00    -0.034 C  
HETATM    6  S   UNL     1      -7.167   6.043  65.369  1.00  0.00    -0.076 SA 
HETATM    7  H   UNL     1      -6.099   6.331  66.211  1.00  0.00     0.000 H  
ENDBRANCH   2   5
TORSDOF 1
ENDMDL
MODEL      152
REMARK 921   NORMALIZED FREE ENERGY PREDICTED BY IDOCK:   -0.46 KCAL/MOL
REMARK 922        TOTAL FREE ENERGY PREDICTED BY IDOCK:   -0.49 KCAL/MOL
REMARK 923 INTER-LIGAND FREE ENERGY PREDICTED BY IDOCK:   -0.49 KCAL/MOL
REMARK 924 INTRA-LIGAND FREE ENERGY PREDICTED BY IDOCK:    0.00 KCAL/MOL
REMARK 927      BINDING AFFINITY PREDICTED BY RF-SCORE:    0.00 PKD
ROOT
HETATM    1  N   UNL     1      -5.496  12.327  70.272  1.00  0.00    -0.123 NA 
HETATM    2  C   UNL     1      -6.522  12.322  69.227  1.00  0.00    -0.109 C  
HETATM    3  H1  UNL     1      -5.878  12.019  71.166  1.00  0.00     0.000 HD 
HETATM    4  H2  UNL     1      -5.046  13.239  70.351  1.00  0.00     0.000 HD 
ENDROOT
BRANCH   2   5
HETATM    5  C   UNL     1      -5.948  12.785  67.885  1.00  0.00    -0.118 C  
HETATM    6  S   UNL     1      -5.771  11.384  66.739  1.00  0.00    -0.140 SA 
HETATM    7  H   UNL     1      -5.250  11.803  65.520  1.00  0.00     0.000 H  
ENDBRANCH   2   5
TORSDOF 1
ENDMDL
MODEL      153
REMARK 921   NORMALIZED FREE ENERGY PREDICTED BY IDOCK:   -0.46 KCAL/MOL
REMARK 922        TOTAL FREE ENERGY PREDICTED BY IDOCK:   -0.48 KCAL/MOL
REMARK 923 INTER-LIGAND FREE ENERGY PREDICTED BY IDOCK:   -0.48 KCAL/MOL
REMARK 924 INTRA-LIGAND FREE ENERGY PREDICTED BY IDOCK:    0.00 KCAL/MOL
REMARK 927      BINDING AFFINITY PREDICTED BY RF-SCORE:    0.00 PKD
ROOT
HETATM    1  N   UNL     1      -8.747   7.342  68.711  1.00  0.00    -0.125 NA 
HETATM    2  C   UNL     1      -7.996   8.590  68.563  1.00  0.00    -0.117 C  
HETATM    3  H1  UNL     1      -8.496   6.860  69.574  1.00  0.00     0.000 HD 
HETATM    4  H2  UNL     1      -8.633   6.737  67.897  1.00  0.00     0.000 HD 
ENDROOT
BRANCH   2   5
HETATM    5  C   UNL     1      -8.373   9.314  67.267  1.00  0.00    -0.125 C  
HETATM    6  S   UNL     1      -7.560  10.938  67.173  1.00  0.00    -0.115 SA 
HETATM    7  H   UNL     1      -7.902  11.595  65.996  1.00  0.00     0.000 H  
ENDBRANCH   2   5
TORSDOF 1
ENDMDL
MODEL      154
REMARK 921   NORMALIZED FREE ENERGY PREDICTED BY IDOCK:   -0.45 KCAL/MOL
REMARK 922        TOTAL FREE ENERGY PREDICTED BY IDOCK:   -0.48 KCAL/MOL
REMARK 923 INTER-LIGAND FREE ENERGY PREDICTED BY IDOCK:   -0.48 KCAL/MOL
REMARK 924 INTRA-LIGAND FREE ENERGY PREDICTED BY IDOCK:    0.00 KCAL/MOL
REMARK 927      BINDING AFFINITY PREDICTED BY RF-SCORE:    0.00 PKD
ROOT
HETATM    1  N   UNL     1      -8.395   4.452  70.350  1.00  0.00    -0.072 NA 
HETATM    2  C   UNL     1      -9.345   5.450  70.848  1.00  0.00    -0.156 C  
HETATM    3  H1  UNL     1      -8.863   3.753  69.773  1.00  0.00     0.000 HD 
HETATM    4  H2  UNL     1      -7.871   4.021  71.112  1.00  0.00     0.000 HD 
ENDROOT
BRANCH   2   5
HETATM    5  C   UNL     1      -8.642   6.501  71.713  1.00  0.00    -0.124 C  
HETATM    6  S   UNL     1      -8.424   8.055  70.795  1.00  0.00    -0.128 SA 
HETATM    7  H   UNL     1      -7.786   9.008  71.580  1.00  0.00     0.000 H  
ENDBRANCH   2   5
TORSDOF 1
ENDMDL
MODEL      155
REMARK 921   NORMALIZED FREE ENERGY PREDICTED BY IDOCK:   -0.45 KCAL/MOL
REMARK 922        TOTAL FREE ENERGY PREDICTED BY IDOCK:   -0.48 KCAL/MOL
REMARK 923 INTER-LIGAND FREE ENERGY PREDICTED BY IDOCK:   -0.48 KCAL/MOL
REMARK 924 INTRA-LIGAND FREE ENERGY PREDICTED BY IDOCK:    0.00 KCAL/MOL
REMARK 927      BINDING AFFINITY PREDICTED BY RF-SCORE:    0.00 PKD
ROOT
HETATM    1  N   UNL     1      -8.530   8.250  67.299  1.00  0.00    -0.123 NA 
HETATM    2  C   UNL     1      -7.430   7.302  67.111  1.00  0.00    -0.105 C  
HETATM    3  H1  UNL     1      -8.257   9.193  67.022  1.00  0.00     0.000 HD 
HETATM    4  H2  UNL     1      -8.884   8.228  68.256  1.00  0.00     0.000 HD 
ENDROOT
BRANCH   2   5
HETATM    5  C   UNL     1      -7.841   5.887  67.528  1.00  0.00    -0.098 C  
HETATM    6  S   UNL     1      -9.162   5.253  66.451  1.00  0.00    -0.150 SA 
HETATM    7  H   UNL     1      -9.535   3.968  66.828  1.00  0.00     0.000 H  
ENDBRANCH   2   5
TORSDOF 1
ENDMDL
MODEL      156
REMARK 921   NORMALIZED FREE ENERGY PREDICTED BY IDOCK:   -0.42 KCAL/MOL
REMARK 922        TOTAL FREE ENERGY PREDICTED BY IDOCK:   -0.44 KCAL/MOL
REMARK 923 INTER-LIGAND FREE ENERGY PREDICTED BY IDOCK:   -0.44 KCAL/MOL
REMARK 924 INTRA-LIGAND FREE ENERGY PREDICTED BY IDOCK:    0.00 KCAL/MOL
REMARK 927      BINDING AFFINITY PREDICTED BY RF-SCORE:    0.00 PKD
ROOT
HETATM    1  N   UNL     1      -9.836   3.688  70.960  1.00  0.00    -0.165 NA 
HETATM    2  C   UNL     1      -8.738   2.818  71.388  1.00  0.00    -0.070 C  
HETATM    3  H1  UNL     1     -10.248   4.181  71.752  1.00  0.00     0.000 HD 
HETATM    4  H2  UNL     1     -10.539   3.171  70.432  1.00  0.00     0.000 HD 
ENDROOT
BRANCH   2   5
HETATM    5  C   UNL     1      -8.119   2.079  70.198  1.00  0.00    -0.041 C  
HETATM    6  S   UNL     1      -9.285   2.004  68.805  1.00  0.00    -0.164 SA 
HETATM    7  H   UNL     1      -8.724   1.334  67.725  1.00  0.00     0.000 H  
ENDBRANCH   2   5
TORSDOF 1
ENDMDL
MODEL      157
REMARK 921   NORMALIZED FREE ENERGY PREDICTED BY IDOCK:   -0.41 KCAL/MOL
REMARK 922        TOTAL FREE ENERGY PREDICTED BY IDOCK:   -0.44 KCAL/MOL
REMARK 923 INTER-LIGAND FREE ENERGY PREDICTED BY IDOCK:   -0.44 KCAL/MOL
REMARK 924 INTRA-LIGAND FREE ENERGY PREDICTED BY IDOCK:    0.00 KCAL/MOL
REMARK 927      BINDING AFFINITY PREDICTED BY RF-SCORE:    0.00 PKD
ROOT
HETATM    1  N   UNL     1      -8.166   7.750  64.720  1.00  0.00    -0.264 NA 
HETATM    2  C   UNL     1      -8.331   6.295  64.715  1.00  0.00    -0.051 C  
HETATM    3  H1  UNL     1      -9.060   8.223  64.587  1.00  0.00     0.000 HD 
HETATM    4  H2  UNL     1      -7.476   8.050  64.032  1.00  0.00     0.000 HD 
ENDROOT
BRANCH   2   5
HETATM    5  C   UNL     1      -6.990   5.584  64.916  1.00  0.00    -0.053 C  
HETATM    6  S   UNL     1      -7.234   3.800  65.170  1.00  0.00    -0.068 SA 
HETATM    7  H   UNL     1      -6.017   3.154  65.352  1.00  0.00     0.000 H  
ENDBRANCH   2   5
TORSDOF 1
ENDMDL
MODEL      158
REMARK 921   NORMALIZED FREE ENERGY PREDICTED BY IDOCK:   -0.38 KCAL/MOL
REMARK 922        TOTAL FREE ENERGY PREDICTED BY IDOCK:   -0.41 KCAL/MOL
REMARK 923 INTER-LIGAND FREE ENERGY PREDICTED BY IDOCK:   -0.41 KCAL/MOL
REMARK 924 INTRA-LIGAND FREE ENERGY PREDICTED BY IDOCK:    0.00 KCAL/MOL
REMARK 927      BINDING AFFINITY PREDICTED BY RF-SCORE:    0.00 PKD
ROOT
HETATM    1  N   UNL     1      -6.982   8.309  67.437  1.00  0.00    -0.074 NA 
HETATM    2  C   UNL     1      -8.044   8.085  66.454  1.00  0.00    -0.107 C  
HETATM    3  H1  UNL     1      -6.882   7.508  68.061  1.00  0.00     0.000 HD 
HETATM    4  H2  UNL     1      -7.130   9.174  67.957  1.00  0.00     0.000 HD 
ENDROOT
BRANCH   2   5
HETATM    5  C   UNL     1      -8.195   9.286  65.517  1.00  0.00    -0.124 C  
HETATM    6  S   UNL     1      -6.722   9.479  64.469  1.00  0.00    -0.101 SA 
HETATM    7  H   UNL     1      -6.858  10.570  63.618  1.00  0.00     0.000 H  
ENDBRANCH   2   5
TORSDOF 1
ENDMDL
MODEL      159
REMARK 921   NORMALIZED FREE ENERGY PREDICTED BY IDOCK:   -0.38 KCAL/MOL
REMARK 922        TOTAL FREE ENERGY PREDICTED BY IDOCK:   -0.40 KCAL/MOL
REMARK 923 INTER-LIGAND FREE ENERGY PREDICTED BY IDOCK:   -0.40 KCAL/MOL
REMARK 924 INTRA-LIGAND FREE ENERGY PREDICTED BY IDOCK:    0.00 KCAL/MOL
REMARK 927      BINDING AFFINITY PREDICTED BY RF-SCORE:    0.00 PKD
ROOT
HETATM    1  N   UNL     1      -9.712   6.229  68.261  1.00  0.00    -0.119 NA 
HETATM    2  C   UNL     1      -9.326   4.906  67.768  1.00  0.00    -0.131 C  
HETATM    3  H1  UNL     1     -10.722   6.366  68.203  1.00  0.00     0.000 HD 
HETATM    4  H2  UNL     1      -9.205   6.971  67.778  1.00  0.00     0.000 HD 
ENDROOT
BRANCH   2   5
HETATM    5  C   UNL     1      -7.811   4.701  67.856  1.00  0.00    -0.082 C  
HETATM    6  S   UNL     1      -7.039   4.871  66.219  1.00  0.00    -0.073 SA 
HETATM    7  H   UNL     1      -5.663   4.686  66.299  1.00  0.00     0.000 H  
ENDBRANCH   2   5
TORSDOF 1
ENDMDL
MODEL      160
REMARK 921   NORMALIZED FREE ENERGY PREDICTED BY IDOCK:   -0.37 KCAL/MOL
REMARK 922        TOTAL FREE ENERGY PREDICTED BY IDOCK:   -0.39 KCAL/MOL
REMARK 923 INTER-LIGAND FREE ENERGY PREDICTED BY IDOCK:   -0.39 KCAL/MOL
REMARK 924 INTRA-LIGAND FREE ENERGY PREDICTED BY IDOCK:    0.00 KCAL/MOL
REMARK 927      BINDING AFFINITY PREDICTED BY RF-SCORE:    0.00 PKD
ROOT
HETATM    1  N   UNL     1      -9.448   6.253  70.589  1.00  0.00    -0.168 NA 
HETATM    2  C   UNL     1      -8.344   5.516  71.208  1.00  0.00    -0.126 C  
HETATM    3  H1  UNL     1     -10.004   6.742  71.291  1.00  0.00     0.000 HD 
HETATM    4  H2  UNL     1     -10.025   5.644  70.009  1.00  0.00     0.000 HD 
ENDROOT
BRANCH   2   5
HETATM    5  C   UNL     1      -7.508   4.782  70.155  1.00  0.00    -0.054 C  
HETATM    6  S   UNL     1      -7.697   2.981  70.319  1.00  0.00    -0.043 SA 
HETATM    7  H   UNL     1      -6.939   2.315  69.363  1.00  0.00     0.000 H  
ENDBRANCH   2   5
TORSDOF 1
ENDMDL
MODEL      161
REMARK 921   NORMALIZED FREE ENERGY PREDICTED BY IDOCK:   -0.36 KCAL/MOL
REMARK 922        TOTAL FREE ENERGY PREDICTED BY IDOCK:   -0.38 KCAL/MOL
REMARK 923 INTER-LIGAND FREE ENERGY PREDICTED BY IDOCK:   -0.38 KCAL/MOL
REMARK 924 INTRA-LIGAND FREE ENERGY PREDICTED BY IDOCK:    0.00 KCAL/MOL
REMARK 927      BINDING AFFINITY PREDICTED BY RF-SCORE:    0.00 PKD
ROOT
HETATM    1  N   UNL     1      -7.089   4.271  69.307  1.00  0.00    -0.050 NA 
HETATM    2  C   UNL     1      -7.245   5.097  68.108  1.00  0.00    -0.067 C  
HETATM    3  H1  UNL     1      -6.296   3.636  69.218  1.00  0.00     0.000 HD 
HETATM    4  H2  UNL     1      -7.949   3.769  69.531  1.00  0.00     0.000 HD 
ENDROOT
BRANCH   2   5
HETATM    5  C   UNL     1      -8.436   6.051  68.243  1.00  0.00    -0.112 C  
HETATM    6  S   UNL     1      -9.629   5.792  66.896  1.00  0.00    -0.150 SA 
HETATM    7  H   UNL     1     -10.710   6.658  67.018  1.00  0.00     0.000 H  
ENDBRANCH   2   5
TORSDOF 1
ENDMDL
MODEL      162
REMARK 921   NORMALIZED FREE ENERGY PREDICTED BY IDOCK:   -0.34 KCAL/MOL
REMARK 922        TOTAL FREE ENERGY PREDICTED BY IDOCK:   -0.36 KCAL/MOL
REMARK 923 INTER-LIGAND FREE ENERGY PREDICTED BY IDOCK:   -0.36 KCAL/MOL
REMARK 924 INTRA-LIGAND FREE ENERGY PREDICTED BY IDOCK:    0.00 KCAL/MOL
REMARK 927      BINDING AFFINITY PREDICTED BY RF-SCORE:    0.00 PKD
ROOT
HETATM    1  N   UNL     1     -10.120   3.945  72.619  1.00  0.00    -0.160 NA 
HETATM    2  C   UNL     1      -9.247   3.638  73.754  1.00  0.00    -0.093 C  
HETATM    3  H1  UNL     1     -11.077   4.117  72.925  1.00  0.00     0.000 HD 
HETATM    4  H2  UNL     1     -10.078   3.216  71.907  1.00  0.00     0.000 HD 
ENDROOT
BRANCH   2   5
HETATM    5  C   UNL     1      -7.809   3.381  73.294  1.00  0.00    -0.069 C  
HETATM    6  S   UNL     1      -7.581   1.640  72.822  1.00  0.00    -0.036 SA 
HETATM    7  H   UNL     1      -6.276   1.406  72.404  1.00  0.00     0.000 H  
ENDBRANCH   2   5
TORSDOF 1
ENDMDL
MODEL      163
REMARK 921   NORMALIZED FREE ENERGY PREDICTED BY IDOCK:   -0.30 KCAL/MOL
REMARK 922        TOTAL FREE ENERGY PREDICTED BY IDOCK:   -0.32 KCAL/MOL
REMARK 923 INTER-LIGAND FREE ENERGY PREDICTED BY IDOCK:   -0.32 KCAL/MOL
REMARK 924 INTRA-LIGAND FREE ENERGY PREDICTED BY IDOCK:    0.00 KCAL/MOL
REMARK 927      BINDING AFFINITY PREDICTED BY RF-SCORE:    0.00 PKD
ROOT
HETATM    1  N   UNL     1      -6.712   2.741  70.478  1.00  0.00    -0.032 NA 
HETATM    2  C   UNL     1      -7.531   3.211  69.359  1.00  0.00    -0.048 C  
HETATM    3  H1  UNL     1      -5.835   2.336  70.149  1.00  0.00     0.000 HD 
HETATM    4  H2  UNL     1      -7.227   2.091  71.072  1.00  0.00     0.000 HD 
ENDROOT
BRANCH   2   5
HETATM    5  C   UNL     1      -8.846   3.820  69.852  1.00  0.00    -0.088 C  
HETATM    6  S   UNL     1      -9.465   2.930  71.312  1.00  0.00    -0.155 SA 
HETATM    7  H   UNL     1     -10.659   3.483  71.759  1.00  0.00     0.000 H  
ENDBRANCH   2   5
TORSDOF 1
ENDMDL
MODEL      164
REMARK 921   NORMALIZED FREE ENERGY PREDICTED BY IDOCK:   -0.30 KCAL/MOL
REMARK 922        TOTAL FREE ENERGY PREDICTED BY IDOCK:   -0.32 KCAL/MOL
REMARK 923 INTER-LIGAND FREE ENERGY PREDICTED BY IDOCK:   -0.32 KCAL/MOL
REMARK 924 INTRA-LIGAND FREE ENERGY PREDICTED BY IDOCK:    0.00 KCAL/MOL
REMARK 927      BINDING AFFINITY PREDICTED BY RF-SCORE:    0.00 PKD
ROOT
HETATM    1  N   UNL     1      -9.157   6.133  70.612  1.00  0.00    -0.149 NA 
HETATM    2  C   UNL     1      -7.934   5.735  71.313  1.00  0.00    -0.113 C  
HETATM    3  H1  UNL     1      -9.851   6.503  71.261  1.00  0.00     0.000 HD 
HETATM    4  H2  UNL     1      -9.535   5.367  70.054  1.00  0.00     0.000 HD 
ENDROOT
BRANCH   2   5
HETATM    5  C   UNL     1      -6.892   5.179  70.339  1.00  0.00    -0.044 C  
HETATM    6  S   UNL     1      -5.283   5.991  70.580  1.00  0.00    -0.013 SA 
HETATM    7  H   UNL     1      -4.336   5.487  69.696  1.00  0.00     0.000 H  
ENDBRANCH   2   5
TORSDOF 1
ENDMDL
MODEL      165
REMARK 921   NORMALIZED FREE ENERGY PREDICTED BY IDOCK:   -0.26 KCAL/MOL
REMARK 922        TOTAL FREE ENERGY PREDICTED BY IDOCK:   -0.27 KCAL/MOL
REMARK 923 INTER-LIGAND FREE ENERGY PREDICTED BY IDOCK:   -0.27 KCAL/MOL
REMARK 924 INTRA-LIGAND FREE ENERGY PREDICTED BY IDOCK:    0.00 KCAL/MOL
REMARK 927      BINDING AFFINITY PREDICTED BY RF-SCORE:    0.00 PKD
ROOT
HETATM    1  N   UNL     1      -7.800   3.560  70.688  1.00  0.00    -0.046 NA 
HETATM    2  C   UNL     1      -8.456   2.735  71.705  1.00  0.00    -0.064 C  
HETATM    3  H1  UNL     1      -7.579   3.014  69.855  1.00  0.00     0.000 HD 
HETATM    4  H2  UNL     1      -6.974   4.028  71.061  1.00  0.00     0.000 HD 
ENDROOT
BRANCH   2   5
HETATM    5  C   UNL     1      -8.789   3.556  72.954  1.00  0.00    -0.092 C  
HETATM    6  S   UNL     1      -8.276   2.677  74.461  1.00  0.00    -0.068 SA 
HETATM    7  H   UNL     1      -8.578   3.422  75.595  1.00  0.00     0.000 H  
ENDBRANCH   2   5
TORSDOF 1
ENDMDL
MODEL      166
REMARK 921   NORMALIZED FREE ENERGY PREDICTED BY IDOCK:   -0.23 KCAL/MOL
REMARK 922        TOTAL FREE ENERGY PREDICTED BY IDOCK:   -0.24 KCAL/MOL
REMARK 923 INTER-LIGAND FREE ENERGY PREDICTED BY IDOCK:   -0.24 KCAL/MOL
REMARK 924 INTRA-LIGAND FREE ENERGY PREDICTED BY IDOCK:    0.00 KCAL/MOL
REMARK 927      BINDING AFFINITY PREDICTED BY RF-SCORE:    0.00 PKD
ROOT
HETATM    1  N   UNL     1      -8.627   2.135  66.947  1.00  0.00    -0.102 NA 
HETATM    2  C   UNL     1      -7.918   2.928  65.940  1.00  0.00    -0.082 C  
HETATM    3  H1  UNL     1      -9.486   1.737  66.566  1.00  0.00     0.000 HD 
HETATM    4  H2  UNL     1      -8.807   2.677  67.792  1.00  0.00     0.000 HD 
ENDROOT
BRANCH   2   5
HETATM    5  C   UNL     1      -6.629   3.525  66.512  1.00  0.00    -0.041 C  
HETATM    6  S   UNL     1      -5.723   2.291  67.493  1.00  0.00    -0.019 SA 
HETATM    7  H   UNL     1      -4.553   2.833  68.012  1.00  0.00     0.000 H  
ENDBRANCH   2   5
TORSDOF 1
ENDMDL
MODEL      167
REMARK 921   NORMALIZED FREE ENERGY PREDICTED BY IDOCK:   -0.17 KCAL/MOL
REMARK 922        TOTAL FREE ENERGY PREDICTED BY IDOCK:   -0.18 KCAL/MOL
REMARK 923 INTER-LIGAND FREE ENERGY PREDICTED BY IDOCK:   -0.18 KCAL/MOL
REMARK 924 INTRA-LIGAND FREE ENERGY PREDICTED BY IDOCK:    0.00 KCAL/MOL
REMARK 927      BINDING AFFINITY PREDICTED BY RF-SCORE:    0.00 PKD
ROOT
HETATM    1  N   UNL     1      -8.433   3.163  69.104  1.00  0.00    -0.060 NA 
HETATM    2  C   UNL     1      -7.560   3.914  68.200  1.00  0.00    -0.066 C  
HETATM    3  H1  UNL     1      -9.293   2.878  68.634  1.00  0.00     0.000 HD 
HETATM    4  H2  UNL     1      -8.627   3.687  69.958  1.00  0.00     0.000 HD 
ENDROOT
BRANCH   2   5
HETATM    5  C   UNL     1      -6.269   4.342  68.904  1.00  0.00    -0.031 C  
HETATM    6  S   UNL     1      -6.141   3.571  70.546  1.00  0.00    -0.019 SA 
HETATM    7  H   UNL     1      -4.969   3.959  71.185  1.00  0.00     0.000 H  
ENDBRANCH   2   5
TORSDOF 1
ENDMDL
MODEL      168
REMARK 921   NORMALIZED FREE ENERGY PREDICTED BY IDOCK:   -0.11 KCAL/MOL
REMARK 922        TOTAL FREE ENERGY PREDICTED BY IDOCK:   -0.11 KCAL/MOL
REMARK 923 INTER-LIGAND FREE ENERGY PREDICTED BY IDOCK:   -0.11 KCAL/MOL
REMARK 924 INTRA-LIGAND FREE ENERGY PREDICTED BY IDOCK:    0.00 KCAL/MOL
REMARK 927      BINDING AFFINITY PREDICTED BY RF-SCORE:    0.00 PKD
ROOT
HETATM    1  N   UNL     1      -7.120   1.859  69.006  1.00  0.00    -0.039 NA 
HETATM    2  C   UNL     1      -7.465   1.532  70.390  1.00  0.00    -0.032 C  
HETATM    3  H1  UNL     1      -7.299   1.071  68.384  1.00  0.00     0.000 HD 
HETATM    4  H2  UNL     1      -6.158   2.188  68.927  1.00  0.00     0.000 HD 
ENDROOT
BRANCH   2   5
HETATM    5  C   UNL     1      -7.196   2.716  71.324  1.00  0.00    -0.033 C  
HETATM    6  S   UNL     1      -6.236   2.192  72.776  1.00  0.00    -0.009 SA 
HETATM    7  H   UNL     1      -5.993   3.267  73.623  1.00  0.00     0.000 H  
ENDBRANCH   2   5
TORSDOF 1
ENDMDL
